[H]c1nc(Cl)c([H])c([H])c1N1C([H])([H])C([H])([H])[C@@]([H])(OC([H])([H])C([H])([H])N([H])C(=O)c2c([H])c(Cl)nc(Cl)c2[H])[C@@]([H])(OC([H])([H])[H])C1([H])[H]


 30 32  0  0  0  0  0  0  0  0999 V2000
   36.9026   16.2578   -8.4715 C   0  0  0  0  0  0  0  0  0  0  0  0
   37.9210   15.6701   -7.5555 C   0  0  0  0  0  0  0  0  0  0  0  0
   39.1149   15.1795   -8.1508 N   0  0  0  0  0  0  0  0  0  0  0  0
   39.5941   15.5523   -9.4630 C   0  0  0  0  0  0  0  0  0  0  0  0
   38.9324   16.8755   -9.7775 C   0  0  0  0  0  0  0  0  0  0  0  0
   37.4104   16.6454   -9.8377 C   0  0  0  0  0  0  0  0  0  0  0  0
   39.9198   14.2471   -7.3995 C   0  0  0  0  0  0  0  0  0  0  0  0
   39.3333   13.2229   -6.7148 C   0  0  0  0  0  0  0  0  0  0  0  0
   40.0899   12.3579   -6.0226 N   0  0  0  0  0  0  0  0  0  0  0  0
   41.4302   12.4545   -5.9699 C   0  0  0  0  0  0  0  0  0  0  0  0
   42.3242   11.2799   -5.0420 Cl  0  0  0  0  0  0  0  0  0  0  0  0
   42.0364   13.4827   -6.6555 C   0  0  0  0  0  0  0  0  0  0  0  0
   41.2886   14.3770   -7.3682 C   0  0  0  0  0  0  0  0  0  0  0  0
   35.5691   14.6852   -7.4079 C   0  0  0  0  0  0  0  0  0  0  0  0
   35.7358   15.5029   -8.5102 O   0  0  0  0  0  0  0  0  0  0  0  0
   37.1648   15.6240  -10.6967 O   0  0  0  0  0  0  0  0  0  0  0  0
   36.5223   15.8949  -11.8508 C   0  0  0  0  0  0  0  0  0  0  0  0
   35.2083   15.2526  -12.1040 C   0  0  0  0  0  0  0  0  0  0  0  0
   35.2890   14.5580  -13.3903 N   0  0  0  0  0  0  0  0  0  0  0  0
   35.4671   13.1517  -13.4633 C   0  0  0  0  0  0  0  0  0  0  0  0
   35.5531   12.5321  -12.3599 O   0  0  0  0  0  0  0  0  0  0  0  0
   35.2175   15.0816  -14.2889 H   0  0  0  0  0  0  0  0  0  0  0  0
   35.5522   12.4182  -14.7054 C   0  0  0  0  0  0  0  0  0  0  0  0
   34.4507   11.8803  -15.3258 C   0  0  0  0  0  0  0  0  0  0  0  0
   34.6584   11.1963  -16.5163 C   0  0  0  0  0  0  0  0  0  0  0  0
   33.2972   10.4872  -17.3563 Cl  0  0  0  0  0  0  0  0  0  0  0  0
   35.8786   11.0492  -17.0659 N   0  0  0  0  0  0  0  0  0  0  0  0
   36.9705   11.5685  -16.4739 C   0  0  0  0  0  0  0  0  0  0  0  0
   38.5672   11.3766  -17.1913 Cl  0  0  0  0  0  0  0  0  0  0  0  0
   36.7902   12.2478  -15.2982 C   0  0  0  0  0  0  0  0  0  0  0  0
 14 15  1  0  0  0
 15  1  1  0  0  0
  1  2  1  0  0  0
  2  3  1  0  0  0
  3  4  1  0  0  0
  4  5  1  0  0  0
  5  6  1  0  0  0
  6 16  1  0  0  0
 16 17  1  0  0  0
 17 18  1  0  0  0
 18 19  1  0  0  0
 19 20  1  0  0  0
 20 21  2  0  0  0
 20 23  1  0  0  0
 23 24  2  0  0  0
 24 25  1  0  0  0
 25 26  1  0  0  0
 25 27  2  0  0  0
 27 28  1  0  0  0
 28 29  1  0  0  0
 28 30  2  0  0  0
  3  7  1  0  0  0
  7  8  2  0  0  0
  8  9  1  0  0  0
  9 10  2  0  0  0
 10 11  1  0  0  0
 10 12  1  0  0  0
 12 13  2  0  0  0
  6  1  1  0  0  0
 30 23  1  0  0  0
 13  7  1  0  0  0
 19 22  1  0  0  0
M  END
> <minimizedAffinity>
-7.47656

> <CNNscore>
0.3888424039

> <CNNaffinity>
5.8959083557

> <CNN_VS>
2.2925791740

> <CNNaffinity_variance>
0.1784131825

$$$$
[H]c1nc(Cl)c([H])c([H])c1N1C([H])([H])C([H])([H])[C@@]([H])(OC([H])([H])C([H])([H])N([H])C(=O)c2c([H])c(Cl)nc(Cl)c2[H])[C@@]([H])(OC([H])([H])[H])C1([H])[H]


 30 32  0  0  0  0  0  0  0  0999 V2000
   37.4896   15.4067   -8.3721 C   0  0  0  0  0  0  0  0  0  0  0  0
   38.4262   14.8076   -7.3795 C   0  0  0  0  0  0  0  0  0  0  0  0
   39.7340   14.4919   -7.8381 N   0  0  0  0  0  0  0  0  0  0  0  0
   40.3493   15.0514   -9.0209 C   0  0  0  0  0  0  0  0  0  0  0  0
   39.6070   16.3404   -9.2950 C   0  0  0  0  0  0  0  0  0  0  0  0
   38.1389   15.9894   -9.6023 C   0  0  0  0  0  0  0  0  0  0  0  0
   40.5177   13.5521   -7.0736 C   0  0  0  0  0  0  0  0  0  0  0  0
   39.9789   12.9239   -5.9888 C   0  0  0  0  0  0  0  0  0  0  0  0
   40.7136   12.0481   -5.2866 N   0  0  0  0  0  0  0  0  0  0  0  0
   41.9855   11.7531   -5.6083 C   0  0  0  0  0  0  0  0  0  0  0  0
   42.8563   10.6005   -4.6319 Cl  0  0  0  0  0  0  0  0  0  0  0  0
   42.5430   12.3788   -6.7002 C   0  0  0  0  0  0  0  0  0  0  0  0
   41.8162   13.2747   -7.4322 C   0  0  0  0  0  0  0  0  0  0  0  0
   35.6485   14.2561   -7.5543 C   0  0  0  0  0  0  0  0  0  0  0  0
   36.4213   14.5644   -8.6585 O   0  0  0  0  0  0  0  0  0  0  0  0
   38.1183   15.0554  -10.5864 O   0  0  0  0  0  0  0  0  0  0  0  0
   37.9099   15.4625  -11.8550 C   0  0  0  0  0  0  0  0  0  0  0  0
   36.5318   15.4108  -12.4040 C   0  0  0  0  0  0  0  0  0  0  0  0
   36.5740   14.6441  -13.6506 N   0  0  0  0  0  0  0  0  0  0  0  0
   36.2070   13.2736  -13.6905 C   0  0  0  0  0  0  0  0  0  0  0  0
   35.8430   12.7509  -12.5936 O   0  0  0  0  0  0  0  0  0  0  0  0
   36.8764   15.0879  -14.5441 H   0  0  0  0  0  0  0  0  0  0  0  0
   36.2301   12.4726  -14.8929 C   0  0  0  0  0  0  0  0  0  0  0  0
   37.3938   12.1579  -15.5521 C   0  0  0  0  0  0  0  0  0  0  0  0
   37.2889   11.3806  -16.6980 C   0  0  0  0  0  0  0  0  0  0  0  0
   38.7333   10.9452  -17.5840 Cl  0  0  0  0  0  0  0  0  0  0  0  0
   36.1081   10.9377  -17.1694 N   0  0  0  0  0  0  0  0  0  0  0  0
   34.9566   11.2349  -16.5385 C   0  0  0  0  0  0  0  0  0  0  0  0
   33.4114   10.6568  -17.1540 Cl  0  0  0  0  0  0  0  0  0  0  0  0
   35.0352   12.0007  -15.4054 C   0  0  0  0  0  0  0  0  0  0  0  0
 14 15  1  0  0  0
 15  1  1  0  0  0
  1  2  1  0  0  0
  2  3  1  0  0  0
  3  4  1  0  0  0
  4  5  1  0  0  0
  5  6  1  0  0  0
  6 16  1  0  0  0
 16 17  1  0  0  0
 17 18  1  0  0  0
 18 19  1  0  0  0
 19 20  1  0  0  0
 20 21  2  0  0  0
 20 23  1  0  0  0
 23 24  2  0  0  0
 24 25  1  0  0  0
 25 26  1  0  0  0
 25 27  2  0  0  0
 27 28  1  0  0  0
 28 29  1  0  0  0
 28 30  2  0  0  0
  3  7  1  0  0  0
  7  8  2  0  0  0
  8  9  1  0  0  0
  9 10  2  0  0  0
 10 11  1  0  0  0
 10 12  1  0  0  0
 12 13  2  0  0  0
  6  1  1  0  0  0
 30 23  1  0  0  0
 13  7  1  0  0  0
 19 22  1  0  0  0
M  END
> <minimizedAffinity>
-7.59531

> <CNNscore>
0.3432435691

> <CNNaffinity>
5.7277717590

> <CNN_VS>
1.9660208225

> <CNNaffinity_variance>
0.1345038712

$$$$
[H]c1nc(Cl)c([H])c([H])c1N1C([H])([H])C([H])([H])[C@@]([H])(OC([H])([H])C([H])([H])N([H])C(=O)c2c([H])c(Cl)nc(Cl)c2[H])[C@@]([H])(OC([H])([H])[H])C1([H])[H]


 30 32  0  0  0  0  0  0  0  0999 V2000
   38.1275   15.0376  -11.5318 C   0  0  0  0  0  0  0  0  0  0  0  0
   38.1981   16.0586  -10.4482 C   0  0  0  0  0  0  0  0  0  0  0  0
   36.9633   16.5732   -9.9677 N   0  0  0  0  0  0  0  0  0  0  0  0
   35.6805   15.9280  -10.1373 C   0  0  0  0  0  0  0  0  0  0  0  0
   35.9887   14.4685  -10.3877 C   0  0  0  0  0  0  0  0  0  0  0  0
   36.7868   14.3681  -11.7015 C   0  0  0  0  0  0  0  0  0  0  0  0
   36.9776   17.8255   -9.2513 C   0  0  0  0  0  0  0  0  0  0  0  0
   37.8336   18.8224   -9.6188 C   0  0  0  0  0  0  0  0  0  0  0  0
   37.8368   19.9853   -8.9497 N   0  0  0  0  0  0  0  0  0  0  0  0
   37.0175   20.2207   -7.9097 C   0  0  0  0  0  0  0  0  0  0  0  0
   37.0985   21.7656   -7.1056 Cl  0  0  0  0  0  0  0  0  0  0  0  0
   36.1481   19.2244   -7.5271 C   0  0  0  0  0  0  0  0  0  0  0  0
   36.1249   18.0310   -8.1919 C   0  0  0  0  0  0  0  0  0  0  0  0
   40.0474   15.5750  -12.7181 C   0  0  0  0  0  0  0  0  0  0  0  0
   38.6667   15.5033  -12.7256 O   0  0  0  0  0  0  0  0  0  0  0  0
   36.0977   15.0188  -12.6726 O   0  0  0  0  0  0  0  0  0  0  0  0
   35.1850   14.3285  -13.3859 C   0  0  0  0  0  0  0  0  0  0  0  0
   35.4746   12.9162  -13.7392 C   0  0  0  0  0  0  0  0  0  0  0  0
   36.5092   12.9161  -14.7752 N   0  0  0  0  0  0  0  0  0  0  0  0
   37.7415   12.2362  -14.5918 C   0  0  0  0  0  0  0  0  0  0  0  0
   37.8982   11.6323  -13.4875 O   0  0  0  0  0  0  0  0  0  0  0  0
   36.3657   13.4180  -15.6775 H   0  0  0  0  0  0  0  0  0  0  0  0
   38.7940   12.2042  -15.5814 C   0  0  0  0  0  0  0  0  0  0  0  0
   38.6167   11.6719  -16.8356 C   0  0  0  0  0  0  0  0  0  0  0  0
   39.7029   11.6984  -17.7003 C   0  0  0  0  0  0  0  0  0  0  0  0
   39.5429   11.0362  -19.3118 Cl  0  0  0  0  0  0  0  0  0  0  0  0
   40.8952   12.2181  -17.3527 N   0  0  0  0  0  0  0  0  0  0  0  0
   41.0896   12.7443  -16.1289 C   0  0  0  0  0  0  0  0  0  0  0  0
   42.6486   13.4241  -15.6726 Cl  0  0  0  0  0  0  0  0  0  0  0  0
   40.0321   12.7295  -15.2585 C   0  0  0  0  0  0  0  0  0  0  0  0
 14 15  1  0  0  0
 15  1  1  0  0  0
  1  2  1  0  0  0
  2  3  1  0  0  0
  3  4  1  0  0  0
  4  5  1  0  0  0
  5  6  1  0  0  0
  6 16  1  0  0  0
 16 17  1  0  0  0
 17 18  1  0  0  0
 18 19  1  0  0  0
 19 20  1  0  0  0
 20 21  2  0  0  0
 20 23  1  0  0  0
 23 24  2  0  0  0
 24 25  1  0  0  0
 25 26  1  0  0  0
 25 27  2  0  0  0
 27 28  1  0  0  0
 28 29  1  0  0  0
 28 30  2  0  0  0
  3  7  1  0  0  0
  7  8  2  0  0  0
  8  9  1  0  0  0
  9 10  2  0  0  0
 10 11  1  0  0  0
 10 12  1  0  0  0
 12 13  2  0  0  0
  6  1  1  0  0  0
 30 23  1  0  0  0
 13  7  1  0  0  0
 19 22  1  0  0  0
M  END
> <minimizedAffinity>
-7.87696

> <CNNscore>
0.3127759993

> <CNNaffinity>
6.1567239761

> <CNN_VS>
1.9256755114

> <CNNaffinity_variance>
0.0525386631

$$$$
[H]c1nc(Cl)c([H])c([H])c1N1C([H])([H])C([H])([H])[C@@]([H])(OC([H])([H])C([H])([H])N([H])C(=O)c2c([H])c(Cl)nc(Cl)c2[H])[C@@]([H])(OC([H])([H])[H])C1([H])[H]


 30 32  0  0  0  0  0  0  0  0999 V2000
   37.1979   15.1035   -7.9707 C   0  0  0  0  0  0  0  0  0  0  0  0
   38.6329   15.2351   -7.5897 C   0  0  0  0  0  0  0  0  0  0  0  0
   39.5474   15.5582   -8.6287 N   0  0  0  0  0  0  0  0  0  0  0  0
   39.1791   16.1510   -9.8950 C   0  0  0  0  0  0  0  0  0  0  0  0
   37.8427   16.8188   -9.6586 C   0  0  0  0  0  0  0  0  0  0  0  0
   36.8212   15.7256   -9.2919 C   0  0  0  0  0  0  0  0  0  0  0  0
   40.9482   15.2867   -8.4148 C   0  0  0  0  0  0  0  0  0  0  0  0
   41.3736   14.7305   -7.2437 C   0  0  0  0  0  0  0  0  0  0  0  0
   42.6775   14.4773   -7.0553 N   0  0  0  0  0  0  0  0  0  0  0  0
   43.6071   14.7522   -7.9873 C   0  0  0  0  0  0  0  0  0  0  0  0
   45.2771   14.3852   -7.6461 Cl  0  0  0  0  0  0  0  0  0  0  0  0
   43.1933   15.3136   -9.1741 C   0  0  0  0  0  0  0  0  0  0  0  0
   41.8712   15.5812   -9.3910 C   0  0  0  0  0  0  0  0  0  0  0  0
   36.6650   13.3862   -6.5048 C   0  0  0  0  0  0  0  0  0  0  0  0
   36.7340   13.8014   -7.8217 O   0  0  0  0  0  0  0  0  0  0  0  0
   36.8593   14.7648  -10.2494 O   0  0  0  0  0  0  0  0  0  0  0  0
   36.0561   14.8963  -11.3246 C   0  0  0  0  0  0  0  0  0  0  0  0
   36.6109   15.5042  -12.5599 C   0  0  0  0  0  0  0  0  0  0  0  0
   36.2160   14.6619  -13.6906 N   0  0  0  0  0  0  0  0  0  0  0  0
   36.8975   13.4528  -13.9875 C   0  0  0  0  0  0  0  0  0  0  0  0
   37.8627   13.1428  -13.2252 O   0  0  0  0  0  0  0  0  0  0  0  0
   35.4208   14.9309  -14.3087 H   0  0  0  0  0  0  0  0  0  0  0  0
   36.5481   12.5859  -15.0895 C   0  0  0  0  0  0  0  0  0  0  0  0
   35.2615   12.1634  -15.3215 C   0  0  0  0  0  0  0  0  0  0  0  0
   35.0492   11.3315  -16.4129 C   0  0  0  0  0  0  0  0  0  0  0  0
   33.4337   10.7579  -16.7630 Cl  0  0  0  0  0  0  0  0  0  0  0  0
   36.0440   10.9373  -17.2298 N   0  0  0  0  0  0  0  0  0  0  0  0
   37.3114   11.3399  -17.0199 C   0  0  0  0  0  0  0  0  0  0  0  0
   38.6138   10.8248  -18.0872 Cl  0  0  0  0  0  0  0  0  0  0  0  0
   37.5452   12.1613  -15.9490 C   0  0  0  0  0  0  0  0  0  0  0  0
 14 15  1  0  0  0
 15  1  1  0  0  0
  1  2  1  0  0  0
  2  3  1  0  0  0
  3  4  1  0  0  0
  4  5  1  0  0  0
  5  6  1  0  0  0
  6 16  1  0  0  0
 16 17  1  0  0  0
 17 18  1  0  0  0
 18 19  1  0  0  0
 19 20  1  0  0  0
 20 21  2  0  0  0
 20 23  1  0  0  0
 23 24  2  0  0  0
 24 25  1  0  0  0
 25 26  1  0  0  0
 25 27  2  0  0  0
 27 28  1  0  0  0
 28 29  1  0  0  0
 28 30  2  0  0  0
  3  7  1  0  0  0
  7  8  2  0  0  0
  8  9  1  0  0  0
  9 10  2  0  0  0
 10 11  1  0  0  0
 10 12  1  0  0  0
 12 13  2  0  0  0
  6  1  1  0  0  0
 30 23  1  0  0  0
 13  7  1  0  0  0
 19 22  1  0  0  0
M  END
> <minimizedAffinity>
-6.92842

> <CNNscore>
0.2995456159

> <CNNaffinity>
5.8805856705

> <CNN_VS>
1.7615036964

> <CNNaffinity_variance>
0.1063464656

$$$$
[H]c1nc(Cl)c([H])c([H])c1N1C([H])([H])C([H])([H])[C@@]([H])(OC([H])([H])C([H])([H])N([H])C(=O)c2c([H])c(Cl)nc(Cl)c2[H])[C@@]([H])(OC([H])([H])[H])C1([H])[H]


 30 32  0  0  0  0  0  0  0  0999 V2000
   34.7202   15.1021  -12.3459 C   0  0  0  0  0  0  0  0  0  0  0  0
   33.6618   15.5783  -11.4108 C   0  0  0  0  0  0  0  0  0  0  0  0
   34.0897   16.0424  -10.1373 N   0  0  0  0  0  0  0  0  0  0  0  0
   35.4371   16.4636   -9.8245 C   0  0  0  0  0  0  0  0  0  0  0  0
   36.0700   16.8216  -11.1507 C   0  0  0  0  0  0  0  0  0  0  0  0
   36.1226   15.5468  -12.0139 C   0  0  0  0  0  0  0  0  0  0  0  0
   33.1181   16.1097   -9.0728 C   0  0  0  0  0  0  0  0  0  0  0  0
   33.4852   16.5289   -7.8273 C   0  0  0  0  0  0  0  0  0  0  0  0
   32.5741   16.5926   -6.8446 N   0  0  0  0  0  0  0  0  0  0  0  0
   31.2861   16.2550   -7.0330 C   0  0  0  0  0  0  0  0  0  0  0  0
   30.1790   16.3726   -5.6911 Cl  0  0  0  0  0  0  0  0  0  0  0  0
   30.9005   15.8301   -8.2842 C   0  0  0  0  0  0  0  0  0  0  0  0
   31.8089   15.7563   -9.3021 C   0  0  0  0  0  0  0  0  0  0  0  0
   34.4631   13.4367  -13.9404 C   0  0  0  0  0  0  0  0  0  0  0  0
   34.6192   13.7391  -12.6004 O   0  0  0  0  0  0  0  0  0  0  0  0
   36.7287   14.5677  -11.2961 O   0  0  0  0  0  0  0  0  0  0  0  0
   38.0691   14.4457  -11.3788 C   0  0  0  0  0  0  0  0  0  0  0  0
   38.7345   14.7432  -12.6719 C   0  0  0  0  0  0  0  0  0  0  0  0
   38.2135   13.8074  -13.6702 N   0  0  0  0  0  0  0  0  0  0  0  0
   38.9793   13.4321  -14.8048 C   0  0  0  0  0  0  0  0  0  0  0  0
   40.1330   13.9488  -14.9076 O   0  0  0  0  0  0  0  0  0  0  0  0
   37.2626   13.3917  -13.5720 H   0  0  0  0  0  0  0  0  0  0  0  0
   38.5131   12.5131  -15.8178 C   0  0  0  0  0  0  0  0  0  0  0  0
   37.2403   11.9956  -15.8203 C   0  0  0  0  0  0  0  0  0  0  0  0
   36.9081   11.1214  -16.8468 C   0  0  0  0  0  0  0  0  0  0  0  0
   35.3033   10.4271  -16.9074 Cl  0  0  0  0  0  0  0  0  0  0  0  0
   37.7767   10.7753  -17.8155 N   0  0  0  0  0  0  0  0  0  0  0  0
   39.0283   11.2710  -17.8310 C   0  0  0  0  0  0  0  0  0  0  0  0
   40.1657   10.8191  -19.0971 Cl  0  0  0  0  0  0  0  0  0  0  0  0
   39.3789   12.1357  -16.8283 C   0  0  0  0  0  0  0  0  0  0  0  0
 14 15  1  0  0  0
 15  1  1  0  0  0
  1  2  1  0  0  0
  2  3  1  0  0  0
  3  4  1  0  0  0
  4  5  1  0  0  0
  5  6  1  0  0  0
  6 16  1  0  0  0
 16 17  1  0  0  0
 17 18  1  0  0  0
 18 19  1  0  0  0
 19 20  1  0  0  0
 20 21  2  0  0  0
 20 23  1  0  0  0
 23 24  2  0  0  0
 24 25  1  0  0  0
 25 26  1  0  0  0
 25 27  2  0  0  0
 27 28  1  0  0  0
 28 29  1  0  0  0
 28 30  2  0  0  0
  3  7  1  0  0  0
  7  8  2  0  0  0
  8  9  1  0  0  0
  9 10  2  0  0  0
 10 11  1  0  0  0
 10 12  1  0  0  0
 12 13  2  0  0  0
  6  1  1  0  0  0
 30 23  1  0  0  0
 13  7  1  0  0  0
 19 22  1  0  0  0
M  END
> <minimizedAffinity>
-7.21118

> <CNNscore>
0.2914571166

> <CNNaffinity>
6.2402067184

> <CNN_VS>
1.8187526464

> <CNNaffinity_variance>
0.2669221461

$$$$
[H]c1nc(Cl)c([H])c([H])c1N1C([H])([H])C([H])([H])[C@@]([H])(OC([H])([H])C([H])([H])N([H])C(=O)c2c([H])c(Cl)nc(Cl)c2[H])[C@@]([H])(OC([H])([H])[H])C1([H])[H]


 30 32  0  0  0  0  0  0  0  0999 V2000
   37.8336   15.3435  -11.1655 C   0  0  0  0  0  0  0  0  0  0  0  0
   37.9796   16.3897  -10.1140 C   0  0  0  0  0  0  0  0  0  0  0  0
   36.7844   16.8649   -9.5091 N   0  0  0  0  0  0  0  0  0  0  0  0
   35.5190   16.1655   -9.5248 C   0  0  0  0  0  0  0  0  0  0  0  0
   35.8590   14.7144   -9.7827 C   0  0  0  0  0  0  0  0  0  0  0  0
   36.5118   14.6174  -11.1746 C   0  0  0  0  0  0  0  0  0  0  0  0
   36.8244   18.1320   -8.8202 C   0  0  0  0  0  0  0  0  0  0  0  0
   35.9246   18.4109   -7.8331 C   0  0  0  0  0  0  0  0  0  0  0  0
   35.9721   19.5899   -7.1948 N   0  0  0  0  0  0  0  0  0  0  0  0
   36.8855   20.5322   -7.4884 C   0  0  0  0  0  0  0  0  0  0  0  0
   36.8640   22.0327   -6.6007 Cl  0  0  0  0  0  0  0  0  0  0  0  0
   37.8000   20.2655   -8.4820 C   0  0  0  0  0  0  0  0  0  0  0  0
   37.7732   19.0724   -9.1473 C   0  0  0  0  0  0  0  0  0  0  0  0
   39.2787   15.1038  -12.9646 C   0  0  0  0  0  0  0  0  0  0  0  0
   38.2187   15.8043  -12.4194 O   0  0  0  0  0  0  0  0  0  0  0  0
   35.6936   15.2188  -12.0747 O   0  0  0  0  0  0  0  0  0  0  0  0
   34.8489   14.4492  -12.7905 C   0  0  0  0  0  0  0  0  0  0  0  0
   35.1849   13.0176  -12.9924 C   0  0  0  0  0  0  0  0  0  0  0  0
   36.0370   12.9198  -14.1791 N   0  0  0  0  0  0  0  0  0  0  0  0
   37.2425   12.1706  -14.1661 C   0  0  0  0  0  0  0  0  0  0  0  0
   37.5410   11.5937  -13.0767 O   0  0  0  0  0  0  0  0  0  0  0  0
   35.7783   13.4006  -15.0671 H   0  0  0  0  0  0  0  0  0  0  0  0
   38.1179   12.0415  -15.3085 C   0  0  0  0  0  0  0  0  0  0  0  0
   39.4206   12.4780  -15.2975 C   0  0  0  0  0  0  0  0  0  0  0  0
   40.1642   12.2988  -16.4565 C   0  0  0  0  0  0  0  0  0  0  0  0
   41.8295   12.8332  -16.5079 Cl  0  0  0  0  0  0  0  0  0  0  0  0
   39.6570   11.7237  -17.5630 N   0  0  0  0  0  0  0  0  0  0  0  0
   38.3832   11.2894  -17.5944 C   0  0  0  0  0  0  0  0  0  0  0  0
   37.7182   10.5373  -19.0411 Cl  0  0  0  0  0  0  0  0  0  0  0  0
   37.6300   11.4554  -16.4624 C   0  0  0  0  0  0  0  0  0  0  0  0
 14 15  1  0  0  0
 15  1  1  0  0  0
  1  2  1  0  0  0
  2  3  1  0  0  0
  3  4  1  0  0  0
  4  5  1  0  0  0
  5  6  1  0  0  0
  6 16  1  0  0  0
 16 17  1  0  0  0
 17 18  1  0  0  0
 18 19  1  0  0  0
 19 20  1  0  0  0
 20 21  2  0  0  0
 20 23  1  0  0  0
 23 24  2  0  0  0
 24 25  1  0  0  0
 25 26  1  0  0  0
 25 27  2  0  0  0
 27 28  1  0  0  0
 28 29  1  0  0  0
 28 30  2  0  0  0
  3  7  1  0  0  0
  7  8  2  0  0  0
  8  9  1  0  0  0
  9 10  2  0  0  0
 10 11  1  0  0  0
 10 12  1  0  0  0
 12 13  2  0  0  0
  6  1  1  0  0  0
 30 23  1  0  0  0
 13  7  1  0  0  0
 19 22  1  0  0  0
M  END
> <minimizedAffinity>
-7.83769

> <CNNscore>
0.2795490026

> <CNNaffinity>
6.1405305862

> <CNN_VS>
1.7165791988

> <CNNaffinity_variance>
0.1544430703

$$$$
[H]c1nc(Cl)c([H])c([H])c1N1C([H])([H])C([H])([H])[C@@]([H])(OC([H])([H])C([H])([H])N([H])C(=O)c2c([H])c(Cl)nc(Cl)c2[H])[C@@]([H])(OC([H])([H])[H])C1([H])[H]


 30 32  0  0  0  0  0  0  0  0999 V2000
   34.1122   14.8502  -12.6790 C   0  0  0  0  0  0  0  0  0  0  0  0
   33.0482   15.3576  -11.7669 C   0  0  0  0  0  0  0  0  0  0  0  0
   33.4501   15.7353  -10.4569 N   0  0  0  0  0  0  0  0  0  0  0  0
   34.8077   16.0482  -10.0702 C   0  0  0  0  0  0  0  0  0  0  0  0
   35.5210   16.4186  -11.3515 C   0  0  0  0  0  0  0  0  0  0  0  0
   35.5254   15.1817  -12.2698 C   0  0  0  0  0  0  0  0  0  0  0  0
   32.4394   15.8236   -9.4310 C   0  0  0  0  0  0  0  0  0  0  0  0
   31.1169   15.7306   -9.7537 C   0  0  0  0  0  0  0  0  0  0  0  0
   30.1842   15.8093   -8.7927 N   0  0  0  0  0  0  0  0  0  0  0  0
   30.4978   15.9794   -7.4961 C   0  0  0  0  0  0  0  0  0  0  0  0
   29.2114   16.0694   -6.3225 Cl  0  0  0  0  0  0  0  0  0  0  0  0
   31.8279   16.0749   -7.1549 C   0  0  0  0  0  0  0  0  0  0  0  0
   32.7973   15.9979   -8.1145 C   0  0  0  0  0  0  0  0  0  0  0  0
   33.9998   13.2516  -14.3566 C   0  0  0  0  0  0  0  0  0  0  0  0
   33.9309   13.5097  -13.0001 O   0  0  0  0  0  0  0  0  0  0  0  0
   36.0321   14.1328  -11.5738 O   0  0  0  0  0  0  0  0  0  0  0  0
   37.3563   14.1087  -11.3206 C   0  0  0  0  0  0  0  0  0  0  0  0
   38.3004   14.3950  -12.4296 C   0  0  0  0  0  0  0  0  0  0  0  0
   37.9009   13.5822  -13.5800 N   0  0  0  0  0  0  0  0  0  0  0  0
   38.8471   13.1465  -14.5440 C   0  0  0  0  0  0  0  0  0  0  0  0
   40.0514   13.4978  -14.3569 O   0  0  0  0  0  0  0  0  0  0  0  0
   36.9066   13.3023  -13.7204 H   0  0  0  0  0  0  0  0  0  0  0  0
   38.5059   12.3431  -15.6956 C   0  0  0  0  0  0  0  0  0  0  0  0
   39.4100   12.0456  -16.6864 C   0  0  0  0  0  0  0  0  0  0  0  0
   38.9645   11.2641  -17.7442 C   0  0  0  0  0  0  0  0  0  0  0  0
   40.0663   10.8497  -19.0386 Cl  0  0  0  0  0  0  0  0  0  0  0  0
   37.7028   10.8013  -17.8240 N   0  0  0  0  0  0  0  0  0  0  0  0
   36.8016   11.0814  -16.8639 C   0  0  0  0  0  0  0  0  0  0  0  0
   35.1509   10.4772  -16.9671 Cl  0  0  0  0  0  0  0  0  0  0  0  0
   37.2183   11.8510  -15.8102 C   0  0  0  0  0  0  0  0  0  0  0  0
 14 15  1  0  0  0
 15  1  1  0  0  0
  1  2  1  0  0  0
  2  3  1  0  0  0
  3  4  1  0  0  0
  4  5  1  0  0  0
  5  6  1  0  0  0
  6 16  1  0  0  0
 16 17  1  0  0  0
 17 18  1  0  0  0
 18 19  1  0  0  0
 19 20  1  0  0  0
 20 21  2  0  0  0
 20 23  1  0  0  0
 23 24  2  0  0  0
 24 25  1  0  0  0
 25 26  1  0  0  0
 25 27  2  0  0  0
 27 28  1  0  0  0
 28 29  1  0  0  0
 28 30  2  0  0  0
  3  7  1  0  0  0
  7  8  2  0  0  0
  8  9  1  0  0  0
  9 10  2  0  0  0
 10 11  1  0  0  0
 10 12  1  0  0  0
 12 13  2  0  0  0
  6  1  1  0  0  0
 30 23  1  0  0  0
 13  7  1  0  0  0
 19 22  1  0  0  0
M  END
> <minimizedAffinity>
-7.86410

> <CNNscore>
0.2745055556

> <CNNaffinity>
6.3700041771

> <CNN_VS>
1.7486015558

> <CNNaffinity_variance>
0.2673567533

$$$$
[H]c1nc(Cl)c([H])c([H])c1N1C([H])([H])C([H])([H])[C@@]([H])(OC([H])([H])C([H])([H])N([H])C(=O)c2c([H])c(Cl)nc(Cl)c2[H])[C@@]([H])(OC([H])([H])[H])C1([H])[H]


 30 32  0  0  0  0  0  0  0  0999 V2000
   37.2713   15.3013   -8.1291 C   0  0  0  0  0  0  0  0  0  0  0  0
   38.3330   14.8376   -7.1914 C   0  0  0  0  0  0  0  0  0  0  0  0
   39.6443   14.6992   -7.7220 N   0  0  0  0  0  0  0  0  0  0  0  0
   40.1130   15.3320   -8.9347 C   0  0  0  0  0  0  0  0  0  0  0  0
   39.1899   16.5082   -9.1632 C   0  0  0  0  0  0  0  0  0  0  0  0
   37.7678   15.9615   -9.3909 C   0  0  0  0  0  0  0  0  0  0  0  0
   40.5882   13.8765   -7.0050 C   0  0  0  0  0  0  0  0  0  0  0  0
   41.3607   14.4123   -6.0161 C   0  0  0  0  0  0  0  0  0  0  0  0
   42.2324   13.6388   -5.3516 N   0  0  0  0  0  0  0  0  0  0  0  0
   42.3848   12.3299   -5.6200 C   0  0  0  0  0  0  0  0  0  0  0  0
   43.5452   11.4102   -4.6993 Cl  0  0  0  0  0  0  0  0  0  0  0  0
   41.6124   11.7749   -6.6150 C   0  0  0  0  0  0  0  0  0  0  0  0
   40.7171   12.5409   -7.3067 C   0  0  0  0  0  0  0  0  0  0  0  0
   35.1575   14.4928   -7.6187 C   0  0  0  0  0  0  0  0  0  0  0  0
   36.3122   14.3216   -8.3596 O   0  0  0  0  0  0  0  0  0  0  0  0
   37.8194   15.0295  -10.3757 O   0  0  0  0  0  0  0  0  0  0  0  0
   37.6413   15.4308  -11.6508 C   0  0  0  0  0  0  0  0  0  0  0  0
   36.6304   14.7330  -12.4841 C   0  0  0  0  0  0  0  0  0  0  0  0
   37.2884   14.2994  -13.7181 N   0  0  0  0  0  0  0  0  0  0  0  0
   37.6333   12.9399  -13.9358 C   0  0  0  0  0  0  0  0  0  0  0  0
   37.3432   12.1248  -13.0083 O   0  0  0  0  0  0  0  0  0  0  0  0
   37.5211   14.9818  -14.4710 H   0  0  0  0  0  0  0  0  0  0  0  0
   38.2820   12.4599  -15.1345 C   0  0  0  0  0  0  0  0  0  0  0  0
   37.6149   11.7553  -16.1073 C   0  0  0  0  0  0  0  0  0  0  0  0
   38.3459   11.3467  -17.2149 C   0  0  0  0  0  0  0  0  0  0  0  0
   37.5555   10.4454  -18.4894 Cl  0  0  0  0  0  0  0  0  0  0  0  0
   39.6573   11.6149  -17.3587 N   0  0  0  0  0  0  0  0  0  0  0  0
   40.3293   12.3036  -16.4172 C   0  0  0  0  0  0  0  0  0  0  0  0
   42.0448   12.6548  -16.6036 Cl  0  0  0  0  0  0  0  0  0  0  0  0
   39.6289   12.7173  -15.3152 C   0  0  0  0  0  0  0  0  0  0  0  0
 14 15  1  0  0  0
 15  1  1  0  0  0
  1  2  1  0  0  0
  2  3  1  0  0  0
  3  4  1  0  0  0
  4  5  1  0  0  0
  5  6  1  0  0  0
  6 16  1  0  0  0
 16 17  1  0  0  0
 17 18  1  0  0  0
 18 19  1  0  0  0
 19 20  1  0  0  0
 20 21  2  0  0  0
 20 23  1  0  0  0
 23 24  2  0  0  0
 24 25  1  0  0  0
 25 26  1  0  0  0
 25 27  2  0  0  0
 27 28  1  0  0  0
 28 29  1  0  0  0
 28 30  2  0  0  0
  3  7  1  0  0  0
  7  8  2  0  0  0
  8  9  1  0  0  0
  9 10  2  0  0  0
 10 11  1  0  0  0
 10 12  1  0  0  0
 12 13  2  0  0  0
  6  1  1  0  0  0
 30 23  1  0  0  0
 13  7  1  0  0  0
 19 22  1  0  0  0
M  END
> <minimizedAffinity>
-7.24464

> <CNNscore>
0.2717713714

> <CNNaffinity>
5.8456673622

> <CNN_VS>
1.5886850357

> <CNNaffinity_variance>
0.0861107856

$$$$
[H]c1nc(Cl)c([H])c([H])c1N1C([H])([H])C([H])([H])[C@@]([H])(OC([H])([H])C([H])([H])N([H])C(=O)c2c([H])c(Cl)nc(Cl)c2[H])[C@@]([H])(OC([H])([H])[H])C1([H])[H]


 30 32  0  0  0  0  0  0  0  0999 V2000
   35.4193   16.5847   -9.0996 C   0  0  0  0  0  0  0  0  0  0  0  0
   36.5746   16.1651   -8.2565 C   0  0  0  0  0  0  0  0  0  0  0  0
   37.5497   15.3325   -8.8699 N   0  0  0  0  0  0  0  0  0  0  0  0
   37.7331   15.1929  -10.2973 C   0  0  0  0  0  0  0  0  0  0  0  0
   37.1251   16.4353  -10.9093 C   0  0  0  0  0  0  0  0  0  0  0  0
   35.6187   16.4376  -10.5872 C   0  0  0  0  0  0  0  0  0  0  0  0
   38.4314   14.5715   -8.0183 C   0  0  0  0  0  0  0  0  0  0  0  0
   37.9251   13.7925   -7.0189 C   0  0  0  0  0  0  0  0  0  0  0  0
   38.7521   13.0848   -6.2348 N   0  0  0  0  0  0  0  0  0  0  0  0
   40.0877   13.1070   -6.3902 C   0  0  0  0  0  0  0  0  0  0  0  0
   41.0770   12.1511   -5.3190 Cl  0  0  0  0  0  0  0  0  0  0  0  0
   40.6135   13.8882   -7.3942 C   0  0  0  0  0  0  0  0  0  0  0  0
   39.7930   14.6185   -8.2066 C   0  0  0  0  0  0  0  0  0  0  0  0
   33.7492   16.6392   -7.4901 C   0  0  0  0  0  0  0  0  0  0  0  0
   34.2193   16.0474   -8.6479 O   0  0  0  0  0  0  0  0  0  0  0  0
   35.0947   15.2487  -10.9788 O   0  0  0  0  0  0  0  0  0  0  0  0
   33.9914   15.2563  -11.7540 C   0  0  0  0  0  0  0  0  0  0  0  0
   33.9484   14.3691  -12.9432 C   0  0  0  0  0  0  0  0  0  0  0  0
   35.3016   14.2963  -13.4977 N   0  0  0  0  0  0  0  0  0  0  0  0
   35.8561   13.0669  -13.9399 C   0  0  0  0  0  0  0  0  0  0  0  0
   35.1206   12.0395  -13.8288 O   0  0  0  0  0  0  0  0  0  0  0  0
   35.8942   15.1498  -13.5816 H   0  0  0  0  0  0  0  0  0  0  0  0
   37.1843   12.9405  -14.4948 C   0  0  0  0  0  0  0  0  0  0  0  0
   38.2721   13.5965  -13.9714 C   0  0  0  0  0  0  0  0  0  0  0  0
   39.4983   13.3960  -14.5915 C   0  0  0  0  0  0  0  0  0  0  0  0
   40.9229   14.2026  -13.9741 Cl  0  0  0  0  0  0  0  0  0  0  0  0
   39.6473   12.5966  -15.6644 N   0  0  0  0  0  0  0  0  0  0  0  0
   38.5942   11.9450  -16.1925 C   0  0  0  0  0  0  0  0  0  0  0  0
   38.7874   10.8994  -17.5962 Cl  0  0  0  0  0  0  0  0  0  0  0  0
   37.3741   12.1274  -15.5975 C   0  0  0  0  0  0  0  0  0  0  0  0
 14 15  1  0  0  0
 15  1  1  0  0  0
  1  2  1  0  0  0
  2  3  1  0  0  0
  3  4  1  0  0  0
  4  5  1  0  0  0
  5  6  1  0  0  0
  6 16  1  0  0  0
 16 17  1  0  0  0
 17 18  1  0  0  0
 18 19  1  0  0  0
 19 20  1  0  0  0
 20 21  2  0  0  0
 20 23  1  0  0  0
 23 24  2  0  0  0
 24 25  1  0  0  0
 25 26  1  0  0  0
 25 27  2  0  0  0
 27 28  1  0  0  0
 28 29  1  0  0  0
 28 30  2  0  0  0
  3  7  1  0  0  0
  7  8  2  0  0  0
  8  9  1  0  0  0
  9 10  2  0  0  0
 10 11  1  0  0  0
 10 12  1  0  0  0
 12 13  2  0  0  0
  6  1  1  0  0  0
 30 23  1  0  0  0
 13  7  1  0  0  0
 19 22  1  0  0  0
M  END
> <minimizedAffinity>
-7.11741

> <CNNscore>
0.2013226449

> <CNNaffinity>
5.9327692986

> <CNN_VS>
1.1944007874

> <CNNaffinity_variance>
0.2281175107

$$$$
[H]c1nc(C([H])([H])N2C(=O)[C@]([H])(C(=O)N([H])C3([H])C([H])([H])C([H])([H])N(C(=O)c4c([H])c(OC([H])([H])[H])c(OC([H])([H])[H])c(OC([H])([H])[H])c4[H])C([H])([H])C3([H])[H])C([H])([H])C([H])([H])C2([H])[H])c([H])c([H])c1[H]


 38 41  0  0  0  0  0  0  0  0999 V2000
   38.6191   14.3637  -13.8978 C   0  0  0  0  0  0  0  0  0  0  0  0
   39.5160   15.3155  -13.7327 O   0  0  0  0  0  0  0  0  0  0  0  0
   37.5491   14.4132  -13.0326 N   0  0  0  0  0  0  0  0  0  0  0  0
   37.5767   15.5204  -12.0269 C   0  0  0  0  0  0  0  0  0  0  0  0
   37.4402   14.7685  -10.6861 C   0  0  0  0  0  0  0  0  0  0  0  0
   36.0064   14.3035  -10.5369 C   0  0  0  0  0  0  0  0  0  0  0  0
   35.3700   14.1967  -11.9147 C   0  0  0  0  0  0  0  0  0  0  0  0
   36.3721   13.6024  -12.9078 C   0  0  0  0  0  0  0  0  0  0  0  0
   40.6780   12.4995  -16.3957 C   0  0  0  0  0  0  0  0  0  0  0  0
   40.2682   13.3475  -15.4028 C   0  0  0  0  0  0  0  0  0  0  0  0
   38.9345   13.4523  -14.9577 C   0  0  0  0  0  0  0  0  0  0  0  0
   38.0416   12.6330  -15.5905 C   0  0  0  0  0  0  0  0  0  0  0  0
   38.4245   11.7529  -16.6075 C   0  0  0  0  0  0  0  0  0  0  0  0
   39.7420   11.6914  -17.0050 C   0  0  0  0  0  0  0  0  0  0  0  0
   43.0484   12.8854  -15.9230 C   0  0  0  0  0  0  0  0  0  0  0  0
   42.0076   12.4341  -16.8034 O   0  0  0  0  0  0  0  0  0  0  0  0
   37.4415   10.9681  -17.1808 O   0  0  0  0  0  0  0  0  0  0  0  0
   36.0709   11.1951  -16.9370 C   0  0  0  0  0  0  0  0  0  0  0  0
   40.1169   10.8040  -18.0276 O   0  0  0  0  0  0  0  0  0  0  0  0
   39.9313   11.3053  -19.3491 C   0  0  0  0  0  0  0  0  0  0  0  0
   35.2304   15.2170   -9.7205 N   0  0  0  0  0  0  0  0  0  0  0  0
   35.0575   15.0538   -8.3284 C   0  0  0  0  0  0  0  0  0  0  0  0
   35.6454   14.0182   -7.8399 O   0  0  0  0  0  0  0  0  0  0  0  0
   34.7732   16.0450  -10.1665 H   0  0  0  0  0  0  0  0  0  0  0  0
   34.3192   15.8889   -7.3963 C   0  0  0  0  0  0  0  0  0  0  0  0
   34.5755   15.5300   -5.9587 C   0  0  0  0  0  0  0  0  0  0  0  0
   33.7423   14.4566   -5.3772 C   0  0  0  0  0  0  0  0  0  0  0  0
   32.3656   14.2795   -5.8937 C   0  0  0  0  0  0  0  0  0  0  0  0
   31.9540   15.4118   -6.6658 N   0  0  0  0  0  0  0  0  0  0  0  0
   32.8583   15.9558   -7.6040 C   0  0  0  0  0  0  0  0  0  0  0  0
   32.4306   16.5143   -8.6474 O   0  0  0  0  0  0  0  0  0  0  0  0
   30.6167   15.9591   -6.4669 C   0  0  0  0  0  0  0  0  0  0  0  0
   30.6106   17.4429   -6.5812 C   0  0  0  0  0  0  0  0  0  0  0  0
   31.4614   18.2661   -5.8705 C   0  0  0  0  0  0  0  0  0  0  0  0
   31.4399   19.6348   -6.0065 C   0  0  0  0  0  0  0  0  0  0  0  0
   30.5569   20.2527   -6.8686 C   0  0  0  0  0  0  0  0  0  0  0  0
   29.7098   19.4009   -7.5725 C   0  0  0  0  0  0  0  0  0  0  0  0
   29.7420   18.0699   -7.4299 N   0  0  0  0  0  0  0  0  0  0  0  0
 15 16  1  0  0  0
 16  9  1  0  0  0
  9 10  2  0  0  0
 10 11  1  0  0  0
 11 12  2  0  0  0
 12 13  1  0  0  0
 13 17  1  0  0  0
 17 18  1  0  0  0
 13 14  2  0  0  0
 14 19  1  0  0  0
 19 20  1  0  0  0
 11  1  1  0  0  0
  1  2  2  0  0  0
  1  3  1  0  0  0
  3  4  1  0  0  0
  4  5  1  0  0  0
  5  6  1  0  0  0
  6  7  1  0  0  0
  7  8  1  0  0  0
  6 21  1  0  0  0
 21 22  1  0  0  0
 22 23  2  0  0  0
 22 25  1  0  0  0
 25 26  1  0  0  0
 26 27  1  0  0  0
 27 28  1  0  0  0
 28 29  1  0  0  0
 29 32  1  0  0  0
 32 33  1  0  0  0
 33 34  2  0  0  0
 34 35  1  0  0  0
 35 36  2  0  0  0
 36 37  1  0  0  0
 37 38  2  0  0  0
 29 30  1  0  0  0
 30 31  2  0  0  0
 14  9  1  0  0  0
  8  3  1  0  0  0
 30 25  1  0  0  0
 38 33  1  0  0  0
 21 24  1  0  0  0
M  END
> <minimizedAffinity>
-8.60326

> <CNNscore>
0.3534854650

> <CNNaffinity>
6.2425031662

> <CNN_VS>
2.2066340446

> <CNNaffinity_variance>
0.1153845415

$$$$
[H]c1nc(C([H])([H])N2C(=O)[C@]([H])(C(=O)N([H])C3([H])C([H])([H])C([H])([H])N(C(=O)c4c([H])c(OC([H])([H])[H])c(OC([H])([H])[H])c(OC([H])([H])[H])c4[H])C([H])([H])C3([H])[H])C([H])([H])C([H])([H])C2([H])[H])c([H])c([H])c1[H]


 38 41  0  0  0  0  0  0  0  0999 V2000
   38.0849   14.1203  -13.8472 C   0  0  0  0  0  0  0  0  0  0  0  0
   39.1629   14.8633  -14.0005 O   0  0  0  0  0  0  0  0  0  0  0  0
   37.3290   14.4108  -12.7336 N   0  0  0  0  0  0  0  0  0  0  0  0
   37.8538   15.5049  -11.8587 C   0  0  0  0  0  0  0  0  0  0  0  0
   37.9480   14.8232  -10.4774 C   0  0  0  0  0  0  0  0  0  0  0  0
   36.5493   14.6752   -9.9154 C   0  0  0  0  0  0  0  0  0  0  0  0
   35.5477   14.6808  -11.0606 C   0  0  0  0  0  0  0  0  0  0  0  0
   36.0962   13.8700  -12.2376 C   0  0  0  0  0  0  0  0  0  0  0  0
   36.3208   11.8975  -16.2764 C   0  0  0  0  0  0  0  0  0  0  0  0
   36.6008   12.8042  -15.2904 C   0  0  0  0  0  0  0  0  0  0  0  0
   37.9064   13.1438  -14.8808 C   0  0  0  0  0  0  0  0  0  0  0  0
   38.9129   12.4987  -15.5440 C   0  0  0  0  0  0  0  0  0  0  0  0
   38.6645   11.5679  -16.5575 C   0  0  0  0  0  0  0  0  0  0  0  0
   37.3684   11.2720  -16.9181 C   0  0  0  0  0  0  0  0  0  0  0  0
   34.0321   11.3160  -15.6325 C   0  0  0  0  0  0  0  0  0  0  0  0
   35.0131   11.5925  -16.6441 O   0  0  0  0  0  0  0  0  0  0  0  0
   39.7551   10.9734  -17.1642 O   0  0  0  0  0  0  0  0  0  0  0  0
   40.7162   11.7262  -17.8707 C   0  0  0  0  0  0  0  0  0  0  0  0
   37.1290   10.3354  -17.9376 O   0  0  0  0  0  0  0  0  0  0  0  0
   37.6263   10.7105  -19.2198 C   0  0  0  0  0  0  0  0  0  0  0  0
   36.2277   15.7468   -8.9927 N   0  0  0  0  0  0  0  0  0  0  0  0
   36.0112   15.5401   -7.6125 C   0  0  0  0  0  0  0  0  0  0  0  0
   36.1190   14.3134   -7.2378 O   0  0  0  0  0  0  0  0  0  0  0  0
   36.1529   16.7274   -9.3480 H   0  0  0  0  0  0  0  0  0  0  0  0
   35.6921   16.5143   -6.5827 C   0  0  0  0  0  0  0  0  0  0  0  0
   35.0970   15.8905   -5.3506 C   0  0  0  0  0  0  0  0  0  0  0  0
   33.6348   15.6761   -5.3476 C   0  0  0  0  0  0  0  0  0  0  0  0
   32.7868   16.6126   -6.1205 C   0  0  0  0  0  0  0  0  0  0  0  0
   33.5175   17.7862   -6.4898 N   0  0  0  0  0  0  0  0  0  0  0  0
   34.8261   17.6361   -6.9988 C   0  0  0  0  0  0  0  0  0  0  0  0
   35.2839   18.4659   -7.8268 O   0  0  0  0  0  0  0  0  0  0  0  0
   32.8869   19.0927   -6.3385 C   0  0  0  0  0  0  0  0  0  0  0  0
   33.6870   19.9875   -5.4587 C   0  0  0  0  0  0  0  0  0  0  0  0
   34.1287   21.2383   -5.8423 C   0  0  0  0  0  0  0  0  0  0  0  0
   34.8570   22.0477   -5.0017 C   0  0  0  0  0  0  0  0  0  0  0  0
   35.1824   21.6409   -3.7237 C   0  0  0  0  0  0  0  0  0  0  0  0
   34.7260   20.3762   -3.3618 C   0  0  0  0  0  0  0  0  0  0  0  0
   34.0178   19.5991   -4.1909 N   0  0  0  0  0  0  0  0  0  0  0  0
 15 16  1  0  0  0
 16  9  1  0  0  0
  9 10  2  0  0  0
 10 11  1  0  0  0
 11 12  2  0  0  0
 12 13  1  0  0  0
 13 17  1  0  0  0
 17 18  1  0  0  0
 13 14  2  0  0  0
 14 19  1  0  0  0
 19 20  1  0  0  0
 11  1  1  0  0  0
  1  2  2  0  0  0
  1  3  1  0  0  0
  3  4  1  0  0  0
  4  5  1  0  0  0
  5  6  1  0  0  0
  6  7  1  0  0  0
  7  8  1  0  0  0
  6 21  1  0  0  0
 21 22  1  0  0  0
 22 23  2  0  0  0
 22 25  1  0  0  0
 25 26  1  0  0  0
 26 27  1  0  0  0
 27 28  1  0  0  0
 28 29  1  0  0  0
 29 32  1  0  0  0
 32 33  1  0  0  0
 33 34  2  0  0  0
 34 35  1  0  0  0
 35 36  2  0  0  0
 36 37  1  0  0  0
 37 38  2  0  0  0
 29 30  1  0  0  0
 30 31  2  0  0  0
 14  9  1  0  0  0
  8  3  1  0  0  0
 30 25  1  0  0  0
 38 33  1  0  0  0
 21 24  1  0  0  0
M  END
> <minimizedAffinity>
-7.44990

> <CNNscore>
0.3162421882

> <CNNaffinity>
6.3006701469

> <CNN_VS>
1.9925377369

> <CNNaffinity_variance>
0.3198607564

$$$$
[H]c1nc(C([H])([H])N2C(=O)[C@]([H])(C(=O)N([H])C3([H])C([H])([H])C([H])([H])N(C(=O)c4c([H])c(OC([H])([H])[H])c(OC([H])([H])[H])c(OC([H])([H])[H])c4[H])C([H])([H])C3([H])[H])C([H])([H])C([H])([H])C2([H])[H])c([H])c([H])c1[H]


 38 41  0  0  0  0  0  0  0  0999 V2000
   38.2576   14.2349  -14.0992 C   0  0  0  0  0  0  0  0  0  0  0  0
   39.3013   15.0357  -14.1844 O   0  0  0  0  0  0  0  0  0  0  0  0
   37.4093   14.4914  -13.0455 N   0  0  0  0  0  0  0  0  0  0  0  0
   37.8091   15.6198  -12.1484 C   0  0  0  0  0  0  0  0  0  0  0  0
   37.8418   14.9551  -10.7560 C   0  0  0  0  0  0  0  0  0  0  0  0
   36.4168   14.7337  -10.2929 C   0  0  0  0  0  0  0  0  0  0  0  0
   35.5008   14.6745  -11.5062 C   0  0  0  0  0  0  0  0  0  0  0  0
   36.1758   13.8865  -12.6318 C   0  0  0  0  0  0  0  0  0  0  0  0
   39.3927   12.1247  -16.9650 C   0  0  0  0  0  0  0  0  0  0  0  0
   39.3310   13.0537  -15.9619 C   0  0  0  0  0  0  0  0  0  0  0  0
   38.2075   13.2420  -15.1313 C   0  0  0  0  0  0  0  0  0  0  0  0
   37.1468   12.4188  -15.3882 C   0  0  0  0  0  0  0  0  0  0  0  0
   37.1746   11.4574  -16.4033 C   0  0  0  0  0  0  0  0  0  0  0  0
   38.2986   11.3159  -17.1870 C   0  0  0  0  0  0  0  0  0  0  0  0
   41.8072   11.7686  -17.1505 C   0  0  0  0  0  0  0  0  0  0  0  0
   40.5248   11.9782  -17.7619 O   0  0  0  0  0  0  0  0  0  0  0  0
   36.0477   10.6760  -16.5782 O   0  0  0  0  0  0  0  0  0  0  0  0
   34.7477   11.1946  -16.4037 C   0  0  0  0  0  0  0  0  0  0  0  0
   38.3170   10.3471  -18.2043 O   0  0  0  0  0  0  0  0  0  0  0  0
   37.8472   10.8037  -19.4703 C   0  0  0  0  0  0  0  0  0  0  0  0
   35.9716   15.7928   -9.4079 N   0  0  0  0  0  0  0  0  0  0  0  0
   36.5825   16.0702   -8.1651 C   0  0  0  0  0  0  0  0  0  0  0  0
   37.5713   15.2979   -7.8775 O   0  0  0  0  0  0  0  0  0  0  0  0
   35.1633   16.3934   -9.6893 H   0  0  0  0  0  0  0  0  0  0  0  0
   36.2469   17.0954   -7.1918 C   0  0  0  0  0  0  0  0  0  0  0  0
   37.2250   17.1632   -6.0516 C   0  0  0  0  0  0  0  0  0  0  0  0
   36.9871   16.2557   -4.9097 C   0  0  0  0  0  0  0  0  0  0  0  0
   35.5906   15.8765   -4.5942 C   0  0  0  0  0  0  0  0  0  0  0  0
   34.6592   16.7284   -5.2683 N   0  0  0  0  0  0  0  0  0  0  0  0
   34.8827   17.0323   -6.6291 C   0  0  0  0  0  0  0  0  0  0  0  0
   33.9113   17.2575   -7.3968 O   0  0  0  0  0  0  0  0  0  0  0  0
   33.5093   17.2451   -4.5347 C   0  0  0  0  0  0  0  0  0  0  0  0
   33.6261   18.7094   -4.2959 C   0  0  0  0  0  0  0  0  0  0  0  0
   34.6417   19.2831   -3.5569 C   0  0  0  0  0  0  0  0  0  0  0  0
   34.7295   20.6421   -3.3634 C   0  0  0  0  0  0  0  0  0  0  0  0
   33.7957   21.5020   -3.9050 C   0  0  0  0  0  0  0  0  0  0  0  0
   32.7821   20.8989   -4.6447 C   0  0  0  0  0  0  0  0  0  0  0  0
   32.7093   19.5740   -4.8248 N   0  0  0  0  0  0  0  0  0  0  0  0
 15 16  1  0  0  0
 16  9  1  0  0  0
  9 10  2  0  0  0
 10 11  1  0  0  0
 11 12  2  0  0  0
 12 13  1  0  0  0
 13 17  1  0  0  0
 17 18  1  0  0  0
 13 14  2  0  0  0
 14 19  1  0  0  0
 19 20  1  0  0  0
 11  1  1  0  0  0
  1  2  2  0  0  0
  1  3  1  0  0  0
  3  4  1  0  0  0
  4  5  1  0  0  0
  5  6  1  0  0  0
  6  7  1  0  0  0
  7  8  1  0  0  0
  6 21  1  0  0  0
 21 22  1  0  0  0
 22 23  2  0  0  0
 22 25  1  0  0  0
 25 26  1  0  0  0
 26 27  1  0  0  0
 27 28  1  0  0  0
 28 29  1  0  0  0
 29 32  1  0  0  0
 32 33  1  0  0  0
 33 34  2  0  0  0
 34 35  1  0  0  0
 35 36  2  0  0  0
 36 37  1  0  0  0
 37 38  2  0  0  0
 29 30  1  0  0  0
 30 31  2  0  0  0
 14  9  1  0  0  0
  8  3  1  0  0  0
 30 25  1  0  0  0
 38 33  1  0  0  0
 21 24  1  0  0  0
M  END
> <minimizedAffinity>
-6.92158

> <CNNscore>
0.3088806868

> <CNNaffinity>
6.2788701057

> <CNN_VS>
1.9394216537

> <CNNaffinity_variance>
0.3608472943

$$$$
[H]c1nc(C([H])([H])N2C(=O)[C@]([H])(C(=O)N([H])C3([H])C([H])([H])C([H])([H])N(C(=O)c4c([H])c(OC([H])([H])[H])c(OC([H])([H])[H])c(OC([H])([H])[H])c4[H])C([H])([H])C3([H])[H])C([H])([H])C([H])([H])C2([H])[H])c([H])c([H])c1[H]


 38 41  0  0  0  0  0  0  0  0999 V2000
   40.4412   14.4730  -14.1024 C   0  0  0  0  0  0  0  0  0  0  0  0
   39.3852   15.2587  -14.0298 O   0  0  0  0  0  0  0  0  0  0  0  0
   41.4228   14.7266  -13.1707 N   0  0  0  0  0  0  0  0  0  0  0  0
   41.1542   15.8632  -12.2359 C   0  0  0  0  0  0  0  0  0  0  0  0
   42.3941   16.7624  -12.4250 C   0  0  0  0  0  0  0  0  0  0  0  0
   43.5724   16.1129  -11.7292 C   0  0  0  0  0  0  0  0  0  0  0  0
   43.3200   14.6172  -11.6106 C   0  0  0  0  0  0  0  0  0  0  0  0
   42.6805   14.0921  -12.8986 C   0  0  0  0  0  0  0  0  0  0  0  0
   38.9329   11.9619  -16.4205 C   0  0  0  0  0  0  0  0  0  0  0  0
   39.1204   12.8928  -15.4350 C   0  0  0  0  0  0  0  0  0  0  0  0
   40.3619   13.4963  -15.1480 C   0  0  0  0  0  0  0  0  0  0  0  0
   41.4042   13.0899  -15.9336 C   0  0  0  0  0  0  0  0  0  0  0  0
   41.2496   12.1426  -16.9506 C   0  0  0  0  0  0  0  0  0  0  0  0
   40.0134   11.5831  -17.1882 C   0  0  0  0  0  0  0  0  0  0  0  0
   36.4925   12.1506  -16.4204 C   0  0  0  0  0  0  0  0  0  0  0  0
   37.6867   11.3912  -16.6643 O   0  0  0  0  0  0  0  0  0  0  0  0
   42.3692   11.8028  -17.6867 O   0  0  0  0  0  0  0  0  0  0  0  0
   43.6713   11.9141  -17.1560 C   0  0  0  0  0  0  0  0  0  0  0  0
   39.8681   10.6322  -18.2122 O   0  0  0  0  0  0  0  0  0  0  0  0
   39.5397   11.1763  -19.4881 C   0  0  0  0  0  0  0  0  0  0  0  0
   43.7851   16.6689  -10.4068 N   0  0  0  0  0  0  0  0  0  0  0  0
   45.0675   16.8974   -9.8610 C   0  0  0  0  0  0  0  0  0  0  0  0
   46.0396   16.5653  -10.6367 O   0  0  0  0  0  0  0  0  0  0  0  0
   42.9606   16.9234   -9.8163 H   0  0  0  0  0  0  0  0  0  0  0  0
   45.4226   17.4500   -8.5650 C   0  0  0  0  0  0  0  0  0  0  0  0
   46.9071   17.4769   -8.3265 C   0  0  0  0  0  0  0  0  0  0  0  0
   47.5188   16.2518   -7.7705 C   0  0  0  0  0  0  0  0  0  0  0  0
   46.6966   15.3980   -6.8826 C   0  0  0  0  0  0  0  0  0  0  0  0
   45.5214   16.0879   -6.4459 N   0  0  0  0  0  0  0  0  0  0  0  0
   44.7764   16.8223   -7.3944 C   0  0  0  0  0  0  0  0  0  0  0  0
   43.5327   16.9570   -7.2579 O   0  0  0  0  0  0  0  0  0  0  0  0
   45.1272   16.0029   -5.0442 C   0  0  0  0  0  0  0  0  0  0  0  0
   44.7452   14.6149   -4.6669 C   0  0  0  0  0  0  0  0  0  0  0  0
   43.6847   13.9351   -5.2327 C   0  0  0  0  0  0  0  0  0  0  0  0
   43.3632   12.6474   -4.8712 C   0  0  0  0  0  0  0  0  0  0  0  0
   44.0942   11.9704   -3.9163 C   0  0  0  0  0  0  0  0  0  0  0  0
   45.1572   12.6777   -3.3610 C   0  0  0  0  0  0  0  0  0  0  0  0
   45.4585   13.9312   -3.7227 N   0  0  0  0  0  0  0  0  0  0  0  0
 15 16  1  0  0  0
 16  9  1  0  0  0
  9 10  2  0  0  0
 10 11  1  0  0  0
 11 12  2  0  0  0
 12 13  1  0  0  0
 13 17  1  0  0  0
 17 18  1  0  0  0
 13 14  2  0  0  0
 14 19  1  0  0  0
 19 20  1  0  0  0
 11  1  1  0  0  0
  1  2  2  0  0  0
  1  3  1  0  0  0
  3  4  1  0  0  0
  4  5  1  0  0  0
  5  6  1  0  0  0
  6  7  1  0  0  0
  7  8  1  0  0  0
  6 21  1  0  0  0
 21 22  1  0  0  0
 22 23  2  0  0  0
 22 25  1  0  0  0
 25 26  1  0  0  0
 26 27  1  0  0  0
 27 28  1  0  0  0
 28 29  1  0  0  0
 29 32  1  0  0  0
 32 33  1  0  0  0
 33 34  2  0  0  0
 34 35  1  0  0  0
 35 36  2  0  0  0
 36 37  1  0  0  0
 37 38  2  0  0  0
 29 30  1  0  0  0
 30 31  2  0  0  0
 14  9  1  0  0  0
  8  3  1  0  0  0
 30 25  1  0  0  0
 38 33  1  0  0  0
 21 24  1  0  0  0
M  END
> <minimizedAffinity>
-6.19978

> <CNNscore>
0.3057562113

> <CNNaffinity>
5.9292430878

> <CNN_VS>
1.8129029274

> <CNNaffinity_variance>
0.4343975484

$$$$
[H]c1nc(C([H])([H])N2C(=O)[C@]([H])(C(=O)N([H])C3([H])C([H])([H])C([H])([H])N(C(=O)c4c([H])c(OC([H])([H])[H])c(OC([H])([H])[H])c(OC([H])([H])[H])c4[H])C([H])([H])C3([H])[H])C([H])([H])C([H])([H])C2([H])[H])c([H])c([H])c1[H]


 38 41  0  0  0  0  0  0  0  0999 V2000
   39.0800   14.7795  -13.3749 C   0  0  0  0  0  0  0  0  0  0  0  0
   39.8705   15.8326  -13.3136 O   0  0  0  0  0  0  0  0  0  0  0  0
   38.1050   14.7237  -12.4043 N   0  0  0  0  0  0  0  0  0  0  0  0
   38.1036   15.8491  -11.4187 C   0  0  0  0  0  0  0  0  0  0  0  0
   38.1935   15.1171  -10.0630 C   0  0  0  0  0  0  0  0  0  0  0  0
   36.8472   14.4920   -9.7614 C   0  0  0  0  0  0  0  0  0  0  0  0
   36.0914   14.2806  -11.0649 C   0  0  0  0  0  0  0  0  0  0  0  0
   37.0507   13.7846  -12.1499 C   0  0  0  0  0  0  0  0  0  0  0  0
   38.5663   12.1831  -16.0110 C   0  0  0  0  0  0  0  0  0  0  0  0
   38.3787   13.0580  -14.9755 C   0  0  0  0  0  0  0  0  0  0  0  0
   39.3917   13.8871  -14.4520 C   0  0  0  0  0  0  0  0  0  0  0  0
   40.6130   13.7683  -15.0546 C   0  0  0  0  0  0  0  0  0  0  0  0
   40.8411   12.8866  -16.1158 C   0  0  0  0  0  0  0  0  0  0  0  0
   39.8153   12.0979  -16.5882 C   0  0  0  0  0  0  0  0  0  0  0  0
   36.1686   11.7468  -16.2390 C   0  0  0  0  0  0  0  0  0  0  0  0
   37.5343   11.3817  -16.4917 O   0  0  0  0  0  0  0  0  0  0  0  0
   42.1138   12.8453  -16.6537 O   0  0  0  0  0  0  0  0  0  0  0  0
   43.2582   12.6764  -15.8465 C   0  0  0  0  0  0  0  0  0  0  0  0
   40.0542   11.2152  -17.6548 O   0  0  0  0  0  0  0  0  0  0  0  0
   39.8510   11.7763  -18.9494 C   0  0  0  0  0  0  0  0  0  0  0  0
   36.0556   15.3273   -8.8789 N   0  0  0  0  0  0  0  0  0  0  0  0
   35.6425   14.9186   -7.5917 C   0  0  0  0  0  0  0  0  0  0  0  0
   36.0247   13.7338   -7.2646 O   0  0  0  0  0  0  0  0  0  0  0  0
   35.7717   16.2836   -9.1923 H   0  0  0  0  0  0  0  0  0  0  0  0
   34.8605   15.6496   -6.6092 C   0  0  0  0  0  0  0  0  0  0  0  0
   33.9499   14.7615   -5.8070 C   0  0  0  0  0  0  0  0  0  0  0  0
   32.6204   14.4699   -6.3828 C   0  0  0  0  0  0  0  0  0  0  0  0
   31.9919   15.4927   -7.2502 C   0  0  0  0  0  0  0  0  0  0  0  0
   32.6538   16.7550   -7.1232 N   0  0  0  0  0  0  0  0  0  0  0  0
   34.0657   16.7819   -7.1268 C   0  0  0  0  0  0  0  0  0  0  0  0
   34.6801   17.7837   -7.5768 O   0  0  0  0  0  0  0  0  0  0  0  0
   31.8531   17.9684   -7.0045 C   0  0  0  0  0  0  0  0  0  0  0  0
   32.1814   18.7209   -5.7633 C   0  0  0  0  0  0  0  0  0  0  0  0
   31.9871   18.2175   -4.4922 C   0  0  0  0  0  0  0  0  0  0  0  0
   32.3116   18.9331   -3.3631 C   0  0  0  0  0  0  0  0  0  0  0  0
   32.8514   20.2002   -3.4517 C   0  0  0  0  0  0  0  0  0  0  0  0
   33.0367   20.6848   -4.7438 C   0  0  0  0  0  0  0  0  0  0  0  0
   32.7160   19.9767   -5.8340 N   0  0  0  0  0  0  0  0  0  0  0  0
 15 16  1  0  0  0
 16  9  1  0  0  0
  9 10  2  0  0  0
 10 11  1  0  0  0
 11 12  2  0  0  0
 12 13  1  0  0  0
 13 17  1  0  0  0
 17 18  1  0  0  0
 13 14  2  0  0  0
 14 19  1  0  0  0
 19 20  1  0  0  0
 11  1  1  0  0  0
  1  2  2  0  0  0
  1  3  1  0  0  0
  3  4  1  0  0  0
  4  5  1  0  0  0
  5  6  1  0  0  0
  6  7  1  0  0  0
  7  8  1  0  0  0
  6 21  1  0  0  0
 21 22  1  0  0  0
 22 23  2  0  0  0
 22 25  1  0  0  0
 25 26  1  0  0  0
 26 27  1  0  0  0
 27 28  1  0  0  0
 28 29  1  0  0  0
 29 32  1  0  0  0
 32 33  1  0  0  0
 33 34  2  0  0  0
 34 35  1  0  0  0
 35 36  2  0  0  0
 36 37  1  0  0  0
 37 38  2  0  0  0
 29 30  1  0  0  0
 30 31  2  0  0  0
 14  9  1  0  0  0
  8  3  1  0  0  0
 30 25  1  0  0  0
 38 33  1  0  0  0
 21 24  1  0  0  0
M  END
> <minimizedAffinity>
-7.89207

> <CNNscore>
0.3053210974

> <CNNaffinity>
6.1090784073

> <CNN_VS>
1.8652305603

> <CNNaffinity_variance>
0.1695463210

$$$$
[H]c1nc(C([H])([H])N2C(=O)[C@]([H])(C(=O)N([H])C3([H])C([H])([H])C([H])([H])N(C(=O)c4c([H])c(OC([H])([H])[H])c(OC([H])([H])[H])c(OC([H])([H])[H])c4[H])C([H])([H])C3([H])[H])C([H])([H])C([H])([H])C2([H])[H])c([H])c([H])c1[H]


 38 41  0  0  0  0  0  0  0  0999 V2000
   37.8894   14.7632  -12.7331 C   0  0  0  0  0  0  0  0  0  0  0  0
   39.1007   15.2812  -12.7795 O   0  0  0  0  0  0  0  0  0  0  0  0
   37.0757   15.2686  -11.7440 N   0  0  0  0  0  0  0  0  0  0  0  0
   37.6925   16.3077  -10.8622 C   0  0  0  0  0  0  0  0  0  0  0  0
   37.4877   15.7228   -9.4489 C   0  0  0  0  0  0  0  0  0  0  0  0
   36.0295   15.8770   -9.0690 C   0  0  0  0  0  0  0  0  0  0  0  0
   35.1923   15.9841  -10.3348 C   0  0  0  0  0  0  0  0  0  0  0  0
   35.7114   15.0024  -11.3886 C   0  0  0  0  0  0  0  0  0  0  0  0
   38.5707   12.4697  -15.6018 C   0  0  0  0  0  0  0  0  0  0  0  0
   38.6882   13.4191  -14.6232 C   0  0  0  0  0  0  0  0  0  0  0  0
   37.6514   13.7639  -13.7323 C   0  0  0  0  0  0  0  0  0  0  0  0
   36.4826   13.0755  -13.9020 C   0  0  0  0  0  0  0  0  0  0  0  0
   36.3268   12.0979  -14.8897 C   0  0  0  0  0  0  0  0  0  0  0  0
   37.3729   11.8005  -15.7352 C   0  0  0  0  0  0  0  0  0  0  0  0
   40.8004   12.9888  -16.4681 C   0  0  0  0  0  0  0  0  0  0  0  0
   39.6235   12.1660  -16.4608 O   0  0  0  0  0  0  0  0  0  0  0  0
   35.1029   11.4610  -14.9749 O   0  0  0  0  0  0  0  0  0  0  0  0
   33.9378   12.1394  -15.3895 C   0  0  0  0  0  0  0  0  0  0  0  0
   37.2067   10.8167  -16.7244 O   0  0  0  0  0  0  0  0  0  0  0  0
   36.5146   11.2556  -17.8906 C   0  0  0  0  0  0  0  0  0  0  0  0
   35.8121   17.0538   -8.2499 N   0  0  0  0  0  0  0  0  0  0  0  0
   35.7246   17.0102   -6.8410 C   0  0  0  0  0  0  0  0  0  0  0  0
   35.8500   15.8315   -6.3393 O   0  0  0  0  0  0  0  0  0  0  0  0
   35.7178   17.9894   -8.7073 H   0  0  0  0  0  0  0  0  0  0  0  0
   35.5183   18.1023   -5.9051 C   0  0  0  0  0  0  0  0  0  0  0  0
   35.1327   17.6306   -4.5303 C   0  0  0  0  0  0  0  0  0  0  0  0
   33.6960   17.3870   -4.2839 C   0  0  0  0  0  0  0  0  0  0  0  0
   32.7084   18.1971   -5.0335 C   0  0  0  0  0  0  0  0  0  0  0  0
   33.3304   19.3286   -5.6505 N   0  0  0  0  0  0  0  0  0  0  0  0
   34.5569   19.1420   -6.3251 C   0  0  0  0  0  0  0  0  0  0  0  0
   34.8567   19.8674   -7.3088 O   0  0  0  0  0  0  0  0  0  0  0  0
   32.6761   20.6298   -5.5718 C   0  0  0  0  0  0  0  0  0  0  0  0
   33.5987   21.6751   -5.0514 C   0  0  0  0  0  0  0  0  0  0  0  0
   34.2102   21.6059   -3.8152 C   0  0  0  0  0  0  0  0  0  0  0  0
   35.0681   22.5830   -3.3664 C   0  0  0  0  0  0  0  0  0  0  0  0
   35.3586   23.6883   -4.1401 C   0  0  0  0  0  0  0  0  0  0  0  0
   34.7292   23.7345   -5.3812 C   0  0  0  0  0  0  0  0  0  0  0  0
   33.8962   22.7757   -5.8050 N   0  0  0  0  0  0  0  0  0  0  0  0
 15 16  1  0  0  0
 16  9  1  0  0  0
  9 10  2  0  0  0
 10 11  1  0  0  0
 11 12  2  0  0  0
 12 13  1  0  0  0
 13 17  1  0  0  0
 17 18  1  0  0  0
 13 14  2  0  0  0
 14 19  1  0  0  0
 19 20  1  0  0  0
 11  1  1  0  0  0
  1  2  2  0  0  0
  1  3  1  0  0  0
  3  4  1  0  0  0
  4  5  1  0  0  0
  5  6  1  0  0  0
  6  7  1  0  0  0
  7  8  1  0  0  0
  6 21  1  0  0  0
 21 22  1  0  0  0
 22 23  2  0  0  0
 22 25  1  0  0  0
 25 26  1  0  0  0
 26 27  1  0  0  0
 27 28  1  0  0  0
 28 29  1  0  0  0
 29 32  1  0  0  0
 32 33  1  0  0  0
 33 34  2  0  0  0
 34 35  1  0  0  0
 35 36  2  0  0  0
 36 37  1  0  0  0
 37 38  2  0  0  0
 29 30  1  0  0  0
 30 31  2  0  0  0
 14  9  1  0  0  0
  8  3  1  0  0  0
 30 25  1  0  0  0
 38 33  1  0  0  0
 21 24  1  0  0  0
M  END
> <minimizedAffinity>
-6.68726

> <CNNscore>
0.2984647751

> <CNNaffinity>
6.1213765144

> <CNN_VS>
1.8270152807

> <CNNaffinity_variance>
0.2548626363

$$$$
[H]c1nc(C([H])([H])N2C(=O)[C@]([H])(C(=O)N([H])C3([H])C([H])([H])C([H])([H])N(C(=O)c4c([H])c(OC([H])([H])[H])c(OC([H])([H])[H])c(OC([H])([H])[H])c4[H])C([H])([H])C3([H])[H])C([H])([H])C([H])([H])C2([H])[H])c([H])c([H])c1[H]


 38 41  0  0  0  0  0  0  0  0999 V2000
   38.9094   14.7342  -13.3186 C   0  0  0  0  0  0  0  0  0  0  0  0
   39.8010   15.7000  -13.2193 O   0  0  0  0  0  0  0  0  0  0  0  0
   37.9248   14.7472  -12.3561 N   0  0  0  0  0  0  0  0  0  0  0  0
   38.0273   15.8362  -11.3356 C   0  0  0  0  0  0  0  0  0  0  0  0
   38.0307   15.0575  -10.0031 C   0  0  0  0  0  0  0  0  0  0  0  0
   36.6257   14.5622   -9.7296 C   0  0  0  0  0  0  0  0  0  0  0  0
   35.8646   14.4681  -11.0436 C   0  0  0  0  0  0  0  0  0  0  0  0
   36.7792   13.9116  -12.1378 C   0  0  0  0  0  0  0  0  0  0  0  0
   40.7904   12.7895  -15.8942 C   0  0  0  0  0  0  0  0  0  0  0  0
   40.4602   13.6255  -14.8623 C   0  0  0  0  0  0  0  0  0  0  0  0
   39.1398   13.8485  -14.4213 C   0  0  0  0  0  0  0  0  0  0  0  0
   38.1732   13.1610  -15.1009 C   0  0  0  0  0  0  0  0  0  0  0  0
   38.4734   12.2972  -16.1589 C   0  0  0  0  0  0  0  0  0  0  0  0
   39.7818   12.1164  -16.5502 C   0  0  0  0  0  0  0  0  0  0  0  0
   43.1590   13.3683  -15.6804 C   0  0  0  0  0  0  0  0  0  0  0  0
   42.1104   12.6041  -16.2959 O   0  0  0  0  0  0  0  0  0  0  0  0
   37.4202   11.6503  -16.7779 O   0  0  0  0  0  0  0  0  0  0  0  0
   36.1364   11.5928  -16.1963 C   0  0  0  0  0  0  0  0  0  0  0  0
   40.0734   11.2464  -17.6141 O   0  0  0  0  0  0  0  0  0  0  0  0
   40.0846   11.8611  -18.9002 C   0  0  0  0  0  0  0  0  0  0  0  0
   35.9139   15.4454   -8.8261 N   0  0  0  0  0  0  0  0  0  0  0  0
   35.5174   15.0648   -7.5251 C   0  0  0  0  0  0  0  0  0  0  0  0
   35.8374   13.8597   -7.2056 O   0  0  0  0  0  0  0  0  0  0  0  0
   35.6786   16.4165   -9.1341 H   0  0  0  0  0  0  0  0  0  0  0  0
   34.8119   15.8436   -6.5215 C   0  0  0  0  0  0  0  0  0  0  0  0
   33.9889   14.9941   -5.5930 C   0  0  0  0  0  0  0  0  0  0  0  0
   32.6192   14.6546   -6.0323 C   0  0  0  0  0  0  0  0  0  0  0  0
   31.9014   15.6178   -6.8987 C   0  0  0  0  0  0  0  0  0  0  0  0
   32.5515   16.8926   -6.9029 N   0  0  0  0  0  0  0  0  0  0  0  0
   33.9571   16.9348   -7.0317 C   0  0  0  0  0  0  0  0  0  0  0  0
   34.5140   17.9151   -7.5907 O   0  0  0  0  0  0  0  0  0  0  0  0
   31.7448   18.1020   -6.7845 C   0  0  0  0  0  0  0  0  0  0  0  0
   32.2159   18.9665   -5.6686 C   0  0  0  0  0  0  0  0  0  0  0  0
   32.5782   20.2893   -5.8291 C   0  0  0  0  0  0  0  0  0  0  0  0
   32.9989   21.0669   -4.7753 C   0  0  0  0  0  0  0  0  0  0  0  0
   33.0788   20.5536   -3.4967 C   0  0  0  0  0  0  0  0  0  0  0  0
   32.7089   19.2181   -3.3618 C   0  0  0  0  0  0  0  0  0  0  0  0
   32.3012   18.4731   -4.3969 N   0  0  0  0  0  0  0  0  0  0  0  0
 15 16  1  0  0  0
 16  9  1  0  0  0
  9 10  2  0  0  0
 10 11  1  0  0  0
 11 12  2  0  0  0
 12 13  1  0  0  0
 13 17  1  0  0  0
 17 18  1  0  0  0
 13 14  2  0  0  0
 14 19  1  0  0  0
 19 20  1  0  0  0
 11  1  1  0  0  0
  1  2  2  0  0  0
  1  3  1  0  0  0
  3  4  1  0  0  0
  4  5  1  0  0  0
  5  6  1  0  0  0
  6  7  1  0  0  0
  7  8  1  0  0  0
  6 21  1  0  0  0
 21 22  1  0  0  0
 22 23  2  0  0  0
 22 25  1  0  0  0
 25 26  1  0  0  0
 26 27  1  0  0  0
 27 28  1  0  0  0
 28 29  1  0  0  0
 29 32  1  0  0  0
 32 33  1  0  0  0
 33 34  2  0  0  0
 34 35  1  0  0  0
 35 36  2  0  0  0
 36 37  1  0  0  0
 37 38  2  0  0  0
 29 30  1  0  0  0
 30 31  2  0  0  0
 14  9  1  0  0  0
  8  3  1  0  0  0
 30 25  1  0  0  0
 38 33  1  0  0  0
 21 24  1  0  0  0
M  END
> <minimizedAffinity>
-7.92274

> <CNNscore>
0.2684892118

> <CNNaffinity>
6.0244650841

> <CNN_VS>
1.6175038815

> <CNNaffinity_variance>
0.2047762126

$$$$
[H]c1nc(C([H])([H])N2C(=O)[C@]([H])(C(=O)N([H])C3([H])C([H])([H])C([H])([H])N(C(=O)c4c([H])c(OC([H])([H])[H])c(OC([H])([H])[H])c(OC([H])([H])[H])c4[H])C([H])([H])C3([H])[H])C([H])([H])C([H])([H])C2([H])[H])c([H])c([H])c1[H]


 38 41  0  0  0  0  0  0  0  0999 V2000
   37.9981   14.2938  -13.5592 C   0  0  0  0  0  0  0  0  0  0  0  0
   39.1376   14.9265  -13.7564 O   0  0  0  0  0  0  0  0  0  0  0  0
   37.3085   14.6714  -12.4289 N   0  0  0  0  0  0  0  0  0  0  0  0
   37.9631   15.7214  -11.5881 C   0  0  0  0  0  0  0  0  0  0  0  0
   38.0336   15.0528  -10.1989 C   0  0  0  0  0  0  0  0  0  0  0  0
   36.6451   15.0489   -9.5938 C   0  0  0  0  0  0  0  0  0  0  0  0
   35.6139   15.1359  -10.7090 C   0  0  0  0  0  0  0  0  0  0  0  0
   36.0451   14.2597  -11.8880 C   0  0  0  0  0  0  0  0  0  0  0  0
   38.5681   11.7947  -16.2765 C   0  0  0  0  0  0  0  0  0  0  0  0
   38.7475   12.7385  -15.3018 C   0  0  0  0  0  0  0  0  0  0  0  0
   37.6944   13.3251  -14.5707 C   0  0  0  0  0  0  0  0  0  0  0  0
   36.4416   12.8856  -14.8964 C   0  0  0  0  0  0  0  0  0  0  0  0
   36.2205   11.9217  -15.8852 C   0  0  0  0  0  0  0  0  0  0  0  0
   37.2863   11.3815  -16.5706 C   0  0  0  0  0  0  0  0  0  0  0  0
   40.6871   12.0999  -17.4631 C   0  0  0  0  0  0  0  0  0  0  0  0
   39.6408   11.2463  -16.9743 O   0  0  0  0  0  0  0  0  0  0  0  0
   34.9136   11.5474  -16.1356 O   0  0  0  0  0  0  0  0  0  0  0  0
   33.8771   11.7988  -15.2126 C   0  0  0  0  0  0  0  0  0  0  0  0
   37.0540   10.4137  -17.5622 O   0  0  0  0  0  0  0  0  0  0  0  0
   37.4440   10.8024  -18.8770 C   0  0  0  0  0  0  0  0  0  0  0  0
   36.4571   16.1592   -8.6800 N   0  0  0  0  0  0  0  0  0  0  0  0
   36.6866   16.0641   -7.2897 C   0  0  0  0  0  0  0  0  0  0  0  0
   37.0749   14.9018   -6.8958 O   0  0  0  0  0  0  0  0  0  0  0  0
   36.1411   17.0841   -9.0515 H   0  0  0  0  0  0  0  0  0  0  0  0
   36.5463   17.0889   -6.2693 C   0  0  0  0  0  0  0  0  0  0  0  0
   36.5995   16.5354   -4.8721 C   0  0  0  0  0  0  0  0  0  0  0  0
   35.3298   16.0438   -4.2973 C   0  0  0  0  0  0  0  0  0  0  0  0
   34.0676   16.6837   -4.7343 C   0  0  0  0  0  0  0  0  0  0  0  0
   34.3224   17.9153   -5.4169 N   0  0  0  0  0  0  0  0  0  0  0  0
   35.3543   17.9540   -6.3801 C   0  0  0  0  0  0  0  0  0  0  0  0
   35.2759   18.7361   -7.3629 O   0  0  0  0  0  0  0  0  0  0  0  0
   33.5058   19.0828   -5.1046 C   0  0  0  0  0  0  0  0  0  0  0  0
   32.3220   19.1779   -6.0016 C   0  0  0  0  0  0  0  0  0  0  0  0
   31.7703   20.3753   -6.4121 C   0  0  0  0  0  0  0  0  0  0  0  0
   30.6822   20.4310   -7.2519 C   0  0  0  0  0  0  0  0  0  0  0  0
   30.0869   19.2798   -7.7262 C   0  0  0  0  0  0  0  0  0  0  0  0
   30.6614   18.0863   -7.2972 C   0  0  0  0  0  0  0  0  0  0  0  0
   31.7209   18.0473   -6.4794 N   0  0  0  0  0  0  0  0  0  0  0  0
 15 16  1  0  0  0
 16  9  1  0  0  0
  9 10  2  0  0  0
 10 11  1  0  0  0
 11 12  2  0  0  0
 12 13  1  0  0  0
 13 17  1  0  0  0
 17 18  1  0  0  0
 13 14  2  0  0  0
 14 19  1  0  0  0
 19 20  1  0  0  0
 11  1  1  0  0  0
  1  2  2  0  0  0
  1  3  1  0  0  0
  3  4  1  0  0  0
  4  5  1  0  0  0
  5  6  1  0  0  0
  6  7  1  0  0  0
  7  8  1  0  0  0
  6 21  1  0  0  0
 21 22  1  0  0  0
 22 23  2  0  0  0
 22 25  1  0  0  0
 25 26  1  0  0  0
 26 27  1  0  0  0
 27 28  1  0  0  0
 28 29  1  0  0  0
 29 32  1  0  0  0
 32 33  1  0  0  0
 33 34  2  0  0  0
 34 35  1  0  0  0
 35 36  2  0  0  0
 36 37  1  0  0  0
 37 38  2  0  0  0
 29 30  1  0  0  0
 30 31  2  0  0  0
 14  9  1  0  0  0
  8  3  1  0  0  0
 30 25  1  0  0  0
 38 33  1  0  0  0
 21 24  1  0  0  0
M  END
> <minimizedAffinity>
-7.78950

> <CNNscore>
0.2662362158

> <CNNaffinity>
6.2285170555

> <CNN_VS>
1.6582567692

> <CNNaffinity_variance>
0.2187549621

$$$$
[H]c1nc(C([H])([H])N2C(=O)[C@]([H])(C(=O)N([H])C3([H])C([H])([H])C([H])([H])N(C(=O)c4c([H])c(OC([H])([H])[H])c(OC([H])([H])[H])c(OC([H])([H])[H])c4[H])C([H])([H])C3([H])[H])C([H])([H])C([H])([H])C2([H])[H])c([H])c([H])c1[H]


 38 41  0  0  0  0  0  0  0  0999 V2000
   38.3377   14.4129  -13.5740 C   0  0  0  0  0  0  0  0  0  0  0  0
   39.3125   15.2695  -13.8059 O   0  0  0  0  0  0  0  0  0  0  0  0
   37.6222   14.6408  -12.4200 N   0  0  0  0  0  0  0  0  0  0  0  0
   38.0702   15.8067  -11.5966 C   0  0  0  0  0  0  0  0  0  0  0  0
   38.3249   15.1712  -10.2135 C   0  0  0  0  0  0  0  0  0  0  0  0
   36.9888   14.8784   -9.5629 C   0  0  0  0  0  0  0  0  0  0  0  0
   35.9259   14.7449  -10.6432 C   0  0  0  0  0  0  0  0  0  0  0  0
   36.4914   13.9753  -11.8396 C   0  0  0  0  0  0  0  0  0  0  0  0
   36.7082   11.8804  -15.7843 C   0  0  0  0  0  0  0  0  0  0  0  0
   36.9417   12.8408  -14.8377 C   0  0  0  0  0  0  0  0  0  0  0  0
   38.2100   13.3995  -14.5792 C   0  0  0  0  0  0  0  0  0  0  0  0
   39.2294   12.9162  -15.3513 C   0  0  0  0  0  0  0  0  0  0  0  0
   39.0279   11.9367  -16.3288 C   0  0  0  0  0  0  0  0  0  0  0  0
   37.7670   11.4235  -16.5397 C   0  0  0  0  0  0  0  0  0  0  0  0
   34.2939   11.9786  -15.3935 C   0  0  0  0  0  0  0  0  0  0  0  0
   35.4367   11.3562  -16.0008 O   0  0  0  0  0  0  0  0  0  0  0  0
   40.1276   11.5183  -17.0544 O   0  0  0  0  0  0  0  0  0  0  0  0
   40.5747   12.2143  -18.1968 C   0  0  0  0  0  0  0  0  0  0  0  0
   37.5746   10.4398  -17.5241 O   0  0  0  0  0  0  0  0  0  0  0  0
   37.2854   10.9469  -18.8245 C   0  0  0  0  0  0  0  0  0  0  0  0
   36.6031   15.9272   -8.6386 N   0  0  0  0  0  0  0  0  0  0  0  0
   36.8346   15.8555   -7.2472 C   0  0  0  0  0  0  0  0  0  0  0  0
   37.4162   14.7736   -6.8626 O   0  0  0  0  0  0  0  0  0  0  0  0
   36.1338   16.7878   -9.0027 H   0  0  0  0  0  0  0  0  0  0  0  0
   36.5099   16.8270   -6.2167 C   0  0  0  0  0  0  0  0  0  0  0  0
   36.9444   16.3925   -4.8443 C   0  0  0  0  0  0  0  0  0  0  0  0
   36.0071   15.5403   -4.0831 C   0  0  0  0  0  0  0  0  0  0  0  0
   34.5550   15.7072   -4.3224 C   0  0  0  0  0  0  0  0  0  0  0  0
   34.2849   16.9183   -5.0351 N   0  0  0  0  0  0  0  0  0  0  0  0
   35.0953   17.2457   -6.1442 C   0  0  0  0  0  0  0  0  0  0  0  0
   34.6209   17.9084   -7.1031 O   0  0  0  0  0  0  0  0  0  0  0  0
   33.1805   17.7666   -4.6014 C   0  0  0  0  0  0  0  0  0  0  0  0
   31.8841   17.3112   -5.1729 C   0  0  0  0  0  0  0  0  0  0  0  0
   31.7389   16.1481   -5.9029 C   0  0  0  0  0  0  0  0  0  0  0  0
   30.5241   15.7472   -6.4087 C   0  0  0  0  0  0  0  0  0  0  0  0
   29.3840   16.4984   -6.2072 C   0  0  0  0  0  0  0  0  0  0  0  0
   29.5573   17.6662   -5.4691 C   0  0  0  0  0  0  0  0  0  0  0  0
   30.7462   18.0439   -4.9827 N   0  0  0  0  0  0  0  0  0  0  0  0
 15 16  1  0  0  0
 16  9  1  0  0  0
  9 10  2  0  0  0
 10 11  1  0  0  0
 11 12  2  0  0  0
 12 13  1  0  0  0
 13 17  1  0  0  0
 17 18  1  0  0  0
 13 14  2  0  0  0
 14 19  1  0  0  0
 19 20  1  0  0  0
 11  1  1  0  0  0
  1  2  2  0  0  0
  1  3  1  0  0  0
  3  4  1  0  0  0
  4  5  1  0  0  0
  5  6  1  0  0  0
  6  7  1  0  0  0
  7  8  1  0  0  0
  6 21  1  0  0  0
 21 22  1  0  0  0
 22 23  2  0  0  0
 22 25  1  0  0  0
 25 26  1  0  0  0
 26 27  1  0  0  0
 27 28  1  0  0  0
 28 29  1  0  0  0
 29 32  1  0  0  0
 32 33  1  0  0  0
 33 34  2  0  0  0
 34 35  1  0  0  0
 35 36  2  0  0  0
 36 37  1  0  0  0
 37 38  2  0  0  0
 29 30  1  0  0  0
 30 31  2  0  0  0
 14  9  1  0  0  0
  8  3  1  0  0  0
 30 25  1  0  0  0
 38 33  1  0  0  0
 21 24  1  0  0  0
M  END
> <minimizedAffinity>
-7.76998

> <CNNscore>
0.2530632913

> <CNNaffinity>
6.0121994019

> <CNN_VS>
1.5214669704

> <CNNaffinity_variance>
0.2069768012

$$$$
[H]c1nc2c(c([H])c1C(=O)N([H])[C@]([H])(C(=O)N([H])[C@]1([H])C([H])([H])C([H])([H])[C@@]([H])(N3C([H])([H])C([H])([H])OC([H])([H])C3([H])[H])C([H])([H])C1([H])[H])C([H])([H])[H])c([H])c([H])n2[H]


 32 35  0  0  0  0  0  0  0  0999 V2000
   33.6916   11.0363  -15.3528 C   0  0  0  0  0  0  0  0  0  0  0  0
   34.2434   12.4130  -15.1614 C   0  0  0  0  0  0  0  0  0  0  0  0
   35.6630   12.4396  -15.3673 N   0  0  0  0  0  0  0  0  0  0  0  0
   36.3376   11.8824  -16.4578 C   0  0  0  0  0  0  0  0  0  0  0  0
   35.6292   11.2998  -17.3426 O   0  0  0  0  0  0  0  0  0  0  0  0
   36.2452   12.9253  -14.6176 H   0  0  0  0  0  0  0  0  0  0  0  0
   37.7710   11.9240  -16.6417 C   0  0  0  0  0  0  0  0  0  0  0  0
   38.3421   11.2197  -17.6936 C   0  0  0  0  0  0  0  0  0  0  0  0
   39.6791   11.2441  -17.8899 N   0  0  0  0  0  0  0  0  0  0  0  0
   40.4759   11.9487  -17.0704 C   0  0  0  0  0  0  0  0  0  0  0  0
   41.8095   12.0972  -17.0940 N   0  0  0  0  0  0  0  0  0  0  0  0
   42.1656   12.9035  -16.0621 C   0  0  0  0  0  0  0  0  0  0  0  0
   41.0239   13.2574  -15.3894 C   0  0  0  0  0  0  0  0  0  0  0  0
   39.9601   12.6559  -16.0241 C   0  0  0  0  0  0  0  0  0  0  0  0
   38.5899   12.6482  -15.8008 C   0  0  0  0  0  0  0  0  0  0  0  0
   42.4338   11.6593  -17.7901 H   0  0  0  0  0  0  0  0  0  0  0  0
   33.9545   12.9425  -13.7910 C   0  0  0  0  0  0  0  0  0  0  0  0
   34.7430   12.6146  -12.8717 O   0  0  0  0  0  0  0  0  0  0  0  0
   32.8571   13.7714  -13.4901 N   0  0  0  0  0  0  0  0  0  0  0  0
   32.1820   14.0534  -14.2335 H   0  0  0  0  0  0  0  0  0  0  0  0
   32.6238   14.2544  -12.1549 C   0  0  0  0  0  0  0  0  0  0  0  0
   33.3736   15.5165  -11.8259 C   0  0  0  0  0  0  0  0  0  0  0  0
   33.1658   15.7463  -10.3432 C   0  0  0  0  0  0  0  0  0  0  0  0
   31.7280   15.9904  -10.0876 C   0  0  0  0  0  0  0  0  0  0  0  0
   30.7602   14.9899  -10.6459 C   0  0  0  0  0  0  0  0  0  0  0  0
   31.1224   14.4584  -11.9910 C   0  0  0  0  0  0  0  0  0  0  0  0
   31.4769   16.1077   -8.6861 N   0  0  0  0  0  0  0  0  0  0  0  0
   32.6000   16.2911   -7.8375 C   0  0  0  0  0  0  0  0  0  0  0  0
   32.0323   16.4671   -6.4159 C   0  0  0  0  0  0  0  0  0  0  0  0
   31.6189   15.2232   -5.9765 O   0  0  0  0  0  0  0  0  0  0  0  0
   31.3135   14.3721   -7.0446 C   0  0  0  0  0  0  0  0  0  0  0  0
   30.5999   15.0904   -8.1676 C   0  0  0  0  0  0  0  0  0  0  0  0
  1  2  1  0  0  0
  2  3  1  0  0  0
  3  4  1  0  0  0
  4  5  2  0  0  0
  4  7  1  0  0  0
  7  8  2  0  0  0
  8  9  1  0  0  0
  9 10  2  0  0  0
 10 11  1  0  0  0
 11 12  1  0  0  0
 12 13  2  0  0  0
 13 14  1  0  0  0
 14 15  2  0  0  0
  2 17  1  0  0  0
 17 18  2  0  0  0
 17 19  1  0  0  0
 19 21  1  0  0  0
 21 22  1  0  0  0
 22 23  1  0  0  0
 23 24  1  0  0  0
 24 25  1  0  0  0
 25 26  1  0  0  0
 24 27  1  0  0  0
 27 28  1  0  0  0
 28 29  1  0  0  0
 29 30  1  0  0  0
 30 31  1  0  0  0
 31 32  1  0  0  0
 15  7  1  0  0  0
 26 21  1  0  0  0
 32 27  1  0  0  0
 14 10  1  0  0  0
  3  6  1  0  0  0
 11 16  1  0  0  0
 19 20  1  0  0  0
M  END
> <minimizedAffinity>
-8.99245

> <CNNscore>
0.9312270284

> <CNNaffinity>
6.8595809937

> <CNN_VS>
6.3878273964

> <CNNaffinity_variance>
0.0344383419

$$$$
[H]c1nc2c(c([H])c1C(=O)N([H])[C@]([H])(C(=O)N([H])[C@]1([H])C([H])([H])C([H])([H])[C@@]([H])(N3C([H])([H])C([H])([H])OC([H])([H])C3([H])[H])C([H])([H])C1([H])[H])C([H])([H])[H])c([H])c([H])n2[H]


 32 35  0  0  0  0  0  0  0  0999 V2000
   40.0716   11.9260  -18.9645 C   0  0  0  0  0  0  0  0  0  0  0  0
   40.1902   11.7557  -17.4835 C   0  0  0  0  0  0  0  0  0  0  0  0
   38.9679   12.1051  -16.8183 N   0  0  0  0  0  0  0  0  0  0  0  0
   37.7601   11.4075  -16.9163 C   0  0  0  0  0  0  0  0  0  0  0  0
   37.7454   10.3743  -17.6621 O   0  0  0  0  0  0  0  0  0  0  0  0
   38.9916   12.9743  -16.2014 H   0  0  0  0  0  0  0  0  0  0  0  0
   36.5416   11.7810  -16.2338 C   0  0  0  0  0  0  0  0  0  0  0  0
   35.3503   11.1562  -16.5791 C   0  0  0  0  0  0  0  0  0  0  0  0
   34.1974   11.4845  -15.9547 N   0  0  0  0  0  0  0  0  0  0  0  0
   34.1858   12.4203  -14.9920 C   0  0  0  0  0  0  0  0  0  0  0  0
   33.1589   12.8843  -14.2630 N   0  0  0  0  0  0  0  0  0  0  0  0
   33.6342   13.8286  -13.4120 C   0  0  0  0  0  0  0  0  0  0  0  0
   34.9840   13.9471  -13.6243 C   0  0  0  0  0  0  0  0  0  0  0  0
   35.3312   13.0607  -14.6193 C   0  0  0  0  0  0  0  0  0  0  0  0
   36.5291   12.7416  -15.2443 C   0  0  0  0  0  0  0  0  0  0  0  0
   32.1829   12.5603  -14.3562 H   0  0  0  0  0  0  0  0  0  0  0  0
   41.2939   12.5919  -16.9140 C   0  0  0  0  0  0  0  0  0  0  0  0
   41.0174   13.7781  -16.6124 O   0  0  0  0  0  0  0  0  0  0  0  0
   42.6045   12.1201  -16.7096 N   0  0  0  0  0  0  0  0  0  0  0  0
   42.8636   11.1408  -16.9582 H   0  0  0  0  0  0  0  0  0  0  0  0
   43.6302   12.9653  -16.1582 C   0  0  0  0  0  0  0  0  0  0  0  0
   43.4237   13.3030  -14.7068 C   0  0  0  0  0  0  0  0  0  0  0  0
   44.4698   14.3460  -14.3721 C   0  0  0  0  0  0  0  0  0  0  0  0
   45.8155   13.7451  -14.5134 C   0  0  0  0  0  0  0  0  0  0  0  0
   46.1121   13.0406  -15.8038 C   0  0  0  0  0  0  0  0  0  0  0  0
   44.9686   12.2667  -16.3663 C   0  0  0  0  0  0  0  0  0  0  0  0
   46.8318   14.7279  -14.3075 N   0  0  0  0  0  0  0  0  0  0  0  0
   48.1278   14.4377  -14.8086 C   0  0  0  0  0  0  0  0  0  0  0  0
   48.9823   15.6876  -14.5222 C   0  0  0  0  0  0  0  0  0  0  0  0
   49.2617   15.6987  -13.1684 O   0  0  0  0  0  0  0  0  0  0  0  0
   48.3021   14.9909  -12.4359 C   0  0  0  0  0  0  0  0  0  0  0  0
   46.8999   15.2163  -12.9548 C   0  0  0  0  0  0  0  0  0  0  0  0
  1  2  1  0  0  0
  2  3  1  0  0  0
  3  4  1  0  0  0
  4  5  2  0  0  0
  4  7  1  0  0  0
  7  8  2  0  0  0
  8  9  1  0  0  0
  9 10  2  0  0  0
 10 11  1  0  0  0
 11 12  1  0  0  0
 12 13  2  0  0  0
 13 14  1  0  0  0
 14 15  2  0  0  0
  2 17  1  0  0  0
 17 18  2  0  0  0
 17 19  1  0  0  0
 19 21  1  0  0  0
 21 22  1  0  0  0
 22 23  1  0  0  0
 23 24  1  0  0  0
 24 25  1  0  0  0
 25 26  1  0  0  0
 24 27  1  0  0  0
 27 28  1  0  0  0
 28 29  1  0  0  0
 29 30  1  0  0  0
 30 31  1  0  0  0
 31 32  1  0  0  0
 15  7  1  0  0  0
 26 21  1  0  0  0
 32 27  1  0  0  0
 14 10  1  0  0  0
  3  6  1  0  0  0
 11 16  1  0  0  0
 19 20  1  0  0  0
M  END
> <minimizedAffinity>
-8.40268

> <CNNscore>
0.7229379416

> <CNNaffinity>
6.7103676796

> <CNN_VS>
4.8511795998

> <CNNaffinity_variance>
0.0994400606

$$$$
[H]c1nc2c(c([H])c1C(=O)N([H])[C@]([H])(C(=O)N([H])[C@]1([H])C([H])([H])C([H])([H])[C@@]([H])(N3C([H])([H])C([H])([H])OC([H])([H])C3([H])[H])C([H])([H])C1([H])[H])C([H])([H])[H])c([H])c([H])n2[H]


 32 35  0  0  0  0  0  0  0  0999 V2000
   35.8311   12.2699  -14.8630 C   0  0  0  0  0  0  0  0  0  0  0  0
   36.8604   13.3429  -14.7027 C   0  0  0  0  0  0  0  0  0  0  0  0
   38.1355   12.9230  -15.2087 N   0  0  0  0  0  0  0  0  0  0  0  0
   39.3234   13.6563  -15.1305 C   0  0  0  0  0  0  0  0  0  0  0  0
   39.2660   14.7956  -14.5626 O   0  0  0  0  0  0  0  0  0  0  0  0
   38.1695   11.9704  -15.6862 H   0  0  0  0  0  0  0  0  0  0  0  0
   40.5969   13.2089  -15.6486 C   0  0  0  0  0  0  0  0  0  0  0  0
   40.6310   12.4722  -16.8253 C   0  0  0  0  0  0  0  0  0  0  0  0
   41.8083   12.0443  -17.3330 N   0  0  0  0  0  0  0  0  0  0  0  0
   42.9628   12.3240  -16.7069 C   0  0  0  0  0  0  0  0  0  0  0  0
   44.2193   11.9930  -17.0426 N   0  0  0  0  0  0  0  0  0  0  0  0
   45.0575   12.4988  -16.1027 C   0  0  0  0  0  0  0  0  0  0  0  0
   44.2975   13.1549  -15.1684 C   0  0  0  0  0  0  0  0  0  0  0  0
   42.9785   13.0444  -15.5486 C   0  0  0  0  0  0  0  0  0  0  0  0
   41.7831   13.4965  -15.0065 C   0  0  0  0  0  0  0  0  0  0  0  0
   44.4753   11.4445  -17.8791 H   0  0  0  0  0  0  0  0  0  0  0  0
   37.0288   13.7425  -13.2696 C   0  0  0  0  0  0  0  0  0  0  0  0
   37.4490   12.8664  -12.4757 O   0  0  0  0  0  0  0  0  0  0  0  0
   36.7381   15.0297  -12.7790 N   0  0  0  0  0  0  0  0  0  0  0  0
   36.3805   15.7748  -13.4153 H   0  0  0  0  0  0  0  0  0  0  0  0
   36.9176   15.3633  -11.3909 C   0  0  0  0  0  0  0  0  0  0  0  0
   36.7117   16.8219  -11.0852 C   0  0  0  0  0  0  0  0  0  0  0  0
   37.1393   17.0067   -9.6439 C   0  0  0  0  0  0  0  0  0  0  0  0
   36.2377   16.2253   -8.7671 C   0  0  0  0  0  0  0  0  0  0  0  0
   36.0356   14.7808   -9.1163 C   0  0  0  0  0  0  0  0  0  0  0  0
   35.9603   14.4995  -10.5785 C   0  0  0  0  0  0  0  0  0  0  0  0
   36.6732   16.2905   -7.4080 N   0  0  0  0  0  0  0  0  0  0  0  0
   35.8154   15.7346   -6.4231 C   0  0  0  0  0  0  0  0  0  0  0  0
   36.5653   15.8690   -5.0838 C   0  0  0  0  0  0  0  0  0  0  0  0
   36.5087   17.1980   -4.7073 O   0  0  0  0  0  0  0  0  0  0  0  0
   36.3340   18.0414   -5.8102 C   0  0  0  0  0  0  0  0  0  0  0  0
   37.1376   17.5941   -7.0104 C   0  0  0  0  0  0  0  0  0  0  0  0
  1  2  1  0  0  0
  2  3  1  0  0  0
  3  4  1  0  0  0
  4  5  2  0  0  0
  4  7  1  0  0  0
  7  8  2  0  0  0
  8  9  1  0  0  0
  9 10  2  0  0  0
 10 11  1  0  0  0
 11 12  1  0  0  0
 12 13  2  0  0  0
 13 14  1  0  0  0
 14 15  2  0  0  0
  2 17  1  0  0  0
 17 18  2  0  0  0
 17 19  1  0  0  0
 19 21  1  0  0  0
 21 22  1  0  0  0
 22 23  1  0  0  0
 23 24  1  0  0  0
 24 25  1  0  0  0
 25 26  1  0  0  0
 24 27  1  0  0  0
 27 28  1  0  0  0
 28 29  1  0  0  0
 29 30  1  0  0  0
 30 31  1  0  0  0
 31 32  1  0  0  0
 15  7  1  0  0  0
 26 21  1  0  0  0
 32 27  1  0  0  0
 14 10  1  0  0  0
  3  6  1  0  0  0
 11 16  1  0  0  0
 19 20  1  0  0  0
M  END
> <minimizedAffinity>
-7.16949

> <CNNscore>
0.6380950212

> <CNNaffinity>
6.2925791740

> <CNN_VS>
4.0152635574

> <CNNaffinity_variance>
0.1265414357

$$$$
[H]c1nc2c(c([H])c1C(=O)N([H])[C@]([H])(C(=O)N([H])[C@]1([H])C([H])([H])C([H])([H])[C@@]([H])(N3C([H])([H])C([H])([H])OC([H])([H])C3([H])[H])C([H])([H])C1([H])[H])C([H])([H])[H])c([H])c([H])n2[H]


 32 35  0  0  0  0  0  0  0  0999 V2000
   33.5560   13.3541  -13.9831 C   0  0  0  0  0  0  0  0  0  0  0  0
   34.8067   14.1511  -13.7907 C   0  0  0  0  0  0  0  0  0  0  0  0
   35.8567   13.6912  -14.6535 N   0  0  0  0  0  0  0  0  0  0  0  0
   35.8900   12.4558  -15.3074 C   0  0  0  0  0  0  0  0  0  0  0  0
   34.9033   11.6719  -15.1180 O   0  0  0  0  0  0  0  0  0  0  0  0
   36.6790   14.3538  -14.7999 H   0  0  0  0  0  0  0  0  0  0  0  0
   36.9613   12.0168  -16.1733 C   0  0  0  0  0  0  0  0  0  0  0  0
   36.6940   11.0816  -17.1646 C   0  0  0  0  0  0  0  0  0  0  0  0
   37.6766   10.6564  -17.9896 N   0  0  0  0  0  0  0  0  0  0  0  0
   38.9264   11.1308  -17.8628 C   0  0  0  0  0  0  0  0  0  0  0  0
   40.0279   10.8380  -18.5713 N   0  0  0  0  0  0  0  0  0  0  0  0
   41.0588   11.5681  -18.0753 C   0  0  0  0  0  0  0  0  0  0  0  0
   40.5786   12.3260  -17.0379 C   0  0  0  0  0  0  0  0  0  0  0  0
   39.2360   12.0504  -16.9039 C   0  0  0  0  0  0  0  0  0  0  0  0
   38.2450   12.5042  -16.0442 C   0  0  0  0  0  0  0  0  0  0  0  0
   40.0571   10.1661  -19.3548 H   0  0  0  0  0  0  0  0  0  0  0  0
   35.2949   14.0873  -12.3767 C   0  0  0  0  0  0  0  0  0  0  0  0
   35.7416   12.9863  -11.9735 O   0  0  0  0  0  0  0  0  0  0  0  0
   35.2718   15.1830  -11.4930 N   0  0  0  0  0  0  0  0  0  0  0  0
   34.8991   16.1077  -11.7996 H   0  0  0  0  0  0  0  0  0  0  0  0
   35.7537   15.0694  -10.1420 C   0  0  0  0  0  0  0  0  0  0  0  0
   37.2349   15.2944  -10.0045 C   0  0  0  0  0  0  0  0  0  0  0  0
   37.5766   14.9349   -8.5733 C   0  0  0  0  0  0  0  0  0  0  0  0
   36.8861   15.8735   -7.6599 C   0  0  0  0  0  0  0  0  0  0  0  0
   35.4108   16.0540   -7.8608 C   0  0  0  0  0  0  0  0  0  0  0  0
   34.9738   16.0604   -9.2862 C   0  0  0  0  0  0  0  0  0  0  0  0
   37.1003   15.5018   -6.2972 N   0  0  0  0  0  0  0  0  0  0  0  0
   38.1613   14.5977   -6.0290 C   0  0  0  0  0  0  0  0  0  0  0  0
   38.2104   14.4449   -4.4966 C   0  0  0  0  0  0  0  0  0  0  0  0
   37.1403   13.6532   -4.1234 O   0  0  0  0  0  0  0  0  0  0  0  0
   36.1020   13.7113   -5.0598 C   0  0  0  0  0  0  0  0  0  0  0  0
   35.8993   15.1053   -5.6093 C   0  0  0  0  0  0  0  0  0  0  0  0
  1  2  1  0  0  0
  2  3  1  0  0  0
  3  4  1  0  0  0
  4  5  2  0  0  0
  4  7  1  0  0  0
  7  8  2  0  0  0
  8  9  1  0  0  0
  9 10  2  0  0  0
 10 11  1  0  0  0
 11 12  1  0  0  0
 12 13  2  0  0  0
 13 14  1  0  0  0
 14 15  2  0  0  0
  2 17  1  0  0  0
 17 18  2  0  0  0
 17 19  1  0  0  0
 19 21  1  0  0  0
 21 22  1  0  0  0
 22 23  1  0  0  0
 23 24  1  0  0  0
 24 25  1  0  0  0
 25 26  1  0  0  0
 24 27  1  0  0  0
 27 28  1  0  0  0
 28 29  1  0  0  0
 29 30  1  0  0  0
 30 31  1  0  0  0
 31 32  1  0  0  0
 15  7  1  0  0  0
 26 21  1  0  0  0
 32 27  1  0  0  0
 14 10  1  0  0  0
  3  6  1  0  0  0
 11 16  1  0  0  0
 19 20  1  0  0  0
M  END
> <minimizedAffinity>
-8.50518

> <CNNscore>
0.5246546865

> <CNNaffinity>
6.3165421486

> <CNN_VS>
3.3140034676

> <CNNaffinity_variance>
0.1076372489

$$$$
[H]c1nc2c(c([H])c1C(=O)N([H])[C@]([H])(C(=O)N([H])[C@]1([H])C([H])([H])C([H])([H])[C@@]([H])(N3C([H])([H])C([H])([H])OC([H])([H])C3([H])[H])C([H])([H])C1([H])[H])C([H])([H])[H])c([H])c([H])n2[H]


 32 35  0  0  0  0  0  0  0  0999 V2000
   33.1769   14.4781  -12.2865 C   0  0  0  0  0  0  0  0  0  0  0  0
   34.4144   15.2861  -12.5157 C   0  0  0  0  0  0  0  0  0  0  0  0
   35.2638   14.6733  -13.4962 N   0  0  0  0  0  0  0  0  0  0  0  0
   35.6632   13.3334  -13.5033 C   0  0  0  0  0  0  0  0  0  0  0  0
   35.2366   12.5955  -12.5559 O   0  0  0  0  0  0  0  0  0  0  0  0
   35.6183   15.3022  -14.2807 H   0  0  0  0  0  0  0  0  0  0  0  0
   36.5203   12.7402  -14.5051 C   0  0  0  0  0  0  0  0  0  0  0  0
   37.8985   12.8220  -14.3552 C   0  0  0  0  0  0  0  0  0  0  0  0
   38.7225   12.2734  -15.2755 N   0  0  0  0  0  0  0  0  0  0  0  0
   38.2214   11.6420  -16.3493 C   0  0  0  0  0  0  0  0  0  0  0  0
   38.8621   11.0412  -17.3640 N   0  0  0  0  0  0  0  0  0  0  0  0
   37.9325   10.5417  -18.2173 C   0  0  0  0  0  0  0  0  0  0  0  0
   36.6926   10.8437  -17.7147 C   0  0  0  0  0  0  0  0  0  0  0  0
   36.8746   11.5367  -16.5387 C   0  0  0  0  0  0  0  0  0  0  0  0
   36.0062   12.0908  -15.6079 C   0  0  0  0  0  0  0  0  0  0  0  0
   39.8891   10.9850  -17.4549 H   0  0  0  0  0  0  0  0  0  0  0  0
   35.2018   15.4673  -11.2552 C   0  0  0  0  0  0  0  0  0  0  0  0
   36.4098   15.7846  -11.3744 O   0  0  0  0  0  0  0  0  0  0  0  0
   34.6617   15.2964   -9.9663 N   0  0  0  0  0  0  0  0  0  0  0  0
   33.6626   15.0257   -9.8383 H   0  0  0  0  0  0  0  0  0  0  0  0
   35.4620   15.4830   -8.7851 C   0  0  0  0  0  0  0  0  0  0  0  0
   35.4805   16.9006   -8.2817 C   0  0  0  0  0  0  0  0  0  0  0  0
   36.5194   16.9345   -7.1799 C   0  0  0  0  0  0  0  0  0  0  0  0
   36.0761   16.0619   -6.0691 C   0  0  0  0  0  0  0  0  0  0  0  0
   35.6749   14.6612   -6.4250 C   0  0  0  0  0  0  0  0  0  0  0  0
   34.9364   14.5349   -7.7140 C   0  0  0  0  0  0  0  0  0  0  0  0
   37.0798   15.9856   -5.0552 N   0  0  0  0  0  0  0  0  0  0  0  0
   38.0412   17.0291   -5.0124 C   0  0  0  0  0  0  0  0  0  0  0  0
   38.9315   16.7348   -3.7897 C   0  0  0  0  0  0  0  0  0  0  0  0
   39.7597   15.6793   -4.1231 O   0  0  0  0  0  0  0  0  0  0  0  0
   39.2050   14.8850   -5.1330 C   0  0  0  0  0  0  0  0  0  0  0  0
   37.7143   14.6964   -4.9639 C   0  0  0  0  0  0  0  0  0  0  0  0
  1  2  1  0  0  0
  2  3  1  0  0  0
  3  4  1  0  0  0
  4  5  2  0  0  0
  4  7  1  0  0  0
  7  8  2  0  0  0
  8  9  1  0  0  0
  9 10  2  0  0  0
 10 11  1  0  0  0
 11 12  1  0  0  0
 12 13  2  0  0  0
 13 14  1  0  0  0
 14 15  2  0  0  0
  2 17  1  0  0  0
 17 18  2  0  0  0
 17 19  1  0  0  0
 19 21  1  0  0  0
 21 22  1  0  0  0
 22 23  1  0  0  0
 23 24  1  0  0  0
 24 25  1  0  0  0
 25 26  1  0  0  0
 24 27  1  0  0  0
 27 28  1  0  0  0
 28 29  1  0  0  0
 29 30  1  0  0  0
 30 31  1  0  0  0
 31 32  1  0  0  0
 15  7  1  0  0  0
 26 21  1  0  0  0
 32 27  1  0  0  0
 14 10  1  0  0  0
  3  6  1  0  0  0
 11 16  1  0  0  0
 19 20  1  0  0  0
M  END
> <minimizedAffinity>
-7.50119

> <CNNscore>
0.4064727426

> <CNNaffinity>
5.9087877274

> <CNN_VS>
2.4017610550

> <CNNaffinity_variance>
0.2300648689

$$$$
[H]c1nc2c(c([H])c1C(=O)N([H])[C@]([H])(C(=O)N([H])[C@]1([H])C([H])([H])C([H])([H])[C@@]([H])(N3C([H])([H])C([H])([H])OC([H])([H])C3([H])[H])C([H])([H])C1([H])[H])C([H])([H])[H])c([H])c([H])n2[H]


 32 35  0  0  0  0  0  0  0  0999 V2000
   32.8380   14.3931  -12.1455 C   0  0  0  0  0  0  0  0  0  0  0  0
   33.9872   15.1450  -12.7376 C   0  0  0  0  0  0  0  0  0  0  0  0
   34.5662   14.4310  -13.8391 N   0  0  0  0  0  0  0  0  0  0  0  0
   35.2074   13.1912  -13.7581 C   0  0  0  0  0  0  0  0  0  0  0  0
   35.2848   12.6518  -12.6062 O   0  0  0  0  0  0  0  0  0  0  0  0
   34.4997   14.8950  -14.7967 H   0  0  0  0  0  0  0  0  0  0  0  0
   35.7823   12.4920  -14.8854 C   0  0  0  0  0  0  0  0  0  0  0  0
   34.9498   11.7846  -15.7429 C   0  0  0  0  0  0  0  0  0  0  0  0
   35.4610   11.1247  -16.8059 N   0  0  0  0  0  0  0  0  0  0  0  0
   36.7815   11.1420  -17.0487 C   0  0  0  0  0  0  0  0  0  0  0  0
   37.4769   10.5570  -18.0363 N   0  0  0  0  0  0  0  0  0  0  0  0
   38.7896   10.8572  -17.8674 C   0  0  0  0  0  0  0  0  0  0  0  0
   38.9022   11.6442  -16.7497 C   0  0  0  0  0  0  0  0  0  0  0  0
   37.6379   11.8232  -16.2341 C   0  0  0  0  0  0  0  0  0  0  0  0
   37.1385   12.5100  -15.1358 C   0  0  0  0  0  0  0  0  0  0  0  0
   37.0581    9.9807  -18.7837 H   0  0  0  0  0  0  0  0  0  0  0  0
   35.0607   15.4064  -11.7271 C   0  0  0  0  0  0  0  0  0  0  0  0
   35.8970   16.3018  -11.9977 O   0  0  0  0  0  0  0  0  0  0  0  0
   35.1767   14.7042  -10.5124 N   0  0  0  0  0  0  0  0  0  0  0  0
   34.4996   13.9502  -10.2655 H   0  0  0  0  0  0  0  0  0  0  0  0
   36.2281   14.9943   -9.5739 C   0  0  0  0  0  0  0  0  0  0  0  0
   37.6033   14.9962  -10.1840 C   0  0  0  0  0  0  0  0  0  0  0  0
   38.5702   15.1127   -9.0238 C   0  0  0  0  0  0  0  0  0  0  0  0
   38.3671   16.4168   -8.3530 C   0  0  0  0  0  0  0  0  0  0  0  0
   36.9632   16.7645   -7.9561 C   0  0  0  0  0  0  0  0  0  0  0  0
   35.9186   16.3416   -8.9323 C   0  0  0  0  0  0  0  0  0  0  0  0
   39.1893   16.5196   -7.1891 N   0  0  0  0  0  0  0  0  0  0  0  0
   40.5035   15.9894   -7.2726 C   0  0  0  0  0  0  0  0  0  0  0  0
   41.1759   16.3098   -5.9238 C   0  0  0  0  0  0  0  0  0  0  0  0
   40.6457   15.4497   -4.9803 O   0  0  0  0  0  0  0  0  0  0  0  0
   39.3719   15.0009   -5.3468 C   0  0  0  0  0  0  0  0  0  0  0  0
   38.5369   16.0914   -5.9792 C   0  0  0  0  0  0  0  0  0  0  0  0
  1  2  1  0  0  0
  2  3  1  0  0  0
  3  4  1  0  0  0
  4  5  2  0  0  0
  4  7  1  0  0  0
  7  8  2  0  0  0
  8  9  1  0  0  0
  9 10  2  0  0  0
 10 11  1  0  0  0
 11 12  1  0  0  0
 12 13  2  0  0  0
 13 14  1  0  0  0
 14 15  2  0  0  0
  2 17  1  0  0  0
 17 18  2  0  0  0
 17 19  1  0  0  0
 19 21  1  0  0  0
 21 22  1  0  0  0
 22 23  1  0  0  0
 23 24  1  0  0  0
 24 25  1  0  0  0
 25 26  1  0  0  0
 24 27  1  0  0  0
 27 28  1  0  0  0
 28 29  1  0  0  0
 29 30  1  0  0  0
 30 31  1  0  0  0
 31 32  1  0  0  0
 15  7  1  0  0  0
 26 21  1  0  0  0
 32 27  1  0  0  0
 14 10  1  0  0  0
  3  6  1  0  0  0
 11 16  1  0  0  0
 19 20  1  0  0  0
M  END
> <minimizedAffinity>
-7.96842

> <CNNscore>
0.2987410128

> <CNNaffinity>
6.0428895950

> <CNN_VS>
1.8052589893

> <CNNaffinity_variance>
0.1435647309

$$$$
[H]c1nc2c(c([H])c1C(=O)N([H])[C@]([H])(C(=O)N([H])[C@]1([H])C([H])([H])C([H])([H])[C@@]([H])(N3C([H])([H])C([H])([H])OC([H])([H])C3([H])[H])C([H])([H])C1([H])[H])C([H])([H])[H])c([H])c([H])n2[H]


 32 35  0  0  0  0  0  0  0  0999 V2000
   34.6623   13.2809  -13.1037 C   0  0  0  0  0  0  0  0  0  0  0  0
   35.4456   14.5297  -13.3555 C   0  0  0  0  0  0  0  0  0  0  0  0
   36.6069   14.2652  -14.1554 N   0  0  0  0  0  0  0  0  0  0  0  0
   37.6390   13.3821  -13.8242 C   0  0  0  0  0  0  0  0  0  0  0  0
   37.5386   12.7614  -12.7158 O   0  0  0  0  0  0  0  0  0  0  0  0
   36.6819   14.7945  -15.0779 H   0  0  0  0  0  0  0  0  0  0  0  0
   38.7995   13.1330  -14.6498 C   0  0  0  0  0  0  0  0  0  0  0  0
   38.6358   12.5198  -15.8851 C   0  0  0  0  0  0  0  0  0  0  0  0
   39.7035   12.2781  -16.6779 N   0  0  0  0  0  0  0  0  0  0  0  0
   40.9387   12.6261  -16.2830 C   0  0  0  0  0  0  0  0  0  0  0  0
   42.1130   12.4729  -16.9144 N   0  0  0  0  0  0  0  0  0  0  0  0
   43.0911   12.9790  -16.1214 C   0  0  0  0  0  0  0  0  0  0  0  0
   42.5033   13.4532  -14.9765 C   0  0  0  0  0  0  0  0  0  0  0  0
   41.1481   13.2307  -15.0782 C   0  0  0  0  0  0  0  0  0  0  0  0
   40.0684   13.4910  -14.2452 C   0  0  0  0  0  0  0  0  0  0  0  0
   42.2238   12.0388  -17.8447 H   0  0  0  0  0  0  0  0  0  0  0  0
   35.8878   15.1758  -12.0793 C   0  0  0  0  0  0  0  0  0  0  0  0
   36.2767   16.3669  -12.1445 O   0  0  0  0  0  0  0  0  0  0  0  0
   35.8926   14.5201  -10.8335 N   0  0  0  0  0  0  0  0  0  0  0  0
   35.5814   13.5279  -10.7519 H   0  0  0  0  0  0  0  0  0  0  0  0
   36.3276   15.1867   -9.6348 C   0  0  0  0  0  0  0  0  0  0  0  0
   35.5425   14.8063   -8.4092 C   0  0  0  0  0  0  0  0  0  0  0  0
   36.0029   15.7468   -7.3148 C   0  0  0  0  0  0  0  0  0  0  0  0
   37.4352   15.4989   -7.0339 C   0  0  0  0  0  0  0  0  0  0  0  0
   38.3672   15.4994   -8.2090 C   0  0  0  0  0  0  0  0  0  0  0  0
   37.8086   14.8813   -9.4454 C   0  0  0  0  0  0  0  0  0  0  0  0
   37.9330   16.4388   -6.0799 N   0  0  0  0  0  0  0  0  0  0  0  0
   38.7370   17.5003   -6.5716 C   0  0  0  0  0  0  0  0  0  0  0  0
   39.0564   18.3887   -5.3539 C   0  0  0  0  0  0  0  0  0  0  0  0
   40.0003   17.7258   -4.5918 O   0  0  0  0  0  0  0  0  0  0  0  0
   39.9529   16.3424   -4.7976 C   0  0  0  0  0  0  0  0  0  0  0  0
   38.5371   15.8272   -4.9249 C   0  0  0  0  0  0  0  0  0  0  0  0
  1  2  1  0  0  0
  2  3  1  0  0  0
  3  4  1  0  0  0
  4  5  2  0  0  0
  4  7  1  0  0  0
  7  8  2  0  0  0
  8  9  1  0  0  0
  9 10  2  0  0  0
 10 11  1  0  0  0
 11 12  1  0  0  0
 12 13  2  0  0  0
 13 14  1  0  0  0
 14 15  2  0  0  0
  2 17  1  0  0  0
 17 18  2  0  0  0
 17 19  1  0  0  0
 19 21  1  0  0  0
 21 22  1  0  0  0
 22 23  1  0  0  0
 23 24  1  0  0  0
 24 25  1  0  0  0
 25 26  1  0  0  0
 24 27  1  0  0  0
 27 28  1  0  0  0
 28 29  1  0  0  0
 29 30  1  0  0  0
 30 31  1  0  0  0
 31 32  1  0  0  0
 15  7  1  0  0  0
 26 21  1  0  0  0
 32 27  1  0  0  0
 14 10  1  0  0  0
  3  6  1  0  0  0
 11 16  1  0  0  0
 19 20  1  0  0  0
M  END
> <minimizedAffinity>
-7.31195

> <CNNscore>
0.2886779606

> <CNNaffinity>
5.6645660400

> <CNN_VS>
1.6352354288

> <CNNaffinity_variance>
0.1482308358

$$$$
[H]c1nc2c(c([H])c1C(=O)N([H])[C@]([H])(C(=O)N([H])[C@]1([H])C([H])([H])C([H])([H])[C@@]([H])(N3C([H])([H])C([H])([H])OC([H])([H])C3([H])[H])C([H])([H])C1([H])[H])C([H])([H])[H])c([H])c([H])n2[H]


 32 35  0  0  0  0  0  0  0  0999 V2000
   34.8030   13.7809  -12.5399 C   0  0  0  0  0  0  0  0  0  0  0  0
   35.6963   14.9552  -12.7837 C   0  0  0  0  0  0  0  0  0  0  0  0
   36.7277   14.6390  -13.7295 N   0  0  0  0  0  0  0  0  0  0  0  0
   37.5482   13.5075  -13.6907 C   0  0  0  0  0  0  0  0  0  0  0  0
   37.3636   12.6893  -12.7314 O   0  0  0  0  0  0  0  0  0  0  0  0
   36.8759   15.3339  -14.5245 H   0  0  0  0  0  0  0  0  0  0  0  0
   38.5810   13.2120  -14.6582 C   0  0  0  0  0  0  0  0  0  0  0  0
   39.8245   13.8173  -14.5313 C   0  0  0  0  0  0  0  0  0  0  0  0
   40.8085   13.5562  -15.4203 N   0  0  0  0  0  0  0  0  0  0  0  0
   40.5988   12.7085  -16.4403 C   0  0  0  0  0  0  0  0  0  0  0  0
   41.4342   12.3235  -17.4175 N   0  0  0  0  0  0  0  0  0  0  0  0
   40.7745   11.4518  -18.2217 C   0  0  0  0  0  0  0  0  0  0  0  0
   39.5045   11.2990  -17.7267 C   0  0  0  0  0  0  0  0  0  0  0  0
   39.3939   12.0905  -16.6052 C   0  0  0  0  0  0  0  0  0  0  0  0
   38.3665   12.3408  -15.7056 C   0  0  0  0  0  0  0  0  0  0  0  0
   42.4081   12.6520  -17.5167 H   0  0  0  0  0  0  0  0  0  0  0  0
   36.3433   15.4337  -11.5211 C   0  0  0  0  0  0  0  0  0  0  0  0
   36.8813   16.5669  -11.5463 O   0  0  0  0  0  0  0  0  0  0  0  0
   36.3803   14.6834  -10.3303 N   0  0  0  0  0  0  0  0  0  0  0  0
   35.9474   13.7356  -10.2836 H   0  0  0  0  0  0  0  0  0  0  0  0
   37.0154   15.1894   -9.1425 C   0  0  0  0  0  0  0  0  0  0  0  0
   36.4979   14.5773   -7.8693 C   0  0  0  0  0  0  0  0  0  0  0  0
   37.1277   15.3707   -6.7433 C   0  0  0  0  0  0  0  0  0  0  0  0
   38.5954   15.1793   -6.7776 C   0  0  0  0  0  0  0  0  0  0  0  0
   39.2805   15.4188   -8.0901 C   0  0  0  0  0  0  0  0  0  0  0  0
   38.5151   14.9582   -9.2838 C   0  0  0  0  0  0  0  0  0  0  0  0
   39.2345   15.9958   -5.7947 N   0  0  0  0  0  0  0  0  0  0  0  0
   38.6063   16.0975   -4.5258 C   0  0  0  0  0  0  0  0  0  0  0  0
   39.5439   16.9577   -3.6568 C   0  0  0  0  0  0  0  0  0  0  0  0
   39.4146   18.2682   -4.0777 O   0  0  0  0  0  0  0  0  0  0  0  0
   38.9810   18.3449   -5.4060 C   0  0  0  0  0  0  0  0  0  0  0  0
   39.6226   17.2935   -6.2830 C   0  0  0  0  0  0  0  0  0  0  0  0
  1  2  1  0  0  0
  2  3  1  0  0  0
  3  4  1  0  0  0
  4  5  2  0  0  0
  4  7  1  0  0  0
  7  8  2  0  0  0
  8  9  1  0  0  0
  9 10  2  0  0  0
 10 11  1  0  0  0
 11 12  1  0  0  0
 12 13  2  0  0  0
 13 14  1  0  0  0
 14 15  2  0  0  0
  2 17  1  0  0  0
 17 18  2  0  0  0
 17 19  1  0  0  0
 19 21  1  0  0  0
 21 22  1  0  0  0
 22 23  1  0  0  0
 23 24  1  0  0  0
 24 25  1  0  0  0
 25 26  1  0  0  0
 24 27  1  0  0  0
 27 28  1  0  0  0
 28 29  1  0  0  0
 29 30  1  0  0  0
 30 31  1  0  0  0
 31 32  1  0  0  0
 15  7  1  0  0  0
 26 21  1  0  0  0
 32 27  1  0  0  0
 14 10  1  0  0  0
  3  6  1  0  0  0
 11 16  1  0  0  0
 19 20  1  0  0  0
M  END
> <minimizedAffinity>
-7.58640

> <CNNscore>
0.2696688473

> <CNNaffinity>
5.4672641754

> <CNN_VS>
1.4743508101

> <CNNaffinity_variance>
0.1819058955

$$$$
[H]c1nc2c(c([H])c1C(=O)N([H])[C@]([H])(C(=O)N([H])[C@]1([H])C([H])([H])C([H])([H])[C@@]([H])(N3C([H])([H])C([H])([H])OC([H])([H])C3([H])[H])C([H])([H])C1([H])[H])C([H])([H])[H])c([H])c([H])n2[H]


 32 35  0  0  0  0  0  0  0  0999 V2000
   34.7150   13.1567  -14.5018 C   0  0  0  0  0  0  0  0  0  0  0  0
   35.8763   13.9547  -14.0008 C   0  0  0  0  0  0  0  0  0  0  0  0
   37.1074   13.5101  -14.5882 N   0  0  0  0  0  0  0  0  0  0  0  0
   38.3696   14.0615  -14.3475 C   0  0  0  0  0  0  0  0  0  0  0  0
   38.4290   15.0441  -13.5382 O   0  0  0  0  0  0  0  0  0  0  0  0
   37.0439   12.6908  -15.2674 H   0  0  0  0  0  0  0  0  0  0  0  0
   39.5962   13.5932  -14.9528 C   0  0  0  0  0  0  0  0  0  0  0  0
   39.5342   12.8312  -16.1121 C   0  0  0  0  0  0  0  0  0  0  0  0
   40.6659   12.3833  -16.7000 N   0  0  0  0  0  0  0  0  0  0  0  0
   41.8672   12.6674  -16.1717 C   0  0  0  0  0  0  0  0  0  0  0  0
   43.0918   12.3195  -16.5965 N   0  0  0  0  0  0  0  0  0  0  0  0
   44.0036   12.8389  -15.7359 C   0  0  0  0  0  0  0  0  0  0  0  0
   43.3225   13.5208  -14.7600 C   0  0  0  0  0  0  0  0  0  0  0  0
   41.9773   13.4124  -15.0343 C   0  0  0  0  0  0  0  0  0  0  0  0
   40.8304   13.8853  -14.4111 C   0  0  0  0  0  0  0  0  0  0  0  0
   43.2787   11.7512  -17.4381 H   0  0  0  0  0  0  0  0  0  0  0  0
   36.0064   13.8727  -12.5114 C   0  0  0  0  0  0  0  0  0  0  0  0
   36.0407   12.7269  -12.0012 O   0  0  0  0  0  0  0  0  0  0  0  0
   36.0854   15.0000  -11.6717 N   0  0  0  0  0  0  0  0  0  0  0  0
   36.0520   15.9640  -12.0686 H   0  0  0  0  0  0  0  0  0  0  0  0
   36.2101   14.8668  -10.2445 C   0  0  0  0  0  0  0  0  0  0  0  0
   37.6126   15.0620   -9.7364 C   0  0  0  0  0  0  0  0  0  0  0  0
   37.5774   14.6852   -8.2698 C   0  0  0  0  0  0  0  0  0  0  0  0
   36.6953   15.6301   -7.5479 C   0  0  0  0  0  0  0  0  0  0  0  0
   35.3211   15.8407   -8.1108 C   0  0  0  0  0  0  0  0  0  0  0  0
   35.2569   15.8662   -9.6002 C   0  0  0  0  0  0  0  0  0  0  0  0
   36.5535   15.2440   -6.1797 N   0  0  0  0  0  0  0  0  0  0  0  0
   37.6620   14.6031   -5.5669 C   0  0  0  0  0  0  0  0  0  0  0  0
   37.2623   14.3808   -4.0955 C   0  0  0  0  0  0  0  0  0  0  0  0
   36.3543   13.3389   -4.0642 O   0  0  0  0  0  0  0  0  0  0  0  0
   35.6813   13.2020   -5.2836 C   0  0  0  0  0  0  0  0  0  0  0  0
   35.3307   14.5370   -5.9010 C   0  0  0  0  0  0  0  0  0  0  0  0
  1  2  1  0  0  0
  2  3  1  0  0  0
  3  4  1  0  0  0
  4  5  2  0  0  0
  4  7  1  0  0  0
  7  8  2  0  0  0
  8  9  1  0  0  0
  9 10  2  0  0  0
 10 11  1  0  0  0
 11 12  1  0  0  0
 12 13  2  0  0  0
 13 14  1  0  0  0
 14 15  2  0  0  0
  2 17  1  0  0  0
 17 18  2  0  0  0
 17 19  1  0  0  0
 19 21  1  0  0  0
 21 22  1  0  0  0
 22 23  1  0  0  0
 23 24  1  0  0  0
 24 25  1  0  0  0
 25 26  1  0  0  0
 24 27  1  0  0  0
 27 28  1  0  0  0
 28 29  1  0  0  0
 29 30  1  0  0  0
 30 31  1  0  0  0
 31 32  1  0  0  0
 15  7  1  0  0  0
 26 21  1  0  0  0
 32 27  1  0  0  0
 14 10  1  0  0  0
  3  6  1  0  0  0
 11 16  1  0  0  0
 19 20  1  0  0  0
M  END
> <minimizedAffinity>
-7.84957

> <CNNscore>
0.2679128051

> <CNNaffinity>
5.8552360535

> <CNN_VS>
1.5686926842

> <CNNaffinity_variance>
0.0586542413

$$$$
[H]OC(=O)C1([H])C([H])([H])C([H])([H])N(c2nc([H])c([H])nc2Oc2c([H])c([H])c(N([H])c3nc([H])c([H])c([H])c3[H])c([H])c2[H])C([H])([H])C1([H])[H]


 31 34  0  0  0  0  0  0  0  0999 V2000
   40.0689   12.4237  -16.5163 C   0  0  0  0  0  0  0  0  0  0  0  0
   40.3348   11.9105  -17.7370 N   0  0  0  0  0  0  0  0  0  0  0  0
   39.5081   11.0843  -18.4002 C   0  0  0  0  0  0  0  0  0  0  0  0
   38.3207   10.7404  -17.8010 C   0  0  0  0  0  0  0  0  0  0  0  0
   38.0355   11.2384  -16.5882 N   0  0  0  0  0  0  0  0  0  0  0  0
   38.8786   12.0750  -15.9228 C   0  0  0  0  0  0  0  0  0  0  0  0
   42.4027   13.5043  -13.6429 C   0  0  0  0  0  0  0  0  0  0  0  0
   43.2160   13.5807  -14.9214 C   0  0  0  0  0  0  0  0  0  0  0  0
   42.3516   13.2091  -16.0850 C   0  0  0  0  0  0  0  0  0  0  0  0
   40.9442   13.2954  -15.8229 N   0  0  0  0  0  0  0  0  0  0  0  0
   40.3568   14.2262  -14.8838 C   0  0  0  0  0  0  0  0  0  0  0  0
   41.3129   14.5707  -13.7627 C   0  0  0  0  0  0  0  0  0  0  0  0
   43.1214   13.1373  -11.2789 O   0  0  0  0  0  0  0  0  0  0  0  0
   43.2239   13.8608  -12.4585 C   0  0  0  0  0  0  0  0  0  0  0  0
   44.0407   14.8183  -12.4589 O   0  0  0  0  0  0  0  0  0  0  0  0
   42.6010   12.2749  -11.1956 H   0  0  0  0  0  0  0  0  0  0  0  0
   38.5915   12.5927  -14.6709 O   0  0  0  0  0  0  0  0  0  0  0  0
   37.2692   12.9053  -14.3970 C   0  0  0  0  0  0  0  0  0  0  0  0
   36.5154   12.1679  -13.5106 C   0  0  0  0  0  0  0  0  0  0  0  0
   35.2078   12.4627  -13.2277 C   0  0  0  0  0  0  0  0  0  0  0  0
   34.5560   13.5584  -13.8432 C   0  0  0  0  0  0  0  0  0  0  0  0
   35.3024   14.2793  -14.7145 C   0  0  0  0  0  0  0  0  0  0  0  0
   36.6383   13.9686  -14.9954 C   0  0  0  0  0  0  0  0  0  0  0  0
   33.1919   13.7863  -13.5144 N   0  0  0  0  0  0  0  0  0  0  0  0
   32.4434   13.4464  -14.1980 H   0  0  0  0  0  0  0  0  0  0  0  0
   32.7350   14.4315  -12.3493 C   0  0  0  0  0  0  0  0  0  0  0  0
   33.6572   15.2175  -11.6333 C   0  0  0  0  0  0  0  0  0  0  0  0
   33.3051   15.8970  -10.5016 C   0  0  0  0  0  0  0  0  0  0  0  0
   32.0245   15.8194  -10.0415 C   0  0  0  0  0  0  0  0  0  0  0  0
   31.1080   15.0375  -10.7540 C   0  0  0  0  0  0  0  0  0  0  0  0
   31.5138   14.4026  -11.8458 N   0  0  0  0  0  0  0  0  0  0  0  0
 13 14  1  0  0  0
 14 15  2  0  0  0
 14  7  1  0  0  0
  7  8  1  0  0  0
  8  9  1  0  0  0
  9 10  1  0  0  0
 10 11  1  0  0  0
 11 12  1  0  0  0
 10  1  1  0  0  0
  1  2  2  0  0  0
  2  3  1  0  0  0
  3  4  2  0  0  0
  4  5  1  0  0  0
  5  6  2  0  0  0
  6 17  1  0  0  0
 17 18  1  0  0  0
 18 19  2  0  0  0
 19 20  1  0  0  0
 20 21  2  0  0  0
 21 24  1  0  0  0
 24 26  1  0  0  0
 26 27  2  0  0  0
 27 28  1  0  0  0
 28 29  2  0  0  0
 29 30  1  0  0  0
 30 31  2  0  0  0
 21 22  1  0  0  0
 22 23  2  0  0  0
 12  7  1  0  0  0
  6  1  1  0  0  0
 23 18  1  0  0  0
 31 26  1  0  0  0
 13 16  1  0  0  0
 24 25  1  0  0  0
M  END
> <minimizedAffinity>
-7.81828

> <CNNscore>
0.4658078253

> <CNNaffinity>
6.8576912880

> <CNN_VS>
3.1943662167

> <CNNaffinity_variance>
0.1407796890

$$$$
[H]OC(=O)C1([H])C([H])([H])C([H])([H])N(c2nc([H])c([H])nc2Oc2c([H])c([H])c(N([H])c3nc([H])c([H])c([H])c3[H])c([H])c2[H])C([H])([H])C1([H])[H]


 31 34  0  0  0  0  0  0  0  0999 V2000
   35.4606   12.0678  -15.0201 C   0  0  0  0  0  0  0  0  0  0  0  0
   34.6180   11.2591  -15.6985 N   0  0  0  0  0  0  0  0  0  0  0  0
   34.9311   10.6490  -16.8542 C   0  0  0  0  0  0  0  0  0  0  0  0
   36.1836   10.8600  -17.3778 C   0  0  0  0  0  0  0  0  0  0  0  0
   37.0373   11.6597  -16.7207 N   0  0  0  0  0  0  0  0  0  0  0  0
   36.7124   12.2743  -15.5501 C   0  0  0  0  0  0  0  0  0  0  0  0
   35.4613   14.9329  -12.4390 C   0  0  0  0  0  0  0  0  0  0  0  0
   34.0102   14.6473  -12.7776 C   0  0  0  0  0  0  0  0  0  0  0  0
   33.9393   13.5125  -13.7504 C   0  0  0  0  0  0  0  0  0  0  0  0
   35.1249   12.7071  -13.8013 N   0  0  0  0  0  0  0  0  0  0  0  0
   36.0092   12.5057  -12.6740 C   0  0  0  0  0  0  0  0  0  0  0  0
   35.9898   13.6864  -11.7277 C   0  0  0  0  0  0  0  0  0  0  0  0
   34.8552   16.0623  -10.2950 O   0  0  0  0  0  0  0  0  0  0  0  0
   35.5801   16.0584  -11.4782 C   0  0  0  0  0  0  0  0  0  0  0  0
   36.3288   17.0499  -11.6794 O   0  0  0  0  0  0  0  0  0  0  0  0
   34.3235   15.2696   -9.9627 H   0  0  0  0  0  0  0  0  0  0  0  0
   37.5879   13.1011  -14.8664 O   0  0  0  0  0  0  0  0  0  0  0  0
   38.9206   13.0739  -15.2464 C   0  0  0  0  0  0  0  0  0  0  0  0
   39.3213   12.5582  -16.4594 C   0  0  0  0  0  0  0  0  0  0  0  0
   40.6335   12.5237  -16.8514 C   0  0  0  0  0  0  0  0  0  0  0  0
   41.6596   13.0248  -16.0146 C   0  0  0  0  0  0  0  0  0  0  0  0
   41.2593   13.5300  -14.8228 C   0  0  0  0  0  0  0  0  0  0  0  0
   39.9149   13.5603  -14.4331 C   0  0  0  0  0  0  0  0  0  0  0  0
   42.9987   12.9334  -16.4828 N   0  0  0  0  0  0  0  0  0  0  0  0
   43.1678   12.5174  -17.4531 H   0  0  0  0  0  0  0  0  0  0  0  0
   44.1383   13.3487  -15.7678 C   0  0  0  0  0  0  0  0  0  0  0  0
   45.1433   12.3930  -15.5280 C   0  0  0  0  0  0  0  0  0  0  0  0
   46.2938   12.7036  -14.8598 C   0  0  0  0  0  0  0  0  0  0  0  0
   46.4862   13.9745  -14.4065 C   0  0  0  0  0  0  0  0  0  0  0  0
   45.4863   14.9242  -14.6454 C   0  0  0  0  0  0  0  0  0  0  0  0
   44.3924   14.5581  -15.3005 N   0  0  0  0  0  0  0  0  0  0  0  0
 13 14  1  0  0  0
 14 15  2  0  0  0
 14  7  1  0  0  0
  7  8  1  0  0  0
  8  9  1  0  0  0
  9 10  1  0  0  0
 10 11  1  0  0  0
 11 12  1  0  0  0
 10  1  1  0  0  0
  1  2  2  0  0  0
  2  3  1  0  0  0
  3  4  2  0  0  0
  4  5  1  0  0  0
  5  6  2  0  0  0
  6 17  1  0  0  0
 17 18  1  0  0  0
 18 19  2  0  0  0
 19 20  1  0  0  0
 20 21  2  0  0  0
 21 24  1  0  0  0
 24 26  1  0  0  0
 26 27  2  0  0  0
 27 28  1  0  0  0
 28 29  2  0  0  0
 29 30  1  0  0  0
 30 31  2  0  0  0
 21 22  1  0  0  0
 22 23  2  0  0  0
 12  7  1  0  0  0
  6  1  1  0  0  0
 23 18  1  0  0  0
 31 26  1  0  0  0
 13 16  1  0  0  0
 24 25  1  0  0  0
M  END
> <minimizedAffinity>
-9.06419

> <CNNscore>
0.3267419040

> <CNNaffinity>
6.7606415749

> <CNN_VS>
2.2089848518

> <CNNaffinity_variance>
0.1345244050

$$$$
[H]OC(=O)C1([H])C([H])([H])C([H])([H])N(c2nc([H])c([H])nc2Oc2c([H])c([H])c(N([H])c3nc([H])c([H])c([H])c3[H])c([H])c2[H])C([H])([H])C1([H])[H]


 31 34  0  0  0  0  0  0  0  0999 V2000
   45.7479   15.2295  -12.0407 C   0  0  0  0  0  0  0  0  0  0  0  0
   45.6244   16.4538  -11.4838 N   0  0  0  0  0  0  0  0  0  0  0  0
   45.3426   17.5692  -12.1784 C   0  0  0  0  0  0  0  0  0  0  0  0
   45.1695   17.4583  -13.5367 C   0  0  0  0  0  0  0  0  0  0  0  0
   45.2874   16.2517  -14.1113 N   0  0  0  0  0  0  0  0  0  0  0  0
   45.5732   15.1262  -13.4006 C   0  0  0  0  0  0  0  0  0  0  0  0
   46.6591   11.5125  -11.5669 C   0  0  0  0  0  0  0  0  0  0  0  0
   47.7300   12.3209  -10.8587 C   0  0  0  0  0  0  0  0  0  0  0  0
   47.4114   13.7785  -10.9726 C   0  0  0  0  0  0  0  0  0  0  0  0
   46.0438   14.0571  -11.3026 N   0  0  0  0  0  0  0  0  0  0  0  0
   44.9363   13.2059  -10.9257 C   0  0  0  0  0  0  0  0  0  0  0  0
   45.3584   11.7581  -10.8007 C   0  0  0  0  0  0  0  0  0  0  0  0
   46.3765    9.2817  -10.4791 O   0  0  0  0  0  0  0  0  0  0  0  0
   46.9380   10.0567  -11.4838 C   0  0  0  0  0  0  0  0  0  0  0  0
   47.6833    9.4579  -12.3024 O   0  0  0  0  0  0  0  0  0  0  0  0
   45.6652    9.6186   -9.8449 H   0  0  0  0  0  0  0  0  0  0  0  0
   45.6968   13.8776  -13.9865 O   0  0  0  0  0  0  0  0  0  0  0  0
   44.6546   13.4436  -14.7908 C   0  0  0  0  0  0  0  0  0  0  0  0
   44.8782   12.8197  -15.9985 C   0  0  0  0  0  0  0  0  0  0  0  0
   43.8606   12.3840  -16.8056 C   0  0  0  0  0  0  0  0  0  0  0  0
   42.5062   12.5568  -16.4317 C   0  0  0  0  0  0  0  0  0  0  0  0
   42.2928   13.1716  -15.2432 C   0  0  0  0  0  0  0  0  0  0  0  0
   43.3410   13.6123  -14.4265 C   0  0  0  0  0  0  0  0  0  0  0  0
   41.5074   12.0976  -17.3329 N   0  0  0  0  0  0  0  0  0  0  0  0
   41.8045   11.8346  -18.3257 H   0  0  0  0  0  0  0  0  0  0  0  0
   40.1402   11.9583  -17.0265 C   0  0  0  0  0  0  0  0  0  0  0  0
   39.3612   11.1446  -17.8703 C   0  0  0  0  0  0  0  0  0  0  0  0
   38.0304   10.9326  -17.6456 C   0  0  0  0  0  0  0  0  0  0  0  0
   37.4268   11.5216  -16.5748 C   0  0  0  0  0  0  0  0  0  0  0  0
   38.2022   12.3307  -15.7363 C   0  0  0  0  0  0  0  0  0  0  0  0
   39.4897   12.4959  -16.0100 N   0  0  0  0  0  0  0  0  0  0  0  0
 13 14  1  0  0  0
 14 15  2  0  0  0
 14  7  1  0  0  0
  7  8  1  0  0  0
  8  9  1  0  0  0
  9 10  1  0  0  0
 10 11  1  0  0  0
 11 12  1  0  0  0
 10  1  1  0  0  0
  1  2  2  0  0  0
  2  3  1  0  0  0
  3  4  2  0  0  0
  4  5  1  0  0  0
  5  6  2  0  0  0
  6 17  1  0  0  0
 17 18  1  0  0  0
 18 19  2  0  0  0
 19 20  1  0  0  0
 20 21  2  0  0  0
 21 24  1  0  0  0
 24 26  1  0  0  0
 26 27  2  0  0  0
 27 28  1  0  0  0
 28 29  2  0  0  0
 29 30  1  0  0  0
 30 31  2  0  0  0
 21 22  1  0  0  0
 22 23  2  0  0  0
 12  7  1  0  0  0
  6  1  1  0  0  0
 23 18  1  0  0  0
 31 26  1  0  0  0
 13 16  1  0  0  0
 24 25  1  0  0  0
M  END
> <minimizedAffinity>
-7.56956

> <CNNscore>
0.2558770180

> <CNNaffinity>
5.8024578094

> <CNN_VS>
1.4847155809

> <CNNaffinity_variance>
0.1037213430

$$$$
[H]OC(=O)C1([H])C([H])([H])C([H])([H])N(c2nc([H])c([H])nc2Oc2c([H])c([H])c(N([H])c3nc([H])c([H])c([H])c3[H])c([H])c2[H])C([H])([H])C1([H])[H]


 31 34  0  0  0  0  0  0  0  0999 V2000
   38.4016   11.9571  -16.4825 C   0  0  0  0  0  0  0  0  0  0  0  0
   38.0857   10.9686  -17.3470 N   0  0  0  0  0  0  0  0  0  0  0  0
   38.8722   10.5831  -18.3662 C   0  0  0  0  0  0  0  0  0  0  0  0
   40.0699   11.2331  -18.5399 C   0  0  0  0  0  0  0  0  0  0  0  0
   40.4044   12.2183  -17.6929 N   0  0  0  0  0  0  0  0  0  0  0  0
   39.6020   12.6031  -16.6626 C   0  0  0  0  0  0  0  0  0  0  0  0
   37.0956   14.3457  -13.7513 C   0  0  0  0  0  0  0  0  0  0  0  0
   35.9149   14.0114  -14.6435 C   0  0  0  0  0  0  0  0  0  0  0  0
   36.3491   13.0518  -15.7063 C   0  0  0  0  0  0  0  0  0  0  0  0
   37.5686   12.3580  -15.4091 N   0  0  0  0  0  0  0  0  0  0  0  0
   38.0061   12.0396  -14.0673 C   0  0  0  0  0  0  0  0  0  0  0  0
   37.4920   13.0420  -13.0568 C   0  0  0  0  0  0  0  0  0  0  0  0
   35.3784   15.6118  -12.4520 O   0  0  0  0  0  0  0  0  0  0  0  0
   36.7112   15.3018  -12.6825 C   0  0  0  0  0  0  0  0  0  0  0  0
   37.5547   15.8717  -11.9425 O   0  0  0  0  0  0  0  0  0  0  0  0
   34.6078   15.1260  -12.8898 H   0  0  0  0  0  0  0  0  0  0  0  0
   39.9401   13.6192  -15.7846 O   0  0  0  0  0  0  0  0  0  0  0  0
   41.2064   13.5820  -15.2221 C   0  0  0  0  0  0  0  0  0  0  0  0
   41.4325   13.9470  -13.9131 C   0  0  0  0  0  0  0  0  0  0  0  0
   42.6769   13.9160  -13.3409 C   0  0  0  0  0  0  0  0  0  0  0  0
   43.8107   13.5001  -14.0795 C   0  0  0  0  0  0  0  0  0  0  0  0
   43.5820   13.1430  -15.3664 C   0  0  0  0  0  0  0  0  0  0  0  0
   42.3055   13.1785  -15.9403 C   0  0  0  0  0  0  0  0  0  0  0  0
   45.0709   13.5163  -13.4219 N   0  0  0  0  0  0  0  0  0  0  0  0
   45.6992   14.3711  -13.5539 H   0  0  0  0  0  0  0  0  0  0  0  0
   45.5706   12.4878  -12.6003 C   0  0  0  0  0  0  0  0  0  0  0  0
   45.0382   12.3712  -11.3026 C   0  0  0  0  0  0  0  0  0  0  0  0
   45.4447   11.3950  -10.4377 C   0  0  0  0  0  0  0  0  0  0  0  0
   46.3945   10.5002  -10.8316 C   0  0  0  0  0  0  0  0  0  0  0  0
   46.9235   10.6169  -12.1222 C   0  0  0  0  0  0  0  0  0  0  0  0
   46.4857   11.5876  -12.9133 N   0  0  0  0  0  0  0  0  0  0  0  0
 13 14  1  0  0  0
 14 15  2  0  0  0
 14  7  1  0  0  0
  7  8  1  0  0  0
  8  9  1  0  0  0
  9 10  1  0  0  0
 10 11  1  0  0  0
 11 12  1  0  0  0
 10  1  1  0  0  0
  1  2  2  0  0  0
  2  3  1  0  0  0
  3  4  2  0  0  0
  4  5  1  0  0  0
  5  6  2  0  0  0
  6 17  1  0  0  0
 17 18  1  0  0  0
 18 19  2  0  0  0
 19 20  1  0  0  0
 20 21  2  0  0  0
 21 24  1  0  0  0
 24 26  1  0  0  0
 26 27  2  0  0  0
 27 28  1  0  0  0
 28 29  2  0  0  0
 29 30  1  0  0  0
 30 31  2  0  0  0
 21 22  1  0  0  0
 22 23  2  0  0  0
 12  7  1  0  0  0
  6  1  1  0  0  0
 23 18  1  0  0  0
 31 26  1  0  0  0
 13 16  1  0  0  0
 24 25  1  0  0  0
M  END
> <minimizedAffinity>
-8.19863

> <CNNscore>
0.2381063253

> <CNNaffinity>
6.5491380692

> <CNN_VS>
1.5593911409

> <CNNaffinity_variance>
0.0885648504

$$$$
[H]OC(=O)C1([H])C([H])([H])C([H])([H])N(c2nc([H])c([H])nc2Oc2c([H])c([H])c(N([H])c3nc([H])c([H])c([H])c3[H])c([H])c2[H])C([H])([H])C1([H])[H]


 31 34  0  0  0  0  0  0  0  0999 V2000
   38.3434   11.9655  -16.5652 C   0  0  0  0  0  0  0  0  0  0  0  0
   37.9585   10.9902  -17.4167 N   0  0  0  0  0  0  0  0  0  0  0  0
   38.6825   10.5895  -18.4754 C   0  0  0  0  0  0  0  0  0  0  0  0
   39.8870   11.2085  -18.7063 C   0  0  0  0  0  0  0  0  0  0  0  0
   40.2896   12.1800  -17.8732 N   0  0  0  0  0  0  0  0  0  0  0  0
   39.5501   12.5804  -16.8026 C   0  0  0  0  0  0  0  0  0  0  0  0
   37.2290   14.3795  -13.7722 C   0  0  0  0  0  0  0  0  0  0  0  0
   35.9967   14.0674  -14.6003 C   0  0  0  0  0  0  0  0  0  0  0  0
   36.3559   13.0992  -15.6832 C   0  0  0  0  0  0  0  0  0  0  0  0
   37.5760   12.3825  -15.4498 N   0  0  0  0  0  0  0  0  0  0  0  0
   38.0777   12.0565  -14.1325 C   0  0  0  0  0  0  0  0  0  0  0  0
   37.6368   13.0688  -13.0978 C   0  0  0  0  0  0  0  0  0  0  0  0
   35.6140   15.7448  -12.4426 O   0  0  0  0  0  0  0  0  0  0  0  0
   36.9197   15.3432  -12.6860 C   0  0  0  0  0  0  0  0  0  0  0  0
   37.8057   15.8385  -11.9419 O   0  0  0  0  0  0  0  0  0  0  0  0
   34.8082   15.3231  -12.8836 H   0  0  0  0  0  0  0  0  0  0  0  0
   39.9587   13.5825  -15.9385 O   0  0  0  0  0  0  0  0  0  0  0  0
   41.2156   13.4598  -15.3671 C   0  0  0  0  0  0  0  0  0  0  0  0
   42.2964   12.9889  -16.0797 C   0  0  0  0  0  0  0  0  0  0  0  0
   43.5453   12.8616  -15.5313 C   0  0  0  0  0  0  0  0  0  0  0  0
   43.7905   13.2137  -14.1823 C   0  0  0  0  0  0  0  0  0  0  0  0
   42.7234   13.6756  -13.4865 C   0  0  0  0  0  0  0  0  0  0  0  0
   41.4515   13.8017  -14.0579 C   0  0  0  0  0  0  0  0  0  0  0  0
   45.1080   13.0324  -13.6802 N   0  0  0  0  0  0  0  0  0  0  0  0
   45.2272   12.5364  -12.7406 H   0  0  0  0  0  0  0  0  0  0  0  0
   46.2867   13.4568  -14.3228 C   0  0  0  0  0  0  0  0  0  0  0  0
   46.6678   14.8026  -14.1664 C   0  0  0  0  0  0  0  0  0  0  0  0
   47.8041   15.3046  -14.7351 C   0  0  0  0  0  0  0  0  0  0  0  0
   48.6015   14.4872  -15.4792 C   0  0  0  0  0  0  0  0  0  0  0  0
   48.2217   13.1491  -15.6343 C   0  0  0  0  0  0  0  0  0  0  0  0
   47.1061   12.7241  -15.0559 N   0  0  0  0  0  0  0  0  0  0  0  0
 13 14  1  0  0  0
 14 15  2  0  0  0
 14  7  1  0  0  0
  7  8  1  0  0  0
  8  9  1  0  0  0
  9 10  1  0  0  0
 10 11  1  0  0  0
 11 12  1  0  0  0
 10  1  1  0  0  0
  1  2  2  0  0  0
  2  3  1  0  0  0
  3  4  2  0  0  0
  4  5  1  0  0  0
  5  6  2  0  0  0
  6 17  1  0  0  0
 17 18  1  0  0  0
 18 19  2  0  0  0
 19 20  1  0  0  0
 20 21  2  0  0  0
 21 24  1  0  0  0
 24 26  1  0  0  0
 26 27  2  0  0  0
 27 28  1  0  0  0
 28 29  2  0  0  0
 29 30  1  0  0  0
 30 31  2  0  0  0
 21 22  1  0  0  0
 22 23  2  0  0  0
 12  7  1  0  0  0
  6  1  1  0  0  0
 23 18  1  0  0  0
 31 26  1  0  0  0
 13 16  1  0  0  0
 24 25  1  0  0  0
M  END
> <minimizedAffinity>
-8.07387

> <CNNscore>
0.2289878279

> <CNNaffinity>
6.5121016502

> <CNN_VS>
1.4911919832

> <CNNaffinity_variance>
0.1123670340

$$$$
[H]OC(=O)C1([H])C([H])([H])C([H])([H])N(c2nc([H])c([H])nc2Oc2c([H])c([H])c(N([H])c3nc([H])c([H])c([H])c3[H])c([H])c2[H])C([H])([H])C1([H])[H]


 31 34  0  0  0  0  0  0  0  0999 V2000
   42.6907   15.1072  -11.4913 C   0  0  0  0  0  0  0  0  0  0  0  0
   42.1774   15.6709  -10.3764 N   0  0  0  0  0  0  0  0  0  0  0  0
   40.9823   16.2834  -10.3271 C   0  0  0  0  0  0  0  0  0  0  0  0
   40.2371   16.3400  -11.4798 C   0  0  0  0  0  0  0  0  0  0  0  0
   40.7273   15.7866  -12.5994 N   0  0  0  0  0  0  0  0  0  0  0  0
   41.9392   15.1678  -12.6411 C   0  0  0  0  0  0  0  0  0  0  0  0
   45.6128   13.2175  -13.1529 C   0  0  0  0  0  0  0  0  0  0  0  0
   46.1953   14.4796  -12.5451 C   0  0  0  0  0  0  0  0  0  0  0  0
   45.1132   15.2422  -11.8474 C   0  0  0  0  0  0  0  0  0  0  0  0
   43.9509   14.4617  -11.5364 N   0  0  0  0  0  0  0  0  0  0  0  0
   43.9855   13.0412  -11.2640 C   0  0  0  0  0  0  0  0  0  0  0  0
   45.1302   12.3599  -11.9820 C   0  0  0  0  0  0  0  0  0  0  0  0
   46.7037   12.4059  -15.2483 O   0  0  0  0  0  0  0  0  0  0  0  0
   46.6526   12.4300  -13.8619 C   0  0  0  0  0  0  0  0  0  0  0  0
   47.5264   11.7552  -13.2576 O   0  0  0  0  0  0  0  0  0  0  0  0
   46.1426   13.0043  -15.8387 H   0  0  0  0  0  0  0  0  0  0  0  0
   42.4519   14.5945  -13.7927 O   0  0  0  0  0  0  0  0  0  0  0  0
   41.5832   13.8539  -14.5788 C   0  0  0  0  0  0  0  0  0  0  0  0
   40.2726   13.6397  -14.2122 C   0  0  0  0  0  0  0  0  0  0  0  0
   39.4003   12.9109  -14.9768 C   0  0  0  0  0  0  0  0  0  0  0  0
   39.8100   12.3322  -16.2021 C   0  0  0  0  0  0  0  0  0  0  0  0
   41.1002   12.5458  -16.5569 C   0  0  0  0  0  0  0  0  0  0  0  0
   41.9825   13.2929  -15.7673 C   0  0  0  0  0  0  0  0  0  0  0  0
   38.8526   11.5718  -16.9274 N   0  0  0  0  0  0  0  0  0  0  0  0
   39.1927   10.9900  -17.7573 H   0  0  0  0  0  0  0  0  0  0  0  0
   37.4746   11.5190  -16.6432 C   0  0  0  0  0  0  0  0  0  0  0  0
   37.0018   12.2793  -15.5572 C   0  0  0  0  0  0  0  0  0  0  0  0
   35.6797   12.3080  -15.2140 C   0  0  0  0  0  0  0  0  0  0  0  0
   34.7810   11.5824  -15.9376 C   0  0  0  0  0  0  0  0  0  0  0  0
   35.2520   10.8265  -17.0173 C   0  0  0  0  0  0  0  0  0  0  0  0
   36.5484   10.8416  -17.2983 N   0  0  0  0  0  0  0  0  0  0  0  0
 13 14  1  0  0  0
 14 15  2  0  0  0
 14  7  1  0  0  0
  7  8  1  0  0  0
  8  9  1  0  0  0
  9 10  1  0  0  0
 10 11  1  0  0  0
 11 12  1  0  0  0
 10  1  1  0  0  0
  1  2  2  0  0  0
  2  3  1  0  0  0
  3  4  2  0  0  0
  4  5  1  0  0  0
  5  6  2  0  0  0
  6 17  1  0  0  0
 17 18  1  0  0  0
 18 19  2  0  0  0
 19 20  1  0  0  0
 20 21  2  0  0  0
 21 24  1  0  0  0
 24 26  1  0  0  0
 26 27  2  0  0  0
 27 28  1  0  0  0
 28 29  2  0  0  0
 29 30  1  0  0  0
 30 31  2  0  0  0
 21 22  1  0  0  0
 22 23  2  0  0  0
 12  7  1  0  0  0
  6  1  1  0  0  0
 23 18  1  0  0  0
 31 26  1  0  0  0
 13 16  1  0  0  0
 24 25  1  0  0  0
M  END
> <minimizedAffinity>
-7.92150

> <CNNscore>
0.1795870513

> <CNNaffinity>
6.0079121590

> <CNN_VS>
1.0789432526

> <CNNaffinity_variance>
0.1042021140

$$$$
[H]OC(=O)C1([H])C([H])([H])C([H])([H])N(c2nc([H])c([H])nc2Oc2c([H])c([H])c(N([H])c3nc([H])c([H])c([H])c3[H])c([H])c2[H])C([H])([H])C1([H])[H]


 31 34  0  0  0  0  0  0  0  0999 V2000
   34.0691   18.3089   -5.5024 C   0  0  0  0  0  0  0  0  0  0  0  0
   33.3327   19.3743   -5.1190 N   0  0  0  0  0  0  0  0  0  0  0  0
   33.3363   20.5575   -5.7561 C   0  0  0  0  0  0  0  0  0  0  0  0
   34.1368   20.6923   -6.8644 C   0  0  0  0  0  0  0  0  0  0  0  0
   34.8770   19.6469   -7.2635 N   0  0  0  0  0  0  0  0  0  0  0  0
   34.8679   18.4513   -6.6124 C   0  0  0  0  0  0  0  0  0  0  0  0
   35.2440   14.7155   -4.7424 C   0  0  0  0  0  0  0  0  0  0  0  0
   35.3720   15.5016   -3.4511 C   0  0  0  0  0  0  0  0  0  0  0  0
   34.8921   16.9019   -3.6703 C   0  0  0  0  0  0  0  0  0  0  0  0
   34.0599   17.0636   -4.8271 N   0  0  0  0  0  0  0  0  0  0  0  0
   33.2034   16.0230   -5.3533 C   0  0  0  0  0  0  0  0  0  0  0  0
   33.7486   14.6433   -5.0550 C   0  0  0  0  0  0  0  0  0  0  0  0
   36.2350   12.8853   -3.3610 O   0  0  0  0  0  0  0  0  0  0  0  0
   35.7151   13.3178   -4.5727 C   0  0  0  0  0  0  0  0  0  0  0  0
   35.6701   12.4665   -5.4985 O   0  0  0  0  0  0  0  0  0  0  0  0
   36.2044   13.4332   -2.5123 H   0  0  0  0  0  0  0  0  0  0  0  0
   35.6292   17.3680   -7.0181 O   0  0  0  0  0  0  0  0  0  0  0  0
   35.4354   16.8984   -8.3078 C   0  0  0  0  0  0  0  0  0  0  0  0
   36.4224   16.9741   -9.2660 C   0  0  0  0  0  0  0  0  0  0  0  0
   36.2485   16.5149  -10.5449 C   0  0  0  0  0  0  0  0  0  0  0  0
   35.0250   15.9301  -10.9514 C   0  0  0  0  0  0  0  0  0  0  0  0
   34.0581   15.8591  -10.0048 C   0  0  0  0  0  0  0  0  0  0  0  0
   34.2475   16.3316   -8.7005 C   0  0  0  0  0  0  0  0  0  0  0  0
   34.9147   15.4977  -12.3010 N   0  0  0  0  0  0  0  0  0  0  0  0
   34.1995   15.9826  -12.9305 H   0  0  0  0  0  0  0  0  0  0  0  0
   35.6768   14.4698  -12.8886 C   0  0  0  0  0  0  0  0  0  0  0  0
   35.6176   13.1935  -12.2983 C   0  0  0  0  0  0  0  0  0  0  0  0
   36.3061   12.1280  -12.8055 C   0  0  0  0  0  0  0  0  0  0  0  0
   37.0777   12.2932  -13.9169 C   0  0  0  0  0  0  0  0  0  0  0  0
   37.1361   13.5628  -14.5032 C   0  0  0  0  0  0  0  0  0  0  0  0
   36.4433   14.5559  -13.9613 N   0  0  0  0  0  0  0  0  0  0  0  0
 13 14  1  0  0  0
 14 15  2  0  0  0
 14  7  1  0  0  0
  7  8  1  0  0  0
  8  9  1  0  0  0
  9 10  1  0  0  0
 10 11  1  0  0  0
 11 12  1  0  0  0
 10  1  1  0  0  0
  1  2  2  0  0  0
  2  3  1  0  0  0
  3  4  2  0  0  0
  4  5  1  0  0  0
  5  6  2  0  0  0
  6 17  1  0  0  0
 17 18  1  0  0  0
 18 19  2  0  0  0
 19 20  1  0  0  0
 20 21  2  0  0  0
 21 24  1  0  0  0
 24 26  1  0  0  0
 26 27  2  0  0  0
 27 28  1  0  0  0
 28 29  2  0  0  0
 29 30  1  0  0  0
 30 31  2  0  0  0
 21 22  1  0  0  0
 22 23  2  0  0  0
 12  7  1  0  0  0
  6  1  1  0  0  0
 23 18  1  0  0  0
 31 26  1  0  0  0
 13 16  1  0  0  0
 24 25  1  0  0  0
M  END
> <minimizedAffinity>
-6.50494

> <CNNscore>
0.1167250723

> <CNNaffinity>
5.3501710892

> <CNN_VS>
0.6244990826

> <CNNaffinity_variance>
0.1834920198

$$$$
[H]OC(=O)C1([H])C([H])([H])C([H])([H])N(c2nc([H])c([H])nc2Oc2c([H])c([H])c(N([H])c3nc([H])c([H])c([H])c3[H])c([H])c2[H])C([H])([H])C1([H])[H]


 31 34  0  0  0  0  0  0  0  0999 V2000
   38.0963   12.2861  -15.5614 C   0  0  0  0  0  0  0  0  0  0  0  0
   37.4886   11.5482  -16.5156 N   0  0  0  0  0  0  0  0  0  0  0  0
   38.1303   10.9947  -17.5586 C   0  0  0  0  0  0  0  0  0  0  0  0
   39.4862   11.1908  -17.6611 C   0  0  0  0  0  0  0  0  0  0  0  0
   40.1108   11.9205  -16.7243 N   0  0  0  0  0  0  0  0  0  0  0  0
   39.4534   12.4780  -15.6706 C   0  0  0  0  0  0  0  0  0  0  0  0
   35.0331   13.6194  -13.6352 C   0  0  0  0  0  0  0  0  0  0  0  0
   35.6550   12.5355  -12.7750 C   0  0  0  0  0  0  0  0  0  0  0  0
   36.8778   12.0016  -13.4523 C   0  0  0  0  0  0  0  0  0  0  0  0
   37.4142   12.8658  -14.4635 N   0  0  0  0  0  0  0  0  0  0  0  0
   37.2998   14.3078  -14.4322 C   0  0  0  0  0  0  0  0  0  0  0  0
   36.0544   14.7561  -13.6988 C   0  0  0  0  0  0  0  0  0  0  0  0
   32.5494   13.8198  -13.4597 O   0  0  0  0  0  0  0  0  0  0  0  0
   33.8105   14.1756  -13.0029 C   0  0  0  0  0  0  0  0  0  0  0  0
   33.8493   14.9832  -12.0384 O   0  0  0  0  0  0  0  0  0  0  0  0
   32.3863   13.0872  -14.1366 H   0  0  0  0  0  0  0  0  0  0  0  0
   40.0910   13.2325  -14.7001 O   0  0  0  0  0  0  0  0  0  0  0  0
   41.4635   13.3902  -14.8131 C   0  0  0  0  0  0  0  0  0  0  0  0
   42.2592   13.6481  -13.7186 C   0  0  0  0  0  0  0  0  0  0  0  0
   43.6168   13.8064  -13.8118 C   0  0  0  0  0  0  0  0  0  0  0  0
   44.2797   13.7110  -15.0590 C   0  0  0  0  0  0  0  0  0  0  0  0
   43.4916   13.4578  -16.1318 C   0  0  0  0  0  0  0  0  0  0  0  0
   42.1049   13.2976  -16.0242 C   0  0  0  0  0  0  0  0  0  0  0  0
   45.6873   13.9090  -15.0768 N   0  0  0  0  0  0  0  0  0  0  0  0
   46.2858   13.2330  -15.6494 H   0  0  0  0  0  0  0  0  0  0  0  0
   46.3712   14.9332  -14.3944 C   0  0  0  0  0  0  0  0  0  0  0  0
   45.9598   16.2594  -14.6245 C   0  0  0  0  0  0  0  0  0  0  0  0
   46.5487   17.3200  -13.9960 C   0  0  0  0  0  0  0  0  0  0  0  0
   47.5669   17.1002  -13.1170 C   0  0  0  0  0  0  0  0  0  0  0  0
   47.9754   15.7812  -12.8888 C   0  0  0  0  0  0  0  0  0  0  0  0
   47.3621   14.7958  -13.5313 N   0  0  0  0  0  0  0  0  0  0  0  0
 13 14  1  0  0  0
 14 15  2  0  0  0
 14  7  1  0  0  0
  7  8  1  0  0  0
  8  9  1  0  0  0
  9 10  1  0  0  0
 10 11  1  0  0  0
 11 12  1  0  0  0
 10  1  1  0  0  0
  1  2  2  0  0  0
  2  3  1  0  0  0
  3  4  2  0  0  0
  4  5  1  0  0  0
  5  6  2  0  0  0
  6 17  1  0  0  0
 17 18  1  0  0  0
 18 19  2  0  0  0
 19 20  1  0  0  0
 20 21  2  0  0  0
 21 24  1  0  0  0
 24 26  1  0  0  0
 26 27  2  0  0  0
 27 28  1  0  0  0
 28 29  2  0  0  0
 29 30  1  0  0  0
 30 31  2  0  0  0
 21 22  1  0  0  0
 22 23  2  0  0  0
 12  7  1  0  0  0
  6  1  1  0  0  0
 23 18  1  0  0  0
 31 26  1  0  0  0
 13 16  1  0  0  0
 24 25  1  0  0  0
M  END
> <minimizedAffinity>
-7.74960

> <CNNscore>
0.1051776931

> <CNNaffinity>
6.2049808502

> <CNN_VS>
0.6526255608

> <CNNaffinity_variance>
0.0733902529

$$$$
[H]OC(=O)C1([H])C([H])([H])C([H])([H])N(c2nc([H])c([H])nc2Oc2c([H])c([H])c(N([H])c3nc([H])c([H])c([H])c3[H])c([H])c2[H])C([H])([H])C1([H])[H]


 31 34  0  0  0  0  0  0  0  0999 V2000
   36.7930   18.5036   -6.0907 C   0  0  0  0  0  0  0  0  0  0  0  0
   37.1267   19.7550   -5.7074 N   0  0  0  0  0  0  0  0  0  0  0  0
   36.4384   20.8554   -6.0557 C   0  0  0  0  0  0  0  0  0  0  0  0
   35.3282   20.6988   -6.8496 C   0  0  0  0  0  0  0  0  0  0  0  0
   34.9778   19.4647   -7.2423 N   0  0  0  0  0  0  0  0  0  0  0  0
   35.6806   18.3548   -6.8851 C   0  0  0  0  0  0  0  0  0  0  0  0
   37.7821   14.7789   -6.2273 C   0  0  0  0  0  0  0  0  0  0  0  0
   39.0418   15.5781   -6.5032 C   0  0  0  0  0  0  0  0  0  0  0  0
   38.7319   17.0400   -6.4253 C   0  0  0  0  0  0  0  0  0  0  0  0
   37.5221   17.3474   -5.7189 N   0  0  0  0  0  0  0  0  0  0  0  0
   36.9940   16.5412   -4.6399 C   0  0  0  0  0  0  0  0  0  0  0  0
   37.3859   15.0865   -4.7825 C   0  0  0  0  0  0  0  0  0  0  0  0
   37.0227   12.4301   -6.6097 O   0  0  0  0  0  0  0  0  0  0  0  0
   38.0421   13.3190   -6.2997 C   0  0  0  0  0  0  0  0  0  0  0  0
   39.1771   12.8178   -6.0883 O   0  0  0  0  0  0  0  0  0  0  0  0
   36.1063   12.7182   -6.9239 H   0  0  0  0  0  0  0  0  0  0  0  0
   35.3254   17.0779   -7.2867 O   0  0  0  0  0  0  0  0  0  0  0  0
   35.4805   16.7640   -8.6279 C   0  0  0  0  0  0  0  0  0  0  0  0
   36.6194   17.0987   -9.3269 C   0  0  0  0  0  0  0  0  0  0  0  0
   36.7897   16.7961  -10.6521 C   0  0  0  0  0  0  0  0  0  0  0  0
   35.7863   16.1130  -11.3806 C   0  0  0  0  0  0  0  0  0  0  0  0
   34.6683   15.7871  -10.6877 C   0  0  0  0  0  0  0  0  0  0  0  0
   34.5057   16.1015   -9.3332 C   0  0  0  0  0  0  0  0  0  0  0  0
   36.0284   15.8547  -12.7573 N   0  0  0  0  0  0  0  0  0  0  0  0
   35.6423   16.5448  -13.4768 H   0  0  0  0  0  0  0  0  0  0  0  0
   36.7425   14.7513  -13.2625 C   0  0  0  0  0  0  0  0  0  0  0  0
   35.9994   13.6629  -13.7567 C   0  0  0  0  0  0  0  0  0  0  0  0
   36.6004   12.5551  -14.2839 C   0  0  0  0  0  0  0  0  0  0  0  0
   37.9608   12.4896  -14.3386 C   0  0  0  0  0  0  0  0  0  0  0  0
   38.6989   13.5723  -13.8468 C   0  0  0  0  0  0  0  0  0  0  0  0
   38.0543   14.6187  -13.3475 N   0  0  0  0  0  0  0  0  0  0  0  0
 13 14  1  0  0  0
 14 15  2  0  0  0
 14  7  1  0  0  0
  7  8  1  0  0  0
  8  9  1  0  0  0
  9 10  1  0  0  0
 10 11  1  0  0  0
 11 12  1  0  0  0
 10  1  1  0  0  0
  1  2  2  0  0  0
  2  3  1  0  0  0
  3  4  2  0  0  0
  4  5  1  0  0  0
  5  6  2  0  0  0
  6 17  1  0  0  0
 17 18  1  0  0  0
 18 19  2  0  0  0
 19 20  1  0  0  0
 20 21  2  0  0  0
 21 24  1  0  0  0
 24 26  1  0  0  0
 26 27  2  0  0  0
 27 28  1  0  0  0
 28 29  2  0  0  0
 29 30  1  0  0  0
 30 31  2  0  0  0
 21 22  1  0  0  0
 22 23  2  0  0  0
 12  7  1  0  0  0
  6  1  1  0  0  0
 23 18  1  0  0  0
 31 26  1  0  0  0
 13 16  1  0  0  0
 24 25  1  0  0  0
M  END
> <minimizedAffinity>
-6.79277

> <CNNscore>
0.0853587687

> <CNNaffinity>
5.1580114365

> <CNN_VS>
0.4402815104

> <CNNaffinity_variance>
0.4568779469

$$$$
[H]N=C(N([H])[H])N([H])C([H])([H])C([H])([H])C([H])([H])[C@@]([H])(C([H])=O)N([H])C(=O)[C@@]1([H])N(C(=O)[C@@]([H])(N([H])C(=O)OC(C([H])([H])[H])(C([H])([H])[H])C([H])([H])[H])C([H])([H])C([H])([H])C(=O)O[H])C([H])([H])C([H])([H])C1([H])[H]


 41 41  0  0  0  0  0  0  0  0999 V2000
   38.1153   12.9401  -13.7599 C   0  0  0  0  0  0  0  0  0  0  0  0
   38.0853   11.6286  -13.7055 O   0  0  0  0  0  0  0  0  0  0  0  0
   37.0188   13.5553  -13.1518 N   0  0  0  0  0  0  0  0  0  0  0  0
   35.9730   12.7554  -12.4429 C   0  0  0  0  0  0  0  0  0  0  0  0
   34.7040   13.3308  -13.0322 C   0  0  0  0  0  0  0  0  0  0  0  0
   35.0470   14.7600  -13.2751 C   0  0  0  0  0  0  0  0  0  0  0  0
   36.5330   14.8955  -13.0051 C   0  0  0  0  0  0  0  0  0  0  0  0
   36.8249   15.4576  -11.6604 C   0  0  0  0  0  0  0  0  0  0  0  0
   36.1075   15.1538  -10.6772 O   0  0  0  0  0  0  0  0  0  0  0  0
   37.9078   16.3480  -11.4285 N   0  0  0  0  0  0  0  0  0  0  0  0
   38.5314   16.6289  -12.2189 H   0  0  0  0  0  0  0  0  0  0  0  0
   38.2111   16.9062  -10.1349 C   0  0  0  0  0  0  0  0  0  0  0  0
   38.7608   15.8925   -9.2244 C   0  0  0  0  0  0  0  0  0  0  0  0
   39.7291   15.1869   -9.5261 O   0  0  0  0  0  0  0  0  0  0  0  0
   37.1458   17.7439   -9.5347 C   0  0  0  0  0  0  0  0  0  0  0  0
   37.4880   18.6119   -8.3907 C   0  0  0  0  0  0  0  0  0  0  0  0
   37.7134   20.0553   -8.6556 C   0  0  0  0  0  0  0  0  0  0  0  0
   37.1481   20.8304   -7.5694 N   0  0  0  0  0  0  0  0  0  0  0  0
   37.7743   21.3658   -6.9467 H   0  0  0  0  0  0  0  0  0  0  0  0
   35.7526   20.8745   -7.3359 C   0  0  0  0  0  0  0  0  0  0  0  0
   35.2241   20.3330   -6.1179 N   0  0  0  0  0  0  0  0  0  0  0  0
   34.9048   21.3797   -8.1647 N   0  0  0  0  0  0  0  0  0  0  0  0
   35.8054   20.5123   -5.2504 H   0  0  0  0  0  0  0  0  0  0  0  0
   34.3361   19.8034   -6.0877 H   0  0  0  0  0  0  0  0  0  0  0  0
   35.2557   21.7899   -9.0776 H   0  0  0  0  0  0  0  0  0  0  0  0
   39.2802   13.5164  -14.4407 C   0  0  0  0  0  0  0  0  0  0  0  0
   40.7168   15.0575  -13.0240 C   0  0  0  0  0  0  0  0  0  0  0  0
   40.0495   16.0562  -13.4313 O   0  0  0  0  0  0  0  0  0  0  0  0
   40.3711   13.7613  -13.5001 N   0  0  0  0  0  0  0  0  0  0  0  0
   40.9571   12.9647  -13.1311 H   0  0  0  0  0  0  0  0  0  0  0  0
   41.7336   15.2981  -12.1456 O   0  0  0  0  0  0  0  0  0  0  0  0
   43.4800   16.8142  -12.8083 C   0  0  0  0  0  0  0  0  0  0  0  0
   43.0959   15.3710  -12.5235 C   0  0  0  0  0  0  0  0  0  0  0  0
   43.9361   14.8961  -11.3623 C   0  0  0  0  0  0  0  0  0  0  0  0
   43.4081   14.5322  -13.7205 C   0  0  0  0  0  0  0  0  0  0  0  0
   39.7472   12.8529  -15.6890 C   0  0  0  0  0  0  0  0  0  0  0  0
   40.9974   13.5673  -16.2425 C   0  0  0  0  0  0  0  0  0  0  0  0
   41.8647   12.5859  -16.9342 C   0  0  0  0  0  0  0  0  0  0  0  0
   41.4818   12.0854  -18.1511 O   0  0  0  0  0  0  0  0  0  0  0  0
   42.9487   12.2254  -16.3868 O   0  0  0  0  0  0  0  0  0  0  0  0
   40.7011   11.4418  -18.2346 H   0  0  0  0  0  0  0  0  0  0  0  0
 32 33  1  0  0  0
 33 34  1  0  0  0
 33 35  1  0  0  0
 33 31  1  0  0  0
 31 27  1  0  0  0
 27 28  2  0  0  0
 27 29  1  0  0  0
 29 26  1  0  0  0
 26 36  1  0  0  0
 36 37  1  0  0  0
 37 38  1  0  0  0
 38 39  1  0  0  0
 38 40  2  0  0  0
 26  1  1  0  0  0
  1  2  2  0  0  0
  1  3  1  0  0  0
  3  4  1  0  0  0
  4  5  1  0  0  0
  5  6  1  0  0  0
  6  7  1  0  0  0
  7  8  1  0  0  0
  8  9  2  0  0  0
  8 10  1  0  0  0
 10 12  1  0  0  0
 12 15  1  0  0  0
 15 16  1  0  0  0
 16 17  1  0  0  0
 17 18  1  0  0  0
 18 20  1  0  0  0
 20 21  1  0  0  0
 20 22  2  0  0  0
 12 13  1  0  0  0
 13 14  2  0  0  0
  7  3  1  0  0  0
 29 30  1  0  0  0
 39 41  1  0  0  0
 10 11  1  0  0  0
 18 19  1  0  0  0
 21 23  1  0  0  0
 21 24  1  0  0  0
 22 25  1  0  0  0
M  END
> <minimizedAffinity>
-6.13763

> <CNNscore>
0.5891826153

> <CNNaffinity>
6.1938095093

> <CNN_VS>
3.6492848396

> <CNNaffinity_variance>
0.1223461851

$$$$
[H]N=C(N([H])[H])N([H])C([H])([H])C([H])([H])C([H])([H])[C@@]([H])(C([H])=O)N([H])C(=O)[C@@]1([H])N(C(=O)[C@@]([H])(N([H])C(=O)OC(C([H])([H])[H])(C([H])([H])[H])C([H])([H])[H])C([H])([H])C([H])([H])C(=O)O[H])C([H])([H])C([H])([H])C1([H])[H]


 41 41  0  0  0  0  0  0  0  0999 V2000
   36.8849   13.4911  -13.3401 C   0  0  0  0  0  0  0  0  0  0  0  0
   37.5253   12.3656  -13.1228 O   0  0  0  0  0  0  0  0  0  0  0  0
   35.5053   13.3350  -13.4921 N   0  0  0  0  0  0  0  0  0  0  0  0
   34.8516   11.9998  -13.3308 C   0  0  0  0  0  0  0  0  0  0  0  0
   33.9904   11.9350  -14.5729 C   0  0  0  0  0  0  0  0  0  0  0  0
   33.5973   13.3537  -14.8013 C   0  0  0  0  0  0  0  0  0  0  0  0
   34.3965   14.1833  -13.8151 C   0  0  0  0  0  0  0  0  0  0  0  0
   33.6094   14.5653  -12.6135 C   0  0  0  0  0  0  0  0  0  0  0  0
   34.1568   15.1790  -11.6661 O   0  0  0  0  0  0  0  0  0  0  0  0
   32.2279   14.2598  -12.4822 N   0  0  0  0  0  0  0  0  0  0  0  0
   31.7310   13.7491  -13.2469 H   0  0  0  0  0  0  0  0  0  0  0  0
   31.4434   14.6192  -11.3278 C   0  0  0  0  0  0  0  0  0  0  0  0
   30.0259   14.7958  -11.6715 C   0  0  0  0  0  0  0  0  0  0  0  0
   29.1146   14.3099  -10.9932 O   0  0  0  0  0  0  0  0  0  0  0  0
   32.0021   15.7059  -10.4889 C   0  0  0  0  0  0  0  0  0  0  0  0
   31.6814   15.7238   -9.0480 C   0  0  0  0  0  0  0  0  0  0  0  0
   32.2124   16.8440   -8.2310 C   0  0  0  0  0  0  0  0  0  0  0  0
   31.1211   17.7272   -7.8713 N   0  0  0  0  0  0  0  0  0  0  0  0
   30.2036   17.6163   -8.3323 H   0  0  0  0  0  0  0  0  0  0  0  0
   31.2784   18.7449   -6.8999 C   0  0  0  0  0  0  0  0  0  0  0  0
   30.3532   18.8257   -5.8073 N   0  0  0  0  0  0  0  0  0  0  0  0
   32.2189   19.6252   -6.9328 N   0  0  0  0  0  0  0  0  0  0  0  0
   30.0453   17.8963   -5.4023 H   0  0  0  0  0  0  0  0  0  0  0  0
   30.0097   19.7293   -5.4395 H   0  0  0  0  0  0  0  0  0  0  0  0
   32.9233   19.5999   -7.7253 H   0  0  0  0  0  0  0  0  0  0  0  0
   37.7224   14.6949  -13.3835 C   0  0  0  0  0  0  0  0  0  0  0  0
   37.4407   15.5310  -11.0029 C   0  0  0  0  0  0  0  0  0  0  0  0
   38.0108   14.4854  -10.5667 O   0  0  0  0  0  0  0  0  0  0  0  0
   37.2714   15.6847  -12.4079 N   0  0  0  0  0  0  0  0  0  0  0  0
   36.7913   16.5718  -12.7187 H   0  0  0  0  0  0  0  0  0  0  0  0
   37.0235   16.4487  -10.0824 O   0  0  0  0  0  0  0  0  0  0  0  0
   37.8689   16.6913   -7.8433 C   0  0  0  0  0  0  0  0  0  0  0  0
   37.9052   17.2053   -9.2737 C   0  0  0  0  0  0  0  0  0  0  0  0
   39.3096   17.0106   -9.7927 C   0  0  0  0  0  0  0  0  0  0  0  0
   37.5855   18.6653   -9.2813 C   0  0  0  0  0  0  0  0  0  0  0  0
   39.1993   14.5084  -13.3595 C   0  0  0  0  0  0  0  0  0  0  0  0
   39.7894   14.7060  -14.7711 C   0  0  0  0  0  0  0  0  0  0  0  0
   40.2964   13.4119  -15.2830 C   0  0  0  0  0  0  0  0  0  0  0  0
   39.4190   12.3831  -15.5061 O   0  0  0  0  0  0  0  0  0  0  0  0
   41.5361   13.2786  -15.5063 O   0  0  0  0  0  0  0  0  0  0  0  0
   38.9728   11.8943  -14.7362 H   0  0  0  0  0  0  0  0  0  0  0  0
 32 33  1  0  0  0
 33 34  1  0  0  0
 33 35  1  0  0  0
 33 31  1  0  0  0
 31 27  1  0  0  0
 27 28  2  0  0  0
 27 29  1  0  0  0
 29 26  1  0  0  0
 26 36  1  0  0  0
 36 37  1  0  0  0
 37 38  1  0  0  0
 38 39  1  0  0  0
 38 40  2  0  0  0
 26  1  1  0  0  0
  1  2  2  0  0  0
  1  3  1  0  0  0
  3  4  1  0  0  0
  4  5  1  0  0  0
  5  6  1  0  0  0
  6  7  1  0  0  0
  7  8  1  0  0  0
  8  9  2  0  0  0
  8 10  1  0  0  0
 10 12  1  0  0  0
 12 15  1  0  0  0
 15 16  1  0  0  0
 16 17  1  0  0  0
 17 18  1  0  0  0
 18 20  1  0  0  0
 20 21  1  0  0  0
 20 22  2  0  0  0
 12 13  1  0  0  0
 13 14  2  0  0  0
  7  3  1  0  0  0
 29 30  1  0  0  0
 39 41  1  0  0  0
 10 11  1  0  0  0
 18 19  1  0  0  0
 21 23  1  0  0  0
 21 24  1  0  0  0
 22 25  1  0  0  0
M  END
> <minimizedAffinity>
-6.37906

> <CNNscore>
0.4940202534

> <CNNaffinity>
6.2773761749

> <CNN_VS>
3.1011509895

> <CNNaffinity_variance>
0.0019066775

$$$$
[H]N=C(N([H])[H])N([H])C([H])([H])C([H])([H])C([H])([H])[C@@]([H])(C([H])=O)N([H])C(=O)[C@@]1([H])N(C(=O)[C@@]([H])(N([H])C(=O)OC(C([H])([H])[H])(C([H])([H])[H])C([H])([H])[H])C([H])([H])C([H])([H])C(=O)O[H])C([H])([H])C([H])([H])C1([H])[H]


 41 41  0  0  0  0  0  0  0  0999 V2000
   37.8326   12.5780  -13.8747 C   0  0  0  0  0  0  0  0  0  0  0  0
   37.8699   11.2793  -13.6853 O   0  0  0  0  0  0  0  0  0  0  0  0
   36.6692   13.1848  -13.3962 N   0  0  0  0  0  0  0  0  0  0  0  0
   35.6263   12.3995  -12.6669 C   0  0  0  0  0  0  0  0  0  0  0  0
   34.3669   12.8351  -13.3828 C   0  0  0  0  0  0  0  0  0  0  0  0
   34.6466   14.2505  -13.7543 C   0  0  0  0  0  0  0  0  0  0  0  0
   36.1038   14.5013  -13.4177 C   0  0  0  0  0  0  0  0  0  0  0  0
   36.2817   15.2131  -12.1249 C   0  0  0  0  0  0  0  0  0  0  0  0
   37.2029   16.0530  -11.9855 O   0  0  0  0  0  0  0  0  0  0  0  0
   35.4348   14.9810  -11.0077 N   0  0  0  0  0  0  0  0  0  0  0  0
   34.6545   14.2892  -11.0787 H   0  0  0  0  0  0  0  0  0  0  0  0
   35.5868   15.6579   -9.7445 C   0  0  0  0  0  0  0  0  0  0  0  0
   36.5192   14.9471   -8.8592 C   0  0  0  0  0  0  0  0  0  0  0  0
   37.6395   15.3901   -8.5846 O   0  0  0  0  0  0  0  0  0  0  0  0
   34.3252   16.0727   -9.0862 C   0  0  0  0  0  0  0  0  0  0  0  0
   34.4026   16.8803   -7.8528 C   0  0  0  0  0  0  0  0  0  0  0  0
   33.4327   16.5875   -6.7676 C   0  0  0  0  0  0  0  0  0  0  0  0
   33.1489   15.1665   -6.7562 N   0  0  0  0  0  0  0  0  0  0  0  0
   33.7557   14.5220   -7.2882 H   0  0  0  0  0  0  0  0  0  0  0  0
   32.0557   14.6330   -6.0321 C   0  0  0  0  0  0  0  0  0  0  0  0
   30.7773   15.2782   -6.1082 N   0  0  0  0  0  0  0  0  0  0  0  0
   32.1341   13.5820   -5.2905 N   0  0  0  0  0  0  0  0  0  0  0  0
   30.5121   15.6508   -7.0639 H   0  0  0  0  0  0  0  0  0  0  0  0
   30.1564   15.3737   -5.2865 H   0  0  0  0  0  0  0  0  0  0  0  0
   33.0626   13.0761   -5.2073 H   0  0  0  0  0  0  0  0  0  0  0  0
   39.0044   13.1513  -14.5461 C   0  0  0  0  0  0  0  0  0  0  0  0
   40.3977   14.8428  -13.2642 C   0  0  0  0  0  0  0  0  0  0  0  0
   39.7836   15.7895  -13.8432 O   0  0  0  0  0  0  0  0  0  0  0  0
   40.0446   13.5007  -13.5814 N   0  0  0  0  0  0  0  0  0  0  0  0
   40.5854   12.7507  -13.0726 H   0  0  0  0  0  0  0  0  0  0  0  0
   41.3675   15.1811  -12.3650 O   0  0  0  0  0  0  0  0  0  0  0  0
   43.4114   14.2945  -11.4575 C   0  0  0  0  0  0  0  0  0  0  0  0
   42.7532   15.0320  -12.6126 C   0  0  0  0  0  0  0  0  0  0  0  0
   42.9253   14.1859  -13.8512 C   0  0  0  0  0  0  0  0  0  0  0  0
   43.4458   16.3400  -12.8212 C   0  0  0  0  0  0  0  0  0  0  0  0
   39.5478   12.4234  -15.7257 C   0  0  0  0  0  0  0  0  0  0  0  0
   40.5623   13.3059  -16.4819 C   0  0  0  0  0  0  0  0  0  0  0  0
   41.1948   12.5185  -17.5653 C   0  0  0  0  0  0  0  0  0  0  0  0
   42.5091   12.1474  -17.4520 O   0  0  0  0  0  0  0  0  0  0  0  0
   40.5075   12.2011  -18.5808 O   0  0  0  0  0  0  0  0  0  0  0  0
   43.2576   12.8298  -17.5220 H   0  0  0  0  0  0  0  0  0  0  0  0
 32 33  1  0  0  0
 33 34  1  0  0  0
 33 35  1  0  0  0
 33 31  1  0  0  0
 31 27  1  0  0  0
 27 28  2  0  0  0
 27 29  1  0  0  0
 29 26  1  0  0  0
 26 36  1  0  0  0
 36 37  1  0  0  0
 37 38  1  0  0  0
 38 39  1  0  0  0
 38 40  2  0  0  0
 26  1  1  0  0  0
  1  2  2  0  0  0
  1  3  1  0  0  0
  3  4  1  0  0  0
  4  5  1  0  0  0
  5  6  1  0  0  0
  6  7  1  0  0  0
  7  8  1  0  0  0
  8  9  2  0  0  0
  8 10  1  0  0  0
 10 12  1  0  0  0
 12 15  1  0  0  0
 15 16  1  0  0  0
 16 17  1  0  0  0
 17 18  1  0  0  0
 18 20  1  0  0  0
 20 21  1  0  0  0
 20 22  2  0  0  0
 12 13  1  0  0  0
 13 14  2  0  0  0
  7  3  1  0  0  0
 29 30  1  0  0  0
 39 41  1  0  0  0
 10 11  1  0  0  0
 18 19  1  0  0  0
 21 23  1  0  0  0
 21 24  1  0  0  0
 22 25  1  0  0  0
M  END
> <minimizedAffinity>
-6.54057

> <CNNscore>
0.3586174548

> <CNNaffinity>
5.9517240524

> <CNN_VS>
2.1343920231

> <CNNaffinity_variance>
0.1270479411

$$$$
[H]N=C(N([H])[H])N([H])C([H])([H])C([H])([H])C([H])([H])[C@@]([H])(C([H])=O)N([H])C(=O)[C@@]1([H])N(C(=O)[C@@]([H])(N([H])C(=O)OC(C([H])([H])[H])(C([H])([H])[H])C([H])([H])[H])C([H])([H])C([H])([H])C(=O)O[H])C([H])([H])C([H])([H])C1([H])[H]


 41 41  0  0  0  0  0  0  0  0999 V2000
   39.2975   15.4487  -12.4333 C   0  0  0  0  0  0  0  0  0  0  0  0
   40.2330   16.3063  -12.7699 O   0  0  0  0  0  0  0  0  0  0  0  0
   38.7662   15.6643  -11.1598 N   0  0  0  0  0  0  0  0  0  0  0  0
   39.1954   16.8285  -10.3252 C   0  0  0  0  0  0  0  0  0  0  0  0
   39.4868   16.1577   -9.0010 C   0  0  0  0  0  0  0  0  0  0  0  0
   38.4973   15.0453   -8.9463 C   0  0  0  0  0  0  0  0  0  0  0  0
   37.8249   15.0035  -10.3050 C   0  0  0  0  0  0  0  0  0  0  0  0
   36.4951   15.6676  -10.3098 C   0  0  0  0  0  0  0  0  0  0  0  0
   36.0543   16.1957  -11.3588 O   0  0  0  0  0  0  0  0  0  0  0  0
   35.6762   15.7354   -9.1505 N   0  0  0  0  0  0  0  0  0  0  0  0
   36.0037   15.3092   -8.2540 H   0  0  0  0  0  0  0  0  0  0  0  0
   34.3840   16.3732   -9.1298 C   0  0  0  0  0  0  0  0  0  0  0  0
   33.9604   16.6917   -7.7595 C   0  0  0  0  0  0  0  0  0  0  0  0
   34.1531   15.9232   -6.8114 O   0  0  0  0  0  0  0  0  0  0  0  0
   33.3362   15.7207   -9.9503 C   0  0  0  0  0  0  0  0  0  0  0  0
   31.9200   15.9451   -9.5990 C   0  0  0  0  0  0  0  0  0  0  0  0
   31.0038   14.7771   -9.6230 C   0  0  0  0  0  0  0  0  0  0  0  0
   29.9719   15.0045  -10.6148 N   0  0  0  0  0  0  0  0  0  0  0  0
   29.1017   15.4890  -10.3419 H   0  0  0  0  0  0  0  0  0  0  0  0
   30.1236   14.5777  -11.9561 C   0  0  0  0  0  0  0  0  0  0  0  0
   31.4022   14.1109  -12.4071 N   0  0  0  0  0  0  0  0  0  0  0  0
   29.1673   14.5816  -12.8199 N   0  0  0  0  0  0  0  0  0  0  0  0
   31.9434   13.5234  -11.7110 H   0  0  0  0  0  0  0  0  0  0  0  0
   31.7714   14.3324  -13.3476 H   0  0  0  0  0  0  0  0  0  0  0  0
   28.2063   14.9202  -12.5258 H   0  0  0  0  0  0  0  0  0  0  0  0
   38.9822   14.4312  -13.4423 C   0  0  0  0  0  0  0  0  0  0  0  0
   36.9902   12.8577  -13.4018 C   0  0  0  0  0  0  0  0  0  0  0  0
   37.7729   11.8678  -13.2753 O   0  0  0  0  0  0  0  0  0  0  0  0
   37.5463   14.1651  -13.4899 N   0  0  0  0  0  0  0  0  0  0  0  0
   36.8525   14.9536  -13.5944 H   0  0  0  0  0  0  0  0  0  0  0  0
   35.6509   12.5972  -13.4452 O   0  0  0  0  0  0  0  0  0  0  0  0
   35.7405   12.6649  -15.8483 C   0  0  0  0  0  0  0  0  0  0  0  0
   34.8608   12.7428  -14.6107 C   0  0  0  0  0  0  0  0  0  0  0  0
   33.8868   11.5906  -14.6703 C   0  0  0  0  0  0  0  0  0  0  0  0
   34.0936   14.0253  -14.6310 C   0  0  0  0  0  0  0  0  0  0  0  0
   39.5720   14.5996  -14.7988 C   0  0  0  0  0  0  0  0  0  0  0  0
   40.6066   13.4896  -15.0771 C   0  0  0  0  0  0  0  0  0  0  0  0
   40.0963   12.5895  -16.1369 C   0  0  0  0  0  0  0  0  0  0  0  0
   39.0933   11.7025  -15.8450 O   0  0  0  0  0  0  0  0  0  0  0  0
   40.5978   12.6557  -17.2982 O   0  0  0  0  0  0  0  0  0  0  0  0
   39.2590   10.8959  -15.2511 H   0  0  0  0  0  0  0  0  0  0  0  0
 32 33  1  0  0  0
 33 34  1  0  0  0
 33 35  1  0  0  0
 33 31  1  0  0  0
 31 27  1  0  0  0
 27 28  2  0  0  0
 27 29  1  0  0  0
 29 26  1  0  0  0
 26 36  1  0  0  0
 36 37  1  0  0  0
 37 38  1  0  0  0
 38 39  1  0  0  0
 38 40  2  0  0  0
 26  1  1  0  0  0
  1  2  2  0  0  0
  1  3  1  0  0  0
  3  4  1  0  0  0
  4  5  1  0  0  0
  5  6  1  0  0  0
  6  7  1  0  0  0
  7  8  1  0  0  0
  8  9  2  0  0  0
  8 10  1  0  0  0
 10 12  1  0  0  0
 12 15  1  0  0  0
 15 16  1  0  0  0
 16 17  1  0  0  0
 17 18  1  0  0  0
 18 20  1  0  0  0
 20 21  1  0  0  0
 20 22  2  0  0  0
 12 13  1  0  0  0
 13 14  2  0  0  0
  7  3  1  0  0  0
 29 30  1  0  0  0
 39 41  1  0  0  0
 10 11  1  0  0  0
 18 19  1  0  0  0
 21 23  1  0  0  0
 21 24  1  0  0  0
 22 25  1  0  0  0
M  END
> <minimizedAffinity>
-7.20268

> <CNNscore>
0.2801084816

> <CNNaffinity>
6.1906857491

> <CNN_VS>
1.7340636253

> <CNNaffinity_variance>
0.3117677271

$$$$
[H]N=C(N([H])[H])N([H])C([H])([H])C([H])([H])C([H])([H])[C@@]([H])(C([H])=O)N([H])C(=O)[C@@]1([H])N(C(=O)[C@@]([H])(N([H])C(=O)OC(C([H])([H])[H])(C([H])([H])[H])C([H])([H])[H])C([H])([H])C([H])([H])C(=O)O[H])C([H])([H])C([H])([H])C1([H])[H]


 41 41  0  0  0  0  0  0  0  0999 V2000
   37.9298   12.7304  -13.8315 C   0  0  0  0  0  0  0  0  0  0  0  0
   37.9128   11.4403  -13.5882 O   0  0  0  0  0  0  0  0  0  0  0  0
   36.8307   13.4173  -13.3109 N   0  0  0  0  0  0  0  0  0  0  0  0
   35.7967   12.7189  -12.4868 C   0  0  0  0  0  0  0  0  0  0  0  0
   34.5189   13.1918  -13.1442 C   0  0  0  0  0  0  0  0  0  0  0  0
   34.8466   14.5741  -13.5932 C   0  0  0  0  0  0  0  0  0  0  0  0
   36.3328   14.7602  -13.3559 C   0  0  0  0  0  0  0  0  0  0  0  0
   36.6266   15.5131  -12.1084 C   0  0  0  0  0  0  0  0  0  0  0  0
   35.8247   16.3816  -11.6886 O   0  0  0  0  0  0  0  0  0  0  0  0
   37.8058   15.2906  -11.3473 N   0  0  0  0  0  0  0  0  0  0  0  0
   38.5023   14.5767  -11.6600 H   0  0  0  0  0  0  0  0  0  0  0  0
   38.1131   16.0072  -10.1352 C   0  0  0  0  0  0  0  0  0  0  0  0
   38.9157   17.2077  -10.4060 C   0  0  0  0  0  0  0  0  0  0  0  0
   38.4223   18.3399  -10.4411 O   0  0  0  0  0  0  0  0  0  0  0  0
   38.6216   15.1799   -9.0154 C   0  0  0  0  0  0  0  0  0  0  0  0
   39.4725   15.8194   -7.9924 C   0  0  0  0  0  0  0  0  0  0  0  0
   40.7554   15.1590   -7.6428 C   0  0  0  0  0  0  0  0  0  0  0  0
   41.3691   15.8698   -6.5391 N   0  0  0  0  0  0  0  0  0  0  0  0
   41.0243   15.7130   -5.5783 H   0  0  0  0  0  0  0  0  0  0  0  0
   42.4345   16.7795   -6.7419 C   0  0  0  0  0  0  0  0  0  0  0  0
   42.4605   18.0103   -6.0066 N   0  0  0  0  0  0  0  0  0  0  0  0
   43.4055   16.5715   -7.5634 N   0  0  0  0  0  0  0  0  0  0  0  0
   42.1455   17.9438   -4.9971 H   0  0  0  0  0  0  0  0  0  0  0  0
   42.7656   18.9023   -6.4321 H   0  0  0  0  0  0  0  0  0  0  0  0
   43.4226   15.6731   -8.1267 H   0  0  0  0  0  0  0  0  0  0  0  0
   39.0852   13.2127  -14.5964 C   0  0  0  0  0  0  0  0  0  0  0  0
   40.5321   14.8549  -13.3100 C   0  0  0  0  0  0  0  0  0  0  0  0
   39.8206   15.8157  -13.7334 O   0  0  0  0  0  0  0  0  0  0  0  0
   40.2053   13.5295  -13.7133 N   0  0  0  0  0  0  0  0  0  0  0  0
   40.8282   12.7667  -13.3337 H   0  0  0  0  0  0  0  0  0  0  0  0
   41.5759   15.1627  -12.4857 O   0  0  0  0  0  0  0  0  0  0  0  0
   43.0291   14.2315  -14.1616 C   0  0  0  0  0  0  0  0  0  0  0  0
   42.9230   14.8330  -12.7693 C   0  0  0  0  0  0  0  0  0  0  0  0
   43.7349   16.1059  -12.7594 C   0  0  0  0  0  0  0  0  0  0  0  0
   43.5054   13.8809  -11.7752 C   0  0  0  0  0  0  0  0  0  0  0  0
   39.5068   12.4182  -15.7828 C   0  0  0  0  0  0  0  0  0  0  0  0
   40.4123   13.2636  -16.7021 C   0  0  0  0  0  0  0  0  0  0  0  0
   41.3828   12.3816  -17.3906 C   0  0  0  0  0  0  0  0  0  0  0  0
   41.1144   11.9433  -18.6610 O   0  0  0  0  0  0  0  0  0  0  0  0
   42.4472   12.0469  -16.7910 O   0  0  0  0  0  0  0  0  0  0  0  0
   40.3818   11.2637  -18.8406 H   0  0  0  0  0  0  0  0  0  0  0  0
 32 33  1  0  0  0
 33 34  1  0  0  0
 33 35  1  0  0  0
 33 31  1  0  0  0
 31 27  1  0  0  0
 27 28  2  0  0  0
 27 29  1  0  0  0
 29 26  1  0  0  0
 26 36  1  0  0  0
 36 37  1  0  0  0
 37 38  1  0  0  0
 38 39  1  0  0  0
 38 40  2  0  0  0
 26  1  1  0  0  0
  1  2  2  0  0  0
  1  3  1  0  0  0
  3  4  1  0  0  0
  4  5  1  0  0  0
  5  6  1  0  0  0
  6  7  1  0  0  0
  7  8  1  0  0  0
  8  9  2  0  0  0
  8 10  1  0  0  0
 10 12  1  0  0  0
 12 15  1  0  0  0
 15 16  1  0  0  0
 16 17  1  0  0  0
 17 18  1  0  0  0
 18 20  1  0  0  0
 20 21  1  0  0  0
 20 22  2  0  0  0
 12 13  1  0  0  0
 13 14  2  0  0  0
  7  3  1  0  0  0
 29 30  1  0  0  0
 39 41  1  0  0  0
 10 11  1  0  0  0
 18 19  1  0  0  0
 21 23  1  0  0  0
 21 24  1  0  0  0
 22 25  1  0  0  0
M  END
> <minimizedAffinity>
-6.14296

> <CNNscore>
0.2083868980

> <CNNaffinity>
5.6866397858

> <CNN_VS>
1.1850212812

> <CNNaffinity_variance>
0.1433804780

$$$$
[H]N=C(N([H])[H])N([H])C([H])([H])C([H])([H])C([H])([H])[C@@]([H])(C([H])=O)N([H])C(=O)[C@@]1([H])N(C(=O)[C@@]([H])(N([H])C(=O)OC(C([H])([H])[H])(C([H])([H])[H])C([H])([H])[H])C([H])([H])C([H])([H])C(=O)O[H])C([H])([H])C([H])([H])C1([H])[H]


 41 41  0  0  0  0  0  0  0  0999 V2000
   38.0279   12.8251  -13.9907 C   0  0  0  0  0  0  0  0  0  0  0  0
   37.9907   11.5311  -14.2103 O   0  0  0  0  0  0  0  0  0  0  0  0
   36.9393   13.3047  -13.2589 N   0  0  0  0  0  0  0  0  0  0  0  0
   35.8939   12.3791  -12.7236 C   0  0  0  0  0  0  0  0  0  0  0  0
   34.6241   13.0699  -13.1699 C   0  0  0  0  0  0  0  0  0  0  0  0
   34.9736   14.5169  -13.1127 C   0  0  0  0  0  0  0  0  0  0  0  0
   36.4623   14.5870  -12.8324 C   0  0  0  0  0  0  0  0  0  0  0  0
   36.7669   14.8555  -11.4026 C   0  0  0  0  0  0  0  0  0  0  0  0
   37.8854   14.5487  -10.9245 O   0  0  0  0  0  0  0  0  0  0  0  0
   35.8254   15.4595  -10.5263 N   0  0  0  0  0  0  0  0  0  0  0  0
   34.8807   15.7312  -10.8816 H   0  0  0  0  0  0  0  0  0  0  0  0
   36.0967   15.7300   -9.1369 C   0  0  0  0  0  0  0  0  0  0  0  0
   35.4006   14.7825   -8.2559 C   0  0  0  0  0  0  0  0  0  0  0  0
   35.9887   13.8653   -7.6735 O   0  0  0  0  0  0  0  0  0  0  0  0
   35.9652   17.1476   -8.7245 C   0  0  0  0  0  0  0  0  0  0  0  0
   37.0283   17.7443   -7.8920 C   0  0  0  0  0  0  0  0  0  0  0  0
   38.0958   16.8485   -7.3798 C   0  0  0  0  0  0  0  0  0  0  0  0
   39.3402   17.1606   -8.0539 N   0  0  0  0  0  0  0  0  0  0  0  0
   39.9782   17.8624   -7.6452 H   0  0  0  0  0  0  0  0  0  0  0  0
   39.7083   16.5269   -9.2650 C   0  0  0  0  0  0  0  0  0  0  0  0
   39.4905   17.2044  -10.5099 N   0  0  0  0  0  0  0  0  0  0  0  0
   40.2377   15.3534   -9.3256 N   0  0  0  0  0  0  0  0  0  0  0  0
   39.6830   18.2463  -10.5005 H   0  0  0  0  0  0  0  0  0  0  0  0
   39.1675   16.7103  -11.3592 H   0  0  0  0  0  0  0  0  0  0  0  0
   40.4145   14.8190   -8.4268 H   0  0  0  0  0  0  0  0  0  0  0  0
   39.1913   13.5257  -14.5459 C   0  0  0  0  0  0  0  0  0  0  0  0
   40.5063   15.0347  -12.9841 C   0  0  0  0  0  0  0  0  0  0  0  0
   39.8615   16.0403  -13.4106 O   0  0  0  0  0  0  0  0  0  0  0  0
   40.2082   13.7506  -13.5212 N   0  0  0  0  0  0  0  0  0  0  0  0
   40.7728   12.9477  -13.1330 H   0  0  0  0  0  0  0  0  0  0  0  0
   41.4539   15.2567  -12.0269 O   0  0  0  0  0  0  0  0  0  0  0  0
   43.1257   16.8641  -12.6661 C   0  0  0  0  0  0  0  0  0  0  0  0
   42.8319   15.4158  -12.3092 C   0  0  0  0  0  0  0  0  0  0  0  0
   43.6130   15.0865  -11.0598 C   0  0  0  0  0  0  0  0  0  0  0  0
   43.2994   14.5300  -13.4186 C   0  0  0  0  0  0  0  0  0  0  0  0
   39.7709   13.0022  -15.8134 C   0  0  0  0  0  0  0  0  0  0  0  0
   41.1891   13.5690  -16.0308 C   0  0  0  0  0  0  0  0  0  0  0  0
   42.0311   12.5550  -16.7064 C   0  0  0  0  0  0  0  0  0  0  0  0
   41.5560   11.9169  -17.8221 O   0  0  0  0  0  0  0  0  0  0  0  0
   43.1794   12.2946  -16.2392 O   0  0  0  0  0  0  0  0  0  0  0  0
   40.8027   11.2389  -17.7612 H   0  0  0  0  0  0  0  0  0  0  0  0
 32 33  1  0  0  0
 33 34  1  0  0  0
 33 35  1  0  0  0
 33 31  1  0  0  0
 31 27  1  0  0  0
 27 28  2  0  0  0
 27 29  1  0  0  0
 29 26  1  0  0  0
 26 36  1  0  0  0
 36 37  1  0  0  0
 37 38  1  0  0  0
 38 39  1  0  0  0
 38 40  2  0  0  0
 26  1  1  0  0  0
  1  2  2  0  0  0
  1  3  1  0  0  0
  3  4  1  0  0  0
  4  5  1  0  0  0
  5  6  1  0  0  0
  6  7  1  0  0  0
  7  8  1  0  0  0
  8  9  2  0  0  0
  8 10  1  0  0  0
 10 12  1  0  0  0
 12 15  1  0  0  0
 15 16  1  0  0  0
 16 17  1  0  0  0
 17 18  1  0  0  0
 18 20  1  0  0  0
 20 21  1  0  0  0
 20 22  2  0  0  0
 12 13  1  0  0  0
 13 14  2  0  0  0
  7  3  1  0  0  0
 29 30  1  0  0  0
 39 41  1  0  0  0
 10 11  1  0  0  0
 18 19  1  0  0  0
 21 23  1  0  0  0
 21 24  1  0  0  0
 22 25  1  0  0  0
M  END
> <minimizedAffinity>
-6.16840

> <CNNscore>
0.1920815110

> <CNNaffinity>
5.9441709518

> <CNN_VS>
1.1417653561

> <CNNaffinity_variance>
0.0752717853

$$$$
[H]N=C(N([H])[H])N([H])C([H])([H])C([H])([H])C([H])([H])[C@@]([H])(C([H])=O)N([H])C(=O)[C@@]1([H])N(C(=O)[C@@]([H])(N([H])C(=O)OC(C([H])([H])[H])(C([H])([H])[H])C([H])([H])[H])C([H])([H])C([H])([H])C(=O)O[H])C([H])([H])C([H])([H])C1([H])[H]


 41 41  0  0  0  0  0  0  0  0999 V2000
   37.3659   15.4991  -11.7793 C   0  0  0  0  0  0  0  0  0  0  0  0
   36.6640   16.6054  -11.6936 O   0  0  0  0  0  0  0  0  0  0  0  0
   36.7735   14.5152  -12.5741 N   0  0  0  0  0  0  0  0  0  0  0  0
   35.4966   14.7735  -13.3082 C   0  0  0  0  0  0  0  0  0  0  0  0
   34.6841   13.5528  -12.9365 C   0  0  0  0  0  0  0  0  0  0  0  0
   35.7062   12.4760  -12.8126 C   0  0  0  0  0  0  0  0  0  0  0  0
   37.0581   13.1544  -12.9213 C   0  0  0  0  0  0  0  0  0  0  0  0
   37.6568   13.0310  -14.2762 C   0  0  0  0  0  0  0  0  0  0  0  0
   37.1719   13.6658  -15.2434 O   0  0  0  0  0  0  0  0  0  0  0  0
   38.7834   12.2048  -14.5359 N   0  0  0  0  0  0  0  0  0  0  0  0
   39.2196   11.6574  -13.7597 H   0  0  0  0  0  0  0  0  0  0  0  0
   39.3818   12.0685  -15.8399 C   0  0  0  0  0  0  0  0  0  0  0  0
   40.4821   13.0230  -16.0320 C   0  0  0  0  0  0  0  0  0  0  0  0
   41.6346   12.6613  -16.2917 O   0  0  0  0  0  0  0  0  0  0  0  0
   38.4313   12.0050  -16.9755 C   0  0  0  0  0  0  0  0  0  0  0  0
   37.5645   10.8173  -17.1075 C   0  0  0  0  0  0  0  0  0  0  0  0
   36.1438   11.0312  -17.4817 C   0  0  0  0  0  0  0  0  0  0  0  0
   35.3509   11.1639  -16.2760 N   0  0  0  0  0  0  0  0  0  0  0  0
   35.8214   11.3470  -15.3751 H   0  0  0  0  0  0  0  0  0  0  0  0
   33.9402   11.0482  -16.2980 C   0  0  0  0  0  0  0  0  0  0  0  0
   33.2049   11.1515  -15.0712 N   0  0  0  0  0  0  0  0  0  0  0  0
   33.2559   10.8506  -17.3720 N   0  0  0  0  0  0  0  0  0  0  0  0
   33.5605   11.8788  -14.3876 H   0  0  0  0  0  0  0  0  0  0  0  0
   32.3837   10.5568  -14.8671 H   0  0  0  0  0  0  0  0  0  0  0  0
   33.7626   10.7679  -18.3000 H   0  0  0  0  0  0  0  0  0  0  0  0
   38.6301   15.4951  -11.0346 C   0  0  0  0  0  0  0  0  0  0  0  0
   40.6450   15.7687  -12.5547 C   0  0  0  0  0  0  0  0  0  0  0  0
   40.5302   17.0297  -12.4823 O   0  0  0  0  0  0  0  0  0  0  0  0
   39.7171   14.9536  -11.8470 N   0  0  0  0  0  0  0  0  0  0  0  0
   39.8562   13.9115  -11.9404 H   0  0  0  0  0  0  0  0  0  0  0  0
   41.6641   15.2741  -13.3165 O   0  0  0  0  0  0  0  0  0  0  0  0
   43.6899   14.0281  -13.6787 C   0  0  0  0  0  0  0  0  0  0  0  0
   42.9788   15.0717  -12.8322 C   0  0  0  0  0  0  0  0  0  0  0  0
   43.7402   16.3680  -12.9715 C   0  0  0  0  0  0  0  0  0  0  0  0
   43.0066   14.6467  -11.3995 C   0  0  0  0  0  0  0  0  0  0  0  0
   39.0193   16.7477  -10.3305 C   0  0  0  0  0  0  0  0  0  0  0  0
   39.2484   16.4723   -8.8299 C   0  0  0  0  0  0  0  0  0  0  0  0
   40.4617   15.6405   -8.6572 C   0  0  0  0  0  0  0  0  0  0  0  0
   40.3317   14.2980   -8.4149 O   0  0  0  0  0  0  0  0  0  0  0  0
   41.6018   16.1867   -8.7367 O   0  0  0  0  0  0  0  0  0  0  0  0
   39.9795   13.9542   -7.5269 H   0  0  0  0  0  0  0  0  0  0  0  0
 32 33  1  0  0  0
 33 34  1  0  0  0
 33 35  1  0  0  0
 33 31  1  0  0  0
 31 27  1  0  0  0
 27 28  2  0  0  0
 27 29  1  0  0  0
 29 26  1  0  0  0
 26 36  1  0  0  0
 36 37  1  0  0  0
 37 38  1  0  0  0
 38 39  1  0  0  0
 38 40  2  0  0  0
 26  1  1  0  0  0
  1  2  2  0  0  0
  1  3  1  0  0  0
  3  4  1  0  0  0
  4  5  1  0  0  0
  5  6  1  0  0  0
  6  7  1  0  0  0
  7  8  1  0  0  0
  8  9  2  0  0  0
  8 10  1  0  0  0
 10 12  1  0  0  0
 12 15  1  0  0  0
 15 16  1  0  0  0
 16 17  1  0  0  0
 17 18  1  0  0  0
 18 20  1  0  0  0
 20 21  1  0  0  0
 20 22  2  0  0  0
 12 13  1  0  0  0
 13 14  2  0  0  0
  7  3  1  0  0  0
 29 30  1  0  0  0
 39 41  1  0  0  0
 10 11  1  0  0  0
 18 19  1  0  0  0
 21 23  1  0  0  0
 21 24  1  0  0  0
 22 25  1  0  0  0
M  END
> <minimizedAffinity>
-6.64664

> <CNNscore>
0.1282377988

> <CNNaffinity>
6.4618482590

> <CNN_VS>
0.8286532164

> <CNNaffinity_variance>
0.1156786233

$$$$
[H]N=C(N([H])[H])N([H])C([H])([H])C([H])([H])C([H])([H])[C@@]([H])(C([H])=O)N([H])C(=O)[C@@]1([H])N(C(=O)[C@@]([H])(N([H])C(=O)OC(C([H])([H])[H])(C([H])([H])[H])C([H])([H])[H])C([H])([H])C([H])([H])C(=O)O[H])C([H])([H])C([H])([H])C1([H])[H]


 41 41  0  0  0  0  0  0  0  0999 V2000
   39.5060   15.5537  -12.3303 C   0  0  0  0  0  0  0  0  0  0  0  0
   40.3804   16.4335  -12.7605 O   0  0  0  0  0  0  0  0  0  0  0  0
   39.1480   15.7223  -10.9908 N   0  0  0  0  0  0  0  0  0  0  0  0
   39.6749   16.8654  -10.1833 C   0  0  0  0  0  0  0  0  0  0  0  0
   40.1468   16.1572   -8.9326 C   0  0  0  0  0  0  0  0  0  0  0  0
   39.1832   15.0309   -8.7828 C   0  0  0  0  0  0  0  0  0  0  0  0
   38.3354   15.0229  -10.0401 C   0  0  0  0  0  0  0  0  0  0  0  0
   37.0112   15.6694   -9.8456 C   0  0  0  0  0  0  0  0  0  0  0  0
   36.2965   15.9600  -10.8347 O   0  0  0  0  0  0  0  0  0  0  0  0
   36.5017   15.9835   -8.5568 N   0  0  0  0  0  0  0  0  0  0  0  0
   37.0635   15.7596   -7.7043 H   0  0  0  0  0  0  0  0  0  0  0  0
   35.2216   16.6099   -8.3422 C   0  0  0  0  0  0  0  0  0  0  0  0
   35.2930   17.6415   -7.2986 C   0  0  0  0  0  0  0  0  0  0  0  0
   34.8044   18.7668   -7.4453 O   0  0  0  0  0  0  0  0  0  0  0  0
   34.0731   15.6839   -8.1995 C   0  0  0  0  0  0  0  0  0  0  0  0
   32.7675   16.0837   -8.7606 C   0  0  0  0  0  0  0  0  0  0  0  0
   31.6854   16.4495   -7.8122 C   0  0  0  0  0  0  0  0  0  0  0  0
   31.6906   17.8856   -7.6181 N   0  0  0  0  0  0  0  0  0  0  0  0
   31.8878   18.5067   -8.4193 H   0  0  0  0  0  0  0  0  0  0  0  0
   31.4321   18.4652   -6.3527 C   0  0  0  0  0  0  0  0  0  0  0  0
   32.4663   18.4805   -5.3596 N   0  0  0  0  0  0  0  0  0  0  0  0
   30.3024   18.9917   -6.0251 N   0  0  0  0  0  0  0  0  0  0  0  0
   33.4429   18.6726   -5.7228 H   0  0  0  0  0  0  0  0  0  0  0  0
   32.2726   18.3153   -4.3571 H   0  0  0  0  0  0  0  0  0  0  0  0
   29.5114   18.9997   -6.7315 H   0  0  0  0  0  0  0  0  0  0  0  0
   39.0673   14.5643  -13.3209 C   0  0  0  0  0  0  0  0  0  0  0  0
   36.9036   13.2408  -13.2089 C   0  0  0  0  0  0  0  0  0  0  0  0
   37.5645   12.1724  -13.0345 O   0  0  0  0  0  0  0  0  0  0  0  0
   37.6099   14.4677  -13.3580 N   0  0  0  0  0  0  0  0  0  0  0  0
   37.0136   15.3269  -13.5007 H   0  0  0  0  0  0  0  0  0  0  0  0
   35.5427   13.1386  -13.2419 O   0  0  0  0  0  0  0  0  0  0  0  0
   34.0714   11.6038  -14.3675 C   0  0  0  0  0  0  0  0  0  0  0  0
   34.7998   12.9368  -14.4298 C   0  0  0  0  0  0  0  0  0  0  0  0
   33.7556   14.0231  -14.5263 C   0  0  0  0  0  0  0  0  0  0  0  0
   35.6523   12.9760  -15.6569 C   0  0  0  0  0  0  0  0  0  0  0  0
   39.6644   14.6406  -14.6825 C   0  0  0  0  0  0  0  0  0  0  0  0
   39.9911   13.2270  -15.2067 C   0  0  0  0  0  0  0  0  0  0  0  0
   41.0721   13.3090  -16.2159 C   0  0  0  0  0  0  0  0  0  0  0  0
   40.8526   13.9845  -17.3878 O   0  0  0  0  0  0  0  0  0  0  0  0
   42.1841   12.7514  -15.9770 O   0  0  0  0  0  0  0  0  0  0  0  0
   40.2278   13.6174  -18.0989 H   0  0  0  0  0  0  0  0  0  0  0  0
 32 33  1  0  0  0
 33 34  1  0  0  0
 33 35  1  0  0  0
 33 31  1  0  0  0
 31 27  1  0  0  0
 27 28  2  0  0  0
 27 29  1  0  0  0
 29 26  1  0  0  0
 26 36  1  0  0  0
 36 37  1  0  0  0
 37 38  1  0  0  0
 38 39  1  0  0  0
 38 40  2  0  0  0
 26  1  1  0  0  0
  1  2  2  0  0  0
  1  3  1  0  0  0
  3  4  1  0  0  0
  4  5  1  0  0  0
  5  6  1  0  0  0
  6  7  1  0  0  0
  7  8  1  0  0  0
  8  9  2  0  0  0
  8 10  1  0  0  0
 10 12  1  0  0  0
 12 15  1  0  0  0
 15 16  1  0  0  0
 16 17  1  0  0  0
 17 18  1  0  0  0
 18 20  1  0  0  0
 20 21  1  0  0  0
 20 22  2  0  0  0
 12 13  1  0  0  0
 13 14  2  0  0  0
  7  3  1  0  0  0
 29 30  1  0  0  0
 39 41  1  0  0  0
 10 11  1  0  0  0
 18 19  1  0  0  0
 21 23  1  0  0  0
 21 24  1  0  0  0
 22 25  1  0  0  0
M  END
> <minimizedAffinity>
-6.15692

> <CNNscore>
0.1191612333

> <CNNaffinity>
5.4138526917

> <CNN_VS>
0.6451213360

> <CNNaffinity_variance>
0.5280594826

$$$$
[H]N=C(N([H])[H])N([H])C([H])([H])C([H])([H])C([H])([H])[C@@]([H])(C([H])=O)N([H])C(=O)[C@@]1([H])N(C(=O)[C@@]([H])(N([H])C(=O)OC(C([H])([H])[H])(C([H])([H])[H])C([H])([H])[H])C([H])([H])C([H])([H])C(=O)O[H])C([H])([H])C([H])([H])C1([H])[H]


 41 41  0  0  0  0  0  0  0  0999 V2000
   36.9851   15.5518  -11.9301 C   0  0  0  0  0  0  0  0  0  0  0  0
   36.2155   16.5600  -12.2693 O   0  0  0  0  0  0  0  0  0  0  0  0
   36.7732   14.3995  -12.6903 N   0  0  0  0  0  0  0  0  0  0  0  0
   35.8062   14.3876  -13.8310 C   0  0  0  0  0  0  0  0  0  0  0  0
   35.0092   13.1360  -13.5361 C   0  0  0  0  0  0  0  0  0  0  0  0
   36.0056   12.2269  -12.9036 C   0  0  0  0  0  0  0  0  0  0  0  0
   37.2594   13.0516  -12.6853 C   0  0  0  0  0  0  0  0  0  0  0  0
   38.2903   12.8195  -13.7307 C   0  0  0  0  0  0  0  0  0  0  0  0
   38.1277   11.9232  -14.5931 O   0  0  0  0  0  0  0  0  0  0  0  0
   39.4851   13.5854  -13.8019 N   0  0  0  0  0  0  0  0  0  0  0  0
   39.6627   14.3424  -13.1033 H   0  0  0  0  0  0  0  0  0  0  0  0
   40.4991   13.3798  -14.8052 C   0  0  0  0  0  0  0  0  0  0  0  0
   41.8500   13.4715  -14.2350 C   0  0  0  0  0  0  0  0  0  0  0  0
   42.0517   13.7855  -13.0572 O   0  0  0  0  0  0  0  0  0  0  0  0
   40.3197   14.1461  -16.0612 C   0  0  0  0  0  0  0  0  0  0  0  0
   40.7148   13.5168  -17.3369 C   0  0  0  0  0  0  0  0  0  0  0  0
   40.6555   12.0363  -17.4299 C   0  0  0  0  0  0  0  0  0  0  0  0
   39.2692   11.6149  -17.4050 N   0  0  0  0  0  0  0  0  0  0  0  0
   38.6985   11.7922  -16.5627 H   0  0  0  0  0  0  0  0  0  0  0  0
   38.6712   10.9620  -18.5096 C   0  0  0  0  0  0  0  0  0  0  0  0
   37.3944   10.3296  -18.3483 N   0  0  0  0  0  0  0  0  0  0  0  0
   39.2104   10.8954  -19.6782 N   0  0  0  0  0  0  0  0  0  0  0  0
   36.7027   10.8505  -17.7377 H   0  0  0  0  0  0  0  0  0  0  0  0
   37.1641    9.4266  -18.7969 H   0  0  0  0  0  0  0  0  0  0  0  0
   40.1550   11.3502  -19.8384 H   0  0  0  0  0  0  0  0  0  0  0  0
   37.9177   15.8132  -10.8280 C   0  0  0  0  0  0  0  0  0  0  0  0
   36.8092   16.6344   -8.6967 C   0  0  0  0  0  0  0  0  0  0  0  0
   36.9461   17.8337   -9.0858 O   0  0  0  0  0  0  0  0  0  0  0  0
   37.2797   15.5836   -9.5337 N   0  0  0  0  0  0  0  0  0  0  0  0
   37.1420   14.6047   -9.1639 H   0  0  0  0  0  0  0  0  0  0  0  0
   36.2119   16.4318   -7.4859 O   0  0  0  0  0  0  0  0  0  0  0  0
   34.1246   16.1652   -8.6518 C   0  0  0  0  0  0  0  0  0  0  0  0
   34.8681   16.0136   -7.3343 C   0  0  0  0  0  0  0  0  0  0  0  0
   34.8655   14.5470   -6.9754 C   0  0  0  0  0  0  0  0  0  0  0  0
   34.1444   16.7727   -6.2695 C   0  0  0  0  0  0  0  0  0  0  0  0
   39.2708   15.1978  -10.9093 C   0  0  0  0  0  0  0  0  0  0  0  0
   40.3616   16.2648  -10.6815 C   0  0  0  0  0  0  0  0  0  0  0  0
   41.1327   16.4613  -11.9307 C   0  0  0  0  0  0  0  0  0  0  0  0
   42.4986   16.5563  -11.8736 O   0  0  0  0  0  0  0  0  0  0  0  0
   40.5140   16.5382  -13.0333 O   0  0  0  0  0  0  0  0  0  0  0  0
   42.9543   17.3708  -11.4739 H   0  0  0  0  0  0  0  0  0  0  0  0
 32 33  1  0  0  0
 33 34  1  0  0  0
 33 35  1  0  0  0
 33 31  1  0  0  0
 31 27  1  0  0  0
 27 28  2  0  0  0
 27 29  1  0  0  0
 29 26  1  0  0  0
 26 36  1  0  0  0
 36 37  1  0  0  0
 37 38  1  0  0  0
 38 39  1  0  0  0
 38 40  2  0  0  0
 26  1  1  0  0  0
  1  2  2  0  0  0
  1  3  1  0  0  0
  3  4  1  0  0  0
  4  5  1  0  0  0
  5  6  1  0  0  0
  6  7  1  0  0  0
  7  8  1  0  0  0
  8  9  2  0  0  0
  8 10  1  0  0  0
 10 12  1  0  0  0
 12 15  1  0  0  0
 15 16  1  0  0  0
 16 17  1  0  0  0
 17 18  1  0  0  0
 18 20  1  0  0  0
 20 21  1  0  0  0
 20 22  2  0  0  0
 12 13  1  0  0  0
 13 14  2  0  0  0
  7  3  1  0  0  0
 29 30  1  0  0  0
 39 41  1  0  0  0
 10 11  1  0  0  0
 18 19  1  0  0  0
 21 23  1  0  0  0
 21 24  1  0  0  0
 22 25  1  0  0  0
M  END
> <minimizedAffinity>
-6.05372

> <CNNscore>
0.1131426543

> <CNNaffinity>
5.8087072372

> <CNN_VS>
0.6572125554

> <CNNaffinity_variance>
0.0856222063

$$$$
[H]O[C@@]1([H])[C@]([H])(O[H])[C@@]2([H])OC(=O)[C@@]3(O[H])[C@@]([H])(O[C@]([H])(OP(=O)(O[H])O[H])[C@@]([H])(O[H])[C@@]3([H])O[H])[C@]2([H])O[C@@]1([H])n1c([H])nc2c(N([H])[H])nc([H])nc21


 44 48  0  0  0  0  0  0  0  0999 V2000
   36.3519   15.8365   -8.1735 C   0  0  0  0  0  0  0  0  0  0  0  0
   35.5742   16.1263   -6.9049 C   0  0  0  0  0  0  0  0  0  0  0  0
   34.2242   16.1263   -7.1563 O   0  0  0  0  0  0  0  0  0  0  0  0
   35.9434   15.0481   -5.8775 C   0  0  0  0  0  0  0  0  0  0  0  0
   35.5352   13.8328   -6.3714 O   0  0  0  0  0  0  0  0  0  0  0  0
   37.4302   15.1254   -5.6966 C   0  0  0  0  0  0  0  0  0  0  0  0
   37.9766   14.1900   -4.7152 C   0  0  0  0  0  0  0  0  0  0  0  0
   37.2739   13.8418   -3.7347 O   0  0  0  0  0  0  0  0  0  0  0  0
   39.2504   13.6652   -4.8214 O   0  0  0  0  0  0  0  0  0  0  0  0
   39.8626   13.6168   -6.0740 C   0  0  0  0  0  0  0  0  0  0  0  0
   41.3856   13.5006   -5.9784 C   0  0  0  0  0  0  0  0  0  0  0  0
   41.7609   12.3922   -5.2415 O   0  0  0  0  0  0  0  0  0  0  0  0
   41.8096   13.3074   -7.4358 C   0  0  0  0  0  0  0  0  0  0  0  0
   43.2196   13.2369   -7.5130 O   0  0  0  0  0  0  0  0  0  0  0  0
   41.2409   14.3123   -8.3520 C   0  0  0  0  0  0  0  0  0  0  0  0
   40.2761   15.1242   -7.9220 O   0  0  0  0  0  0  0  0  0  0  0  0
   39.5733   14.8794   -6.8158 C   0  0  0  0  0  0  0  0  0  0  0  0
   38.0580   14.8959   -7.0644 C   0  0  0  0  0  0  0  0  0  0  0  0
   37.7192   15.9099   -7.9479 O   0  0  0  0  0  0  0  0  0  0  0  0
   37.7756   16.4195   -5.3108 O   0  0  0  0  0  0  0  0  0  0  0  0
   33.7259   15.4599   -6.6143 H   0  0  0  0  0  0  0  0  0  0  0  0
   34.6768   13.5521   -5.9215 H   0  0  0  0  0  0  0  0  0  0  0  0
   42.0709   12.7225   -4.3536 H   0  0  0  0  0  0  0  0  0  0  0  0
   43.5630   13.1526   -6.6068 H   0  0  0  0  0  0  0  0  0  0  0  0
   37.9517   16.9868   -6.1185 H   0  0  0  0  0  0  0  0  0  0  0  0
   42.3533   15.1505   -8.8321 N   0  0  0  0  0  0  0  0  0  0  0  0
   43.0291   16.1008   -8.1709 C   0  0  0  0  0  0  0  0  0  0  0  0
   43.9983   16.6457   -8.9892 C   0  0  0  0  0  0  0  0  0  0  0  0
   43.9003   16.0113  -10.1576 N   0  0  0  0  0  0  0  0  0  0  0  0
   42.9081   15.1077  -10.0666 C   0  0  0  0  0  0  0  0  0  0  0  0
   44.8504   17.6549   -8.5640 C   0  0  0  0  0  0  0  0  0  0  0  0
   45.8453   18.2125   -9.4079 N   0  0  0  0  0  0  0  0  0  0  0  0
   44.6760   18.0769   -7.2934 N   0  0  0  0  0  0  0  0  0  0  0  0
   43.7302   17.5518   -6.4807 C   0  0  0  0  0  0  0  0  0  0  0  0
   42.9111   16.5729   -6.9082 N   0  0  0  0  0  0  0  0  0  0  0  0
   46.1825   19.1829   -9.2538 H   0  0  0  0  0  0  0  0  0  0  0  0
   46.2622   17.6771  -10.1947 H   0  0  0  0  0  0  0  0  0  0  0  0
   36.0431   16.7921   -9.1402 O   0  0  0  0  0  0  0  0  0  0  0  0
   38.3632   17.7716  -10.3511 O   0  0  0  0  0  0  0  0  0  0  0  0
   37.0738   16.6897  -10.4718 P   0  0  0  0  0  0  0  0  0  0  0  0
   36.2797   17.0518  -11.7011 O   0  0  0  0  0  0  0  0  0  0  0  0
   37.7120   15.1430  -10.6489 O   0  0  0  0  0  0  0  0  0  0  0  0
   39.1346   17.4928  -10.8741 H   0  0  0  0  0  0  0  0  0  0  0  0
   38.1656   15.0914  -11.5134 H   0  0  0  0  0  0  0  0  0  0  0  0
 39 40  1  0  0  0
 40 41  2  0  0  0
 40 42  1  0  0  0
 40 38  1  0  0  0
 38  1  1  0  0  0
  1  2  1  0  0  0
  2  3  1  0  0  0
  2  4  1  0  0  0
  4  5  1  0  0  0
  4  6  1  0  0  0
  6  7  1  0  0  0
  7  8  2  0  0  0
  7  9  1  0  0  0
  9 10  1  0  0  0
 10 11  1  0  0  0
 11 12  1  0  0  0
 11 13  1  0  0  0
 13 14  1  0  0  0
 13 15  1  0  0  0
 15 26  1  0  0  0
 26 27  1  0  0  0
 27 28  2  0  0  0
 28 29  1  0  0  0
 29 30  2  0  0  0
 28 31  1  0  0  0
 31 32  1  0  0  0
 31 33  2  0  0  0
 33 34  1  0  0  0
 34 35  2  0  0  0
 15 16  1  0  0  0
 16 17  1  0  0  0
 17 18  1  0  0  0
 18 19  1  0  0  0
  6 20  1  0  0  0
 19  1  1  0  0  0
 18  6  1  0  0  0
 17 10  1  0  0  0
 30 26  1  0  0  0
 35 27  1  0  0  0
 39 43  1  0  0  0
 42 44  1  0  0  0
  3 21  1  0  0  0
  5 22  1  0  0  0
 12 23  1  0  0  0
 14 24  1  0  0  0
 32 36  1  0  0  0
 32 37  1  0  0  0
 20 25  1  0  0  0
M  END
> <minimizedAffinity>
-7.11933

> <CNNscore>
0.3050296605

> <CNNaffinity>
4.2689723969

> <CNN_VS>
1.3021632433

> <CNNaffinity_variance>
0.5349849463

$$$$
[H]O[C@@]1([H])[C@]([H])(O[H])[C@@]2([H])OC(=O)[C@@]3(O[H])[C@@]([H])(O[C@]([H])(OP(=O)(O[H])O[H])[C@@]([H])(O[H])[C@@]3([H])O[H])[C@]2([H])O[C@@]1([H])n1c([H])nc2c(N([H])[H])nc([H])nc21


 44 48  0  0  0  0  0  0  0  0999 V2000
   38.4398   15.5977   -7.4943 C   0  0  0  0  0  0  0  0  0  0  0  0
   38.1137   15.1802   -6.0739 C   0  0  0  0  0  0  0  0  0  0  0  0
   36.7544   15.1316   -5.8856 O   0  0  0  0  0  0  0  0  0  0  0  0
   38.7526   13.8056   -5.8359 C   0  0  0  0  0  0  0  0  0  0  0  0
   38.1682   12.9101   -6.6987 O   0  0  0  0  0  0  0  0  0  0  0  0
   40.2219   13.9710   -6.0868 C   0  0  0  0  0  0  0  0  0  0  0  0
   41.0189   12.7646   -5.8719 C   0  0  0  0  0  0  0  0  0  0  0  0
   40.6513   11.9253   -5.0135 O   0  0  0  0  0  0  0  0  0  0  0  0
   42.1751   12.5045   -6.5824 O   0  0  0  0  0  0  0  0  0  0  0  0
   42.3574   13.1075   -7.8271 C   0  0  0  0  0  0  0  0  0  0  0  0
   43.8275   13.1456   -8.2508 C   0  0  0  0  0  0  0  0  0  0  0  0
   44.3791   11.8777   -8.2703 O   0  0  0  0  0  0  0  0  0  0  0  0
   43.7617   13.6916   -9.6786 C   0  0  0  0  0  0  0  0  0  0  0  0
   45.0716   13.8352  -10.1911 O   0  0  0  0  0  0  0  0  0  0  0  0
   42.9665   14.9268   -9.7998 C   0  0  0  0  0  0  0  0  0  0  0  0
   42.2155   15.3296   -8.7759 O   0  0  0  0  0  0  0  0  0  0  0  0
   41.8910   14.5240   -7.7643 C   0  0  0  0  0  0  0  0  0  0  0  0
   40.3764   14.4687   -7.5172 C   0  0  0  0  0  0  0  0  0  0  0  0
   39.8098   15.7248   -7.6748 O   0  0  0  0  0  0  0  0  0  0  0  0
   40.7151   14.9775   -5.2583 O   0  0  0  0  0  0  0  0  0  0  0  0
   36.4311   14.2365   -5.6019 H   0  0  0  0  0  0  0  0  0  0  0  0
   37.4874   12.3536   -6.2040 H   0  0  0  0  0  0  0  0  0  0  0  0
   44.9652   11.8012   -7.4676 H   0  0  0  0  0  0  0  0  0  0  0  0
   45.6811   13.3890   -9.5782 H   0  0  0  0  0  0  0  0  0  0  0  0
   40.6456   15.8675   -5.7148 H   0  0  0  0  0  0  0  0  0  0  0  0
   43.8974   16.0194  -10.1320 N   0  0  0  0  0  0  0  0  0  0  0  0
   44.3861   16.3649  -11.3315 C   0  0  0  0  0  0  0  0  0  0  0  0
   45.2293   17.4503  -11.2019 C   0  0  0  0  0  0  0  0  0  0  0  0
   45.2449   17.7583   -9.9050 N   0  0  0  0  0  0  0  0  0  0  0  0
   44.4418   16.8964   -9.2557 C   0  0  0  0  0  0  0  0  0  0  0  0
   45.8785   18.0224  -12.2867 C   0  0  0  0  0  0  0  0  0  0  0  0
   46.7443   19.1379  -12.1497 N   0  0  0  0  0  0  0  0  0  0  0  0
   45.6362   17.4519  -13.4862 N   0  0  0  0  0  0  0  0  0  0  0  0
   44.8122   16.3881  -13.6275 C   0  0  0  0  0  0  0  0  0  0  0  0
   44.1896   15.8443  -12.5651 N   0  0  0  0  0  0  0  0  0  0  0  0
   47.5071   19.2994  -12.8362 H   0  0  0  0  0  0  0  0  0  0  0  0
   46.6453   19.8186  -11.3709 H   0  0  0  0  0  0  0  0  0  0  0  0
   37.8733   16.8438   -7.7574 O   0  0  0  0  0  0  0  0  0  0  0  0
   37.3809   18.7964   -9.6948 O   0  0  0  0  0  0  0  0  0  0  0  0
   38.0113   17.2618   -9.3860 P   0  0  0  0  0  0  0  0  0  0  0  0
   37.2155   16.2647  -10.1891 O   0  0  0  0  0  0  0  0  0  0  0  0
   39.6135   17.2484   -9.8996 O   0  0  0  0  0  0  0  0  0  0  0  0
   37.7632   19.2036  -10.4913 H   0  0  0  0  0  0  0  0  0  0  0  0
   39.6281   17.3353  -10.8733 H   0  0  0  0  0  0  0  0  0  0  0  0
 39 40  1  0  0  0
 40 41  2  0  0  0
 40 42  1  0  0  0
 40 38  1  0  0  0
 38  1  1  0  0  0
  1  2  1  0  0  0
  2  3  1  0  0  0
  2  4  1  0  0  0
  4  5  1  0  0  0
  4  6  1  0  0  0
  6  7  1  0  0  0
  7  8  2  0  0  0
  7  9  1  0  0  0
  9 10  1  0  0  0
 10 11  1  0  0  0
 11 12  1  0  0  0
 11 13  1  0  0  0
 13 14  1  0  0  0
 13 15  1  0  0  0
 15 26  1  0  0  0
 26 27  1  0  0  0
 27 28  2  0  0  0
 28 29  1  0  0  0
 29 30  2  0  0  0
 28 31  1  0  0  0
 31 32  1  0  0  0
 31 33  2  0  0  0
 33 34  1  0  0  0
 34 35  2  0  0  0
 15 16  1  0  0  0
 16 17  1  0  0  0
 17 18  1  0  0  0
 18 19  1  0  0  0
  6 20  1  0  0  0
 19  1  1  0  0  0
 18  6  1  0  0  0
 17 10  1  0  0  0
 30 26  1  0  0  0
 35 27  1  0  0  0
 39 43  1  0  0  0
 42 44  1  0  0  0
  3 21  1  0  0  0
  5 22  1  0  0  0
 12 23  1  0  0  0
 14 24  1  0  0  0
 32 36  1  0  0  0
 32 37  1  0  0  0
 20 25  1  0  0  0
M  END
> <minimizedAffinity>
-7.49278

> <CNNscore>
0.2327859849

> <CNNaffinity>
4.3801336288

> <CNN_VS>
1.0196337700

> <CNNaffinity_variance>
0.3527576029

$$$$
[H]O[C@@]1([H])[C@]([H])(O[H])[C@@]2([H])OC(=O)[C@@]3(O[H])[C@@]([H])(O[C@]([H])(OP(=O)(O[H])O[H])[C@@]([H])(O[H])[C@@]3([H])O[H])[C@]2([H])O[C@@]1([H])n1c([H])nc2c(N([H])[H])nc([H])nc21


 44 48  0  0  0  0  0  0  0  0999 V2000
   45.1301   14.6652   -8.2923 C   0  0  0  0  0  0  0  0  0  0  0  0
   45.3834   13.2682   -8.8237 C   0  0  0  0  0  0  0  0  0  0  0  0
   46.7270   13.0630   -9.0192 O   0  0  0  0  0  0  0  0  0  0  0  0
   44.8168   12.2732   -7.8023 C   0  0  0  0  0  0  0  0  0  0  0  0
   45.5137   12.4262   -6.6282 O   0  0  0  0  0  0  0  0  0  0  0  0
   43.3607   12.6000   -7.6537 C   0  0  0  0  0  0  0  0  0  0  0  0
   42.6277   11.7263   -6.7394 C   0  0  0  0  0  0  0  0  0  0  0  0
   42.9873   10.5309   -6.6047 O   0  0  0  0  0  0  0  0  0  0  0  0
   41.5414   12.1651   -6.0068 O   0  0  0  0  0  0  0  0  0  0  0  0
   41.4075   13.5280   -5.7410 C   0  0  0  0  0  0  0  0  0  0  0  0
   39.9704   13.9185   -5.3883 C   0  0  0  0  0  0  0  0  0  0  0  0
   39.5017   13.1925   -4.3087 O   0  0  0  0  0  0  0  0  0  0  0  0
   40.0997   15.3905   -4.9913 C   0  0  0  0  0  0  0  0  0  0  0  0
   38.8216   15.9121   -4.6856 O   0  0  0  0  0  0  0  0  0  0  0  0
   40.8227   16.2060   -5.9838 C   0  0  0  0  0  0  0  0  0  0  0  0
   41.4752   15.6068   -6.9788 O   0  0  0  0  0  0  0  0  0  0  0  0
   41.7792   14.3089   -6.9576 C   0  0  0  0  0  0  0  0  0  0  0  0
   43.2738   14.0495   -7.1965 C   0  0  0  0  0  0  0  0  0  0  0  0
   43.7703   14.9108   -8.1636 O   0  0  0  0  0  0  0  0  0  0  0  0
   42.7500   12.5388   -8.9052 O   0  0  0  0  0  0  0  0  0  0  0  0
   47.0854   12.2980   -8.4972 H   0  0  0  0  0  0  0  0  0  0  0  0
   46.1925   11.6855   -6.5347 H   0  0  0  0  0  0  0  0  0  0  0  0
   38.8679   12.5116   -4.6670 H   0  0  0  0  0  0  0  0  0  0  0  0
   38.2006   15.1652   -4.6331 H   0  0  0  0  0  0  0  0  0  0  0  0
   42.7950   13.4327   -9.3570 H   0  0  0  0  0  0  0  0  0  0  0  0
   39.8503   17.1381   -6.5806 N   0  0  0  0  0  0  0  0  0  0  0  0
   39.4483   17.2223   -7.8567 C   0  0  0  0  0  0  0  0  0  0  0  0
   38.5220   18.2367   -7.9930 C   0  0  0  0  0  0  0  0  0  0  0  0
   38.3677   18.7672   -6.7797 N   0  0  0  0  0  0  0  0  0  0  0  0
   39.1683   18.1063   -5.9242 C   0  0  0  0  0  0  0  0  0  0  0  0
   37.9342   18.5495   -9.2104 C   0  0  0  0  0  0  0  0  0  0  0  0
   36.9825   19.5928   -9.3467 N   0  0  0  0  0  0  0  0  0  0  0  0
   38.3234   17.7986  -10.2629 N   0  0  0  0  0  0  0  0  0  0  0  0
   39.2302   16.8015  -10.1434 C   0  0  0  0  0  0  0  0  0  0  0  0
   39.7916   16.5102   -8.9551 N   0  0  0  0  0  0  0  0  0  0  0  0
   36.8599   20.0776  -10.2573 H   0  0  0  0  0  0  0  0  0  0  0  0
   36.3867   19.9009   -8.5531 H   0  0  0  0  0  0  0  0  0  0  0  0
   45.6343   15.6055   -9.1893 O   0  0  0  0  0  0  0  0  0  0  0  0
   42.9808   16.4443   -8.9368 O   0  0  0  0  0  0  0  0  0  0  0  0
   44.4149   16.5896   -9.8143 P   0  0  0  0  0  0  0  0  0  0  0  0
   44.1392   16.1442  -11.2279 O   0  0  0  0  0  0  0  0  0  0  0  0
   44.8601   18.2121   -9.8116 O   0  0  0  0  0  0  0  0  0  0  0  0
   42.4099   17.2273   -9.0223 H   0  0  0  0  0  0  0  0  0  0  0  0
   44.1985   18.7165  -10.3253 H   0  0  0  0  0  0  0  0  0  0  0  0
 39 40  1  0  0  0
 40 41  2  0  0  0
 40 42  1  0  0  0
 40 38  1  0  0  0
 38  1  1  0  0  0
  1  2  1  0  0  0
  2  3  1  0  0  0
  2  4  1  0  0  0
  4  5  1  0  0  0
  4  6  1  0  0  0
  6  7  1  0  0  0
  7  8  2  0  0  0
  7  9  1  0  0  0
  9 10  1  0  0  0
 10 11  1  0  0  0
 11 12  1  0  0  0
 11 13  1  0  0  0
 13 14  1  0  0  0
 13 15  1  0  0  0
 15 26  1  0  0  0
 26 27  1  0  0  0
 27 28  2  0  0  0
 28 29  1  0  0  0
 29 30  2  0  0  0
 28 31  1  0  0  0
 31 32  1  0  0  0
 31 33  2  0  0  0
 33 34  1  0  0  0
 34 35  2  0  0  0
 15 16  1  0  0  0
 16 17  1  0  0  0
 17 18  1  0  0  0
 18 19  1  0  0  0
  6 20  1  0  0  0
 19  1  1  0  0  0
 18  6  1  0  0  0
 17 10  1  0  0  0
 30 26  1  0  0  0
 35 27  1  0  0  0
 39 43  1  0  0  0
 42 44  1  0  0  0
  3 21  1  0  0  0
  5 22  1  0  0  0
 12 23  1  0  0  0
 14 24  1  0  0  0
 32 36  1  0  0  0
 32 37  1  0  0  0
 20 25  1  0  0  0
M  END
> <minimizedAffinity>
-5.03657

> <CNNscore>
0.1844392717

> <CNNaffinity>
3.9817252159

> <CNN_VS>
0.7343865037

> <CNNaffinity_variance>
0.3651669621

$$$$
[H]O[C@@]1([H])[C@]([H])(O[H])[C@@]2([H])OC(=O)[C@@]3(O[H])[C@@]([H])(O[C@]([H])(OP(=O)(O[H])O[H])[C@@]([H])(O[H])[C@@]3([H])O[H])[C@]2([H])O[C@@]1([H])n1c([H])nc2c(N([H])[H])nc([H])nc21


 44 48  0  0  0  0  0  0  0  0999 V2000
   37.3336   14.3822   -8.9562 C   0  0  0  0  0  0  0  0  0  0  0  0
   36.3983   14.7111   -7.8094 C   0  0  0  0  0  0  0  0  0  0  0  0
   35.1292   14.2608   -8.0781 O   0  0  0  0  0  0  0  0  0  0  0  0
   36.9623   14.0483   -6.5457 C   0  0  0  0  0  0  0  0  0  0  0  0
   36.9537   12.6881   -6.7392 O   0  0  0  0  0  0  0  0  0  0  0  0
   38.3469   14.5944   -6.3617 C   0  0  0  0  0  0  0  0  0  0  0  0
   39.0445   14.1056   -5.1737 C   0  0  0  0  0  0  0  0  0  0  0  0
   38.3838   13.7983   -4.1512 O   0  0  0  0  0  0  0  0  0  0  0  0
   40.4183   13.9651   -5.1269 O   0  0  0  0  0  0  0  0  0  0  0  0
   41.1266   13.8160   -6.3195 C   0  0  0  0  0  0  0  0  0  0  0  0
   42.6073   14.1735   -6.1709 C   0  0  0  0  0  0  0  0  0  0  0  0
   43.2108   13.4189   -5.1816 O   0  0  0  0  0  0  0  0  0  0  0  0
   43.1938   13.7887   -7.5306 C   0  0  0  0  0  0  0  0  0  0  0  0
   44.5688   14.1168   -7.5627 O   0  0  0  0  0  0  0  0  0  0  0  0
   42.4498   14.3503   -8.6724 C   0  0  0  0  0  0  0  0  0  0  0  0
   41.2633   14.9208   -8.4686 O   0  0  0  0  0  0  0  0  0  0  0  0
   40.5628   14.7380   -7.3491 C   0  0  0  0  0  0  0  0  0  0  0  0
   39.1307   14.2555   -7.6220 C   0  0  0  0  0  0  0  0  0  0  0  0
   38.6012   14.8999   -8.7301 O   0  0  0  0  0  0  0  0  0  0  0  0
   38.2828   15.9851   -6.2932 O   0  0  0  0  0  0  0  0  0  0  0  0
   34.7910   13.6184   -7.4004 H   0  0  0  0  0  0  0  0  0  0  0  0
   36.1717   12.2785   -6.2506 H   0  0  0  0  0  0  0  0  0  0  0  0
   43.3377   14.0166   -4.3941 H   0  0  0  0  0  0  0  0  0  0  0  0
   44.8416   14.3431   -6.6568 H   0  0  0  0  0  0  0  0  0  0  0  0
   38.3637   16.3815   -7.2106 H   0  0  0  0  0  0  0  0  0  0  0  0
   43.3221   15.3454   -9.3201 N   0  0  0  0  0  0  0  0  0  0  0  0
   43.9384   15.2688  -10.5081 C   0  0  0  0  0  0  0  0  0  0  0  0
   44.6619   16.4217  -10.7388 C   0  0  0  0  0  0  0  0  0  0  0  0
   44.4752   17.1995   -9.6724 N   0  0  0  0  0  0  0  0  0  0  0  0
   43.6666   16.5529   -8.8135 C   0  0  0  0  0  0  0  0  0  0  0  0
   45.4020   16.6172  -11.8962 C   0  0  0  0  0  0  0  0  0  0  0  0
   46.1443   17.8034  -12.1299 N   0  0  0  0  0  0  0  0  0  0  0  0
   45.3737   15.6067  -12.7913 N   0  0  0  0  0  0  0  0  0  0  0  0
   44.6690   14.4715  -12.5780 C   0  0  0  0  0  0  0  0  0  0  0  0
   43.9558   14.2970  -11.4497 N   0  0  0  0  0  0  0  0  0  0  0  0
   46.9770   17.7893  -12.7509 H   0  0  0  0  0  0  0  0  0  0  0  0
   45.8835   18.7101  -11.6946 H   0  0  0  0  0  0  0  0  0  0  0  0
   36.8563   14.9624  -10.1304 O   0  0  0  0  0  0  0  0  0  0  0  0
   37.5673   17.3884   -8.9399 O   0  0  0  0  0  0  0  0  0  0  0  0
   37.5021   16.5017  -10.3742 P   0  0  0  0  0  0  0  0  0  0  0  0
   36.5989   17.2366  -11.3317 O   0  0  0  0  0  0  0  0  0  0  0  0
   39.0586   16.4315  -11.0094 O   0  0  0  0  0  0  0  0  0  0  0  0
   38.2416   18.0891   -8.9646 H   0  0  0  0  0  0  0  0  0  0  0  0
   39.3235   17.3323  -11.2822 H   0  0  0  0  0  0  0  0  0  0  0  0
 39 40  1  0  0  0
 40 41  2  0  0  0
 40 42  1  0  0  0
 40 38  1  0  0  0
 38  1  1  0  0  0
  1  2  1  0  0  0
  2  3  1  0  0  0
  2  4  1  0  0  0
  4  5  1  0  0  0
  4  6  1  0  0  0
  6  7  1  0  0  0
  7  8  2  0  0  0
  7  9  1  0  0  0
  9 10  1  0  0  0
 10 11  1  0  0  0
 11 12  1  0  0  0
 11 13  1  0  0  0
 13 14  1  0  0  0
 13 15  1  0  0  0
 15 26  1  0  0  0
 26 27  1  0  0  0
 27 28  2  0  0  0
 28 29  1  0  0  0
 29 30  2  0  0  0
 28 31  1  0  0  0
 31 32  1  0  0  0
 31 33  2  0  0  0
 33 34  1  0  0  0
 34 35  2  0  0  0
 15 16  1  0  0  0
 16 17  1  0  0  0
 17 18  1  0  0  0
 18 19  1  0  0  0
  6 20  1  0  0  0
 19  1  1  0  0  0
 18  6  1  0  0  0
 17 10  1  0  0  0
 30 26  1  0  0  0
 35 27  1  0  0  0
 39 43  1  0  0  0
 42 44  1  0  0  0
  3 21  1  0  0  0
  5 22  1  0  0  0
 12 23  1  0  0  0
 14 24  1  0  0  0
 32 36  1  0  0  0
 32 37  1  0  0  0
 20 25  1  0  0  0
M  END
> <minimizedAffinity>
-7.14240

> <CNNscore>
0.1796357036

> <CNNaffinity>
4.1059689522

> <CNN_VS>
0.7375786304

> <CNNaffinity_variance>
0.2856650949

$$$$
[H]O[C@@]1([H])[C@]([H])(O[H])[C@@]2([H])OC(=O)[C@@]3(O[H])[C@@]([H])(O[C@]([H])(OP(=O)(O[H])O[H])[C@@]([H])(O[H])[C@@]3([H])O[H])[C@]2([H])O[C@@]1([H])n1c([H])nc2c(N([H])[H])nc([H])nc21


 44 48  0  0  0  0  0  0  0  0999 V2000
   35.1478   13.9787  -11.8888 C   0  0  0  0  0  0  0  0  0  0  0  0
   34.6640   15.2937  -11.3100 C   0  0  0  0  0  0  0  0  0  0  0  0
   33.6255   15.0830  -10.4366 O   0  0  0  0  0  0  0  0  0  0  0  0
   35.8539   15.9550  -10.6022 C   0  0  0  0  0  0  0  0  0  0  0  0
   36.2399   15.1385   -9.5668 O   0  0  0  0  0  0  0  0  0  0  0  0
   36.9269   16.1176  -11.6373 C   0  0  0  0  0  0  0  0  0  0  0  0
   38.1433   16.7726  -11.1599 C   0  0  0  0  0  0  0  0  0  0  0  0
   38.0670   17.6250  -10.2412 O   0  0  0  0  0  0  0  0  0  0  0  0
   39.3906   16.4903  -11.6832 O   0  0  0  0  0  0  0  0  0  0  0  0
   39.6003   15.2645  -12.3153 C   0  0  0  0  0  0  0  0  0  0  0  0
   40.8071   15.2884  -13.2561 C   0  0  0  0  0  0  0  0  0  0  0  0
   41.9588   15.6630  -12.5885 O   0  0  0  0  0  0  0  0  0  0  0  0
   40.9297   13.8287  -13.6981 C   0  0  0  0  0  0  0  0  0  0  0  0
   41.9875   13.7032  -14.6280 O   0  0  0  0  0  0  0  0  0  0  0  0
   39.6657   13.2569  -14.1962 C   0  0  0  0  0  0  0  0  0  0  0  0
   38.5267   13.9255  -14.0219 O   0  0  0  0  0  0  0  0  0  0  0  0
   38.4101   14.9281  -13.1509 C   0  0  0  0  0  0  0  0  0  0  0  0
   37.2409   14.7286  -12.1755 C   0  0  0  0  0  0  0  0  0  0  0  0
   36.1457   14.1855  -12.8307 O   0  0  0  0  0  0  0  0  0  0  0  0
   36.4206   16.8551  -12.7063 O   0  0  0  0  0  0  0  0  0  0  0  0
   33.8111   15.4190   -9.5207 H   0  0  0  0  0  0  0  0  0  0  0  0
   35.8926   15.5063   -8.6939 H   0  0  0  0  0  0  0  0  0  0  0  0
   42.1606   16.6015  -12.8571 H   0  0  0  0  0  0  0  0  0  0  0  0
   42.4868   14.5380  -14.6246 H   0  0  0  0  0  0  0  0  0  0  0  0
   36.0075   16.2432  -13.3848 H   0  0  0  0  0  0  0  0  0  0  0  0
   39.8297   13.0165  -15.6405 N   0  0  0  0  0  0  0  0  0  0  0  0
   39.1551   12.1668  -16.4279 C   0  0  0  0  0  0  0  0  0  0  0  0
   39.6230   12.2529  -17.7238 C   0  0  0  0  0  0  0  0  0  0  0  0
   40.5923   13.1681  -17.7109 N   0  0  0  0  0  0  0  0  0  0  0  0
   40.7200   13.6314  -16.4546 C   0  0  0  0  0  0  0  0  0  0  0  0
   39.1044   11.4832  -18.7553 C   0  0  0  0  0  0  0  0  0  0  0  0
   39.5878   11.5743  -20.0860 N   0  0  0  0  0  0  0  0  0  0  0  0
   38.1074   10.6382  -18.4160 N   0  0  0  0  0  0  0  0  0  0  0  0
   37.6393   10.5437  -17.1500 C   0  0  0  0  0  0  0  0  0  0  0  0
   38.1531   11.2976  -16.1602 N   0  0  0  0  0  0  0  0  0  0  0  0
   39.5053   10.7653  -20.7324 H   0  0  0  0  0  0  0  0  0  0  0  0
   40.0328   12.4392  -20.4514 H   0  0  0  0  0  0  0  0  0  0  0  0
   34.0946   13.3384  -12.5399 O   0  0  0  0  0  0  0  0  0  0  0  0
   34.5784   14.5815  -14.9953 O   0  0  0  0  0  0  0  0  0  0  0  0
   34.4187   13.1127  -14.1800 P   0  0  0  0  0  0  0  0  0  0  0  0
   33.2530   12.3724  -14.7849 O   0  0  0  0  0  0  0  0  0  0  0  0
   35.8318   12.2317  -14.4210 O   0  0  0  0  0  0  0  0  0  0  0  0
   35.1099   14.5025  -15.8062 H   0  0  0  0  0  0  0  0  0  0  0  0
   35.8894   11.9898  -15.3666 H   0  0  0  0  0  0  0  0  0  0  0  0
 39 40  1  0  0  0
 40 41  2  0  0  0
 40 42  1  0  0  0
 40 38  1  0  0  0
 38  1  1  0  0  0
  1  2  1  0  0  0
  2  3  1  0  0  0
  2  4  1  0  0  0
  4  5  1  0  0  0
  4  6  1  0  0  0
  6  7  1  0  0  0
  7  8  2  0  0  0
  7  9  1  0  0  0
  9 10  1  0  0  0
 10 11  1  0  0  0
 11 12  1  0  0  0
 11 13  1  0  0  0
 13 14  1  0  0  0
 13 15  1  0  0  0
 15 26  1  0  0  0
 26 27  1  0  0  0
 27 28  2  0  0  0
 28 29  1  0  0  0
 29 30  2  0  0  0
 28 31  1  0  0  0
 31 32  1  0  0  0
 31 33  2  0  0  0
 33 34  1  0  0  0
 34 35  2  0  0  0
 15 16  1  0  0  0
 16 17  1  0  0  0
 17 18  1  0  0  0
 18 19  1  0  0  0
  6 20  1  0  0  0
 19  1  1  0  0  0
 18  6  1  0  0  0
 17 10  1  0  0  0
 30 26  1  0  0  0
 35 27  1  0  0  0
 39 43  1  0  0  0
 42 44  1  0  0  0
  3 21  1  0  0  0
  5 22  1  0  0  0
 12 23  1  0  0  0
 14 24  1  0  0  0
 32 36  1  0  0  0
 32 37  1  0  0  0
 20 25  1  0  0  0
M  END
> <minimizedAffinity>
-8.08703

> <CNNscore>
0.1740176976

> <CNNaffinity>
4.6403284073

> <CNN_VS>
0.8074992895

> <CNNaffinity_variance>
0.7190119028

$$$$
[H]O[C@@]1([H])[C@]([H])(O[H])[C@@]2([H])OC(=O)[C@@]3(O[H])[C@@]([H])(O[C@]([H])(OP(=O)(O[H])O[H])[C@@]([H])(O[H])[C@@]3([H])O[H])[C@]2([H])O[C@@]1([H])n1c([H])nc2c(N([H])[H])nc([H])nc21


 44 48  0  0  0  0  0  0  0  0999 V2000
   36.8191   15.8540   -8.8584 C   0  0  0  0  0  0  0  0  0  0  0  0
   35.8916   16.2632   -7.7312 C   0  0  0  0  0  0  0  0  0  0  0  0
   34.6190   16.4684   -8.2044 O   0  0  0  0  0  0  0  0  0  0  0  0
   35.9155   15.1447   -6.6812 C   0  0  0  0  0  0  0  0  0  0  0  0
   35.4175   14.0043   -7.2635 O   0  0  0  0  0  0  0  0  0  0  0  0
   37.3450   14.9948   -6.2529 C   0  0  0  0  0  0  0  0  0  0  0  0
   37.5707   13.9902   -5.2153 C   0  0  0  0  0  0  0  0  0  0  0  0
   36.6685   13.7566   -4.3740 O   0  0  0  0  0  0  0  0  0  0  0  0
   38.7502   13.2768   -5.1193 O   0  0  0  0  0  0  0  0  0  0  0  0
   39.5502   13.1315   -6.2528 C   0  0  0  0  0  0  0  0  0  0  0  0
   41.0000   12.7845   -5.9071 C   0  0  0  0  0  0  0  0  0  0  0  0
   41.0742   11.6343   -5.1429 O   0  0  0  0  0  0  0  0  0  0  0  0
   41.6293   12.5241   -7.2772 C   0  0  0  0  0  0  0  0  0  0  0  0
   43.0052   12.2390   -7.1194 O   0  0  0  0  0  0  0  0  0  0  0  0
   41.3813   13.6011   -8.2526 C   0  0  0  0  0  0  0  0  0  0  0  0
   40.4918   14.5520   -7.9715 O   0  0  0  0  0  0  0  0  0  0  0  0
   39.5839   14.4210   -7.0039 C   0  0  0  0  0  0  0  0  0  0  0  0
   38.1522   14.6677   -7.5015 C   0  0  0  0  0  0  0  0  0  0  0  0
   38.1241   15.7186   -8.4062 O   0  0  0  0  0  0  0  0  0  0  0  0
   37.8118   16.2223   -5.7858 O   0  0  0  0  0  0  0  0  0  0  0  0
   33.9417   15.8876   -7.7683 H   0  0  0  0  0  0  0  0  0  0  0  0
   34.4632   13.8594   -6.9696 H   0  0  0  0  0  0  0  0  0  0  0  0
   41.2766   11.9163   -4.2085 H   0  0  0  0  0  0  0  0  0  0  0  0
   43.1744   12.1063   -6.1708 H   0  0  0  0  0  0  0  0  0  0  0  0
   38.2050   16.7534   -6.5399 H   0  0  0  0  0  0  0  0  0  0  0  0
   42.6724   14.2581   -8.5213 N   0  0  0  0  0  0  0  0  0  0  0  0
   43.6273   13.8993   -9.3909 C   0  0  0  0  0  0  0  0  0  0  0  0
   44.6803   14.7899   -9.3285 C   0  0  0  0  0  0  0  0  0  0  0  0
   44.3497   15.6951   -8.4073 N   0  0  0  0  0  0  0  0  0  0  0  0
   43.1378   15.3772   -7.9176 C   0  0  0  0  0  0  0  0  0  0  0  0
   45.8113   14.6625  -10.1222 C   0  0  0  0  0  0  0  0  0  0  0  0
   46.8915   15.5797  -10.0552 N   0  0  0  0  0  0  0  0  0  0  0  0
   45.8231   13.6086  -10.9662 N   0  0  0  0  0  0  0  0  0  0  0  0
   44.7981   12.7283  -11.0377 C   0  0  0  0  0  0  0  0  0  0  0  0
   43.7074   12.8657  -10.2608 N   0  0  0  0  0  0  0  0  0  0  0  0
   47.8515   15.2822  -10.3179 H   0  0  0  0  0  0  0  0  0  0  0  0
   46.7597   16.5630   -9.7463 H   0  0  0  0  0  0  0  0  0  0  0  0
   36.8253   16.8424   -9.8413 O   0  0  0  0  0  0  0  0  0  0  0  0
   38.3035   18.3942   -8.0482 O   0  0  0  0  0  0  0  0  0  0  0  0
   38.1234   17.9032   -9.6527 P   0  0  0  0  0  0  0  0  0  0  0  0
   37.8436   19.1299  -10.4831 O   0  0  0  0  0  0  0  0  0  0  0  0
   39.5739   17.2077  -10.1460 O   0  0  0  0  0  0  0  0  0  0  0  0
   39.2106   18.6810   -7.8452 H   0  0  0  0  0  0  0  0  0  0  0  0
   40.2594   17.9044  -10.1714 H   0  0  0  0  0  0  0  0  0  0  0  0
 39 40  1  0  0  0
 40 41  2  0  0  0
 40 42  1  0  0  0
 40 38  1  0  0  0
 38  1  1  0  0  0
  1  2  1  0  0  0
  2  3  1  0  0  0
  2  4  1  0  0  0
  4  5  1  0  0  0
  4  6  1  0  0  0
  6  7  1  0  0  0
  7  8  2  0  0  0
  7  9  1  0  0  0
  9 10  1  0  0  0
 10 11  1  0  0  0
 11 12  1  0  0  0
 11 13  1  0  0  0
 13 14  1  0  0  0
 13 15  1  0  0  0
 15 26  1  0  0  0
 26 27  1  0  0  0
 27 28  2  0  0  0
 28 29  1  0  0  0
 29 30  2  0  0  0
 28 31  1  0  0  0
 31 32  1  0  0  0
 31 33  2  0  0  0
 33 34  1  0  0  0
 34 35  2  0  0  0
 15 16  1  0  0  0
 16 17  1  0  0  0
 17 18  1  0  0  0
 18 19  1  0  0  0
  6 20  1  0  0  0
 19  1  1  0  0  0
 18  6  1  0  0  0
 17 10  1  0  0  0
 30 26  1  0  0  0
 35 27  1  0  0  0
 39 43  1  0  0  0
 42 44  1  0  0  0
  3 21  1  0  0  0
  5 22  1  0  0  0
 12 23  1  0  0  0
 14 24  1  0  0  0
 32 36  1  0  0  0
 32 37  1  0  0  0
 20 25  1  0  0  0
M  END
> <minimizedAffinity>
-7.12155

> <CNNscore>
0.1650646925

> <CNNaffinity>
4.1671690941

> <CNN_VS>
0.6878525019

> <CNNaffinity_variance>
0.4721150398

$$$$
[H]O[C@@]1([H])[C@]([H])(O[H])[C@@]2([H])OC(=O)[C@@]3(O[H])[C@@]([H])(O[C@]([H])(OP(=O)(O[H])O[H])[C@@]([H])(O[H])[C@@]3([H])O[H])[C@]2([H])O[C@@]1([H])n1c([H])nc2c(N([H])[H])nc([H])nc21


 44 48  0  0  0  0  0  0  0  0999 V2000
   47.0023   12.0990   -9.2989 C   0  0  0  0  0  0  0  0  0  0  0  0
   46.7484   11.6129   -7.8856 C   0  0  0  0  0  0  0  0  0  0  0  0
   47.9327   11.3127   -7.2589 O   0  0  0  0  0  0  0  0  0  0  0  0
   45.9967   12.7239   -7.1406 C   0  0  0  0  0  0  0  0  0  0  0  0
   46.8154   13.8257   -7.0823 O   0  0  0  0  0  0  0  0  0  0  0  0
   44.7402   12.9814   -7.9178 C   0  0  0  0  0  0  0  0  0  0  0  0
   43.8596   13.9945   -7.3391 C   0  0  0  0  0  0  0  0  0  0  0  0
   43.8336   14.1529   -6.0939 O   0  0  0  0  0  0  0  0  0  0  0  0
   43.0435   14.7963   -8.1139 O   0  0  0  0  0  0  0  0  0  0  0  0
   43.3739   15.0095   -9.4523 C   0  0  0  0  0  0  0  0  0  0  0  0
   42.1751   15.4655  -10.2871 C   0  0  0  0  0  0  0  0  0  0  0  0
   41.6064   16.6136   -9.7667 O   0  0  0  0  0  0  0  0  0  0  0  0
   42.8010   15.7816  -11.6470 C   0  0  0  0  0  0  0  0  0  0  0  0
   41.7891   16.1713  -12.5545 O   0  0  0  0  0  0  0  0  0  0  0  0
   43.6462   14.6943  -12.1725 C   0  0  0  0  0  0  0  0  0  0  0  0
   43.9770   13.6758  -11.3800 O   0  0  0  0  0  0  0  0  0  0  0  0
   43.8551   13.7308  -10.0535 C   0  0  0  0  0  0  0  0  0  0  0  0
   45.1607   13.3770   -9.3264 C   0  0  0  0  0  0  0  0  0  0  0  0
   45.8092   12.3323   -9.9680 O   0  0  0  0  0  0  0  0  0  0  0  0
   44.0245   11.7910   -8.0342 O   0  0  0  0  0  0  0  0  0  0  0  0
   48.0789   11.8369   -6.4282 H   0  0  0  0  0  0  0  0  0  0  0  0
   47.2305   13.8948   -6.1653 H   0  0  0  0  0  0  0  0  0  0  0  0
   40.7585   16.3427   -9.3181 H   0  0  0  0  0  0  0  0  0  0  0  0
   40.9717   16.3112  -12.0461 H   0  0  0  0  0  0  0  0  0  0  0  0
   44.3065   11.2962   -8.8595 H   0  0  0  0  0  0  0  0  0  0  0  0
   42.9663   14.1406  -13.3564 N   0  0  0  0  0  0  0  0  0  0  0  0
   43.5040   13.5089  -14.4094 C   0  0  0  0  0  0  0  0  0  0  0  0
   42.5125   13.1504  -15.3006 C   0  0  0  0  0  0  0  0  0  0  0  0
   41.3644   13.5744  -14.7723 N   0  0  0  0  0  0  0  0  0  0  0  0
   41.6344   14.1728  -13.5982 C   0  0  0  0  0  0  0  0  0  0  0  0
   42.7830   12.4805  -16.4853 C   0  0  0  0  0  0  0  0  0  0  0  0
   41.7614   12.1137  -17.3988 N   0  0  0  0  0  0  0  0  0  0  0  0
   44.0823   12.1969  -16.7184 N   0  0  0  0  0  0  0  0  0  0  0  0
   45.0640   12.5422  -15.8537 C   0  0  0  0  0  0  0  0  0  0  0  0
   44.7853   13.1920  -14.7082 N   0  0  0  0  0  0  0  0  0  0  0  0
   41.9754   11.9973  -18.4087 H   0  0  0  0  0  0  0  0  0  0  0  0
   40.7817   11.9522  -17.0925 H   0  0  0  0  0  0  0  0  0  0  0  0
   47.6898   11.1197  -10.0140 O   0  0  0  0  0  0  0  0  0  0  0  0
   45.3553    9.8190  -10.8304 O   0  0  0  0  0  0  0  0  0  0  0  0
   46.7903   10.5563  -11.3253 P   0  0  0  0  0  0  0  0  0  0  0  0
   47.6179    9.5215  -12.0443 O   0  0  0  0  0  0  0  0  0  0  0  0
   46.3931   11.7982  -12.3887 O   0  0  0  0  0  0  0  0  0  0  0  0
   44.6739    9.8247  -11.5247 H   0  0  0  0  0  0  0  0  0  0  0  0
   46.0196   11.4034  -13.2015 H   0  0  0  0  0  0  0  0  0  0  0  0
 39 40  1  0  0  0
 40 41  2  0  0  0
 40 42  1  0  0  0
 40 38  1  0  0  0
 38  1  1  0  0  0
  1  2  1  0  0  0
  2  3  1  0  0  0
  2  4  1  0  0  0
  4  5  1  0  0  0
  4  6  1  0  0  0
  6  7  1  0  0  0
  7  8  2  0  0  0
  7  9  1  0  0  0
  9 10  1  0  0  0
 10 11  1  0  0  0
 11 12  1  0  0  0
 11 13  1  0  0  0
 13 14  1  0  0  0
 13 15  1  0  0  0
 15 26  1  0  0  0
 26 27  1  0  0  0
 27 28  2  0  0  0
 28 29  1  0  0  0
 29 30  2  0  0  0
 28 31  1  0  0  0
 31 32  1  0  0  0
 31 33  2  0  0  0
 33 34  1  0  0  0
 34 35  2  0  0  0
 15 16  1  0  0  0
 16 17  1  0  0  0
 17 18  1  0  0  0
 18 19  1  0  0  0
  6 20  1  0  0  0
 19  1  1  0  0  0
 18  6  1  0  0  0
 17 10  1  0  0  0
 30 26  1  0  0  0
 35 27  1  0  0  0
 39 43  1  0  0  0
 42 44  1  0  0  0
  3 21  1  0  0  0
  5 22  1  0  0  0
 12 23  1  0  0  0
 14 24  1  0  0  0
 32 36  1  0  0  0
 32 37  1  0  0  0
 20 25  1  0  0  0
M  END
> <minimizedAffinity>
-7.59573

> <CNNscore>
0.1053372547

> <CNNaffinity>
4.0526113510

> <CNN_VS>
0.4268909395

> <CNNaffinity_variance>
0.2460723370

$$$$
[H]O[C@@]1([H])[C@]([H])(O[H])[C@@]2([H])OC(=O)[C@@]3(O[H])[C@@]([H])(O[C@]([H])(OP(=O)(O[H])O[H])[C@@]([H])(O[H])[C@@]3([H])O[H])[C@]2([H])O[C@@]1([H])n1c([H])nc2c(N([H])[H])nc([H])nc21


 44 48  0  0  0  0  0  0  0  0999 V2000
   37.5888   15.2629  -11.3315 C   0  0  0  0  0  0  0  0  0  0  0  0
   36.7682   16.5371  -11.3671 C   0  0  0  0  0  0  0  0  0  0  0  0
   35.5634   16.3175  -11.9882 O   0  0  0  0  0  0  0  0  0  0  0  0
   36.5651   16.9991   -9.9181 C   0  0  0  0  0  0  0  0  0  0  0  0
   35.8420   16.0329   -9.2613 O   0  0  0  0  0  0  0  0  0  0  0  0
   37.9346   17.1874   -9.3364 C   0  0  0  0  0  0  0  0  0  0  0  0
   37.9523   17.6683   -7.9562 C   0  0  0  0  0  0  0  0  0  0  0  0
   37.0238   18.4077   -7.5469 O   0  0  0  0  0  0  0  0  0  0  0  0
   38.9605   17.3398   -7.0703 O   0  0  0  0  0  0  0  0  0  0  0  0
   39.7105   16.1847   -7.2931 C   0  0  0  0  0  0  0  0  0  0  0  0
   41.0593   16.2126   -6.5705 C   0  0  0  0  0  0  0  0  0  0  0  0
   40.8980   16.3993   -5.2098 O   0  0  0  0  0  0  0  0  0  0  0  0
   41.6178   14.8115   -6.8270 C   0  0  0  0  0  0  0  0  0  0  0  0
   42.9064   14.7037   -6.2549 O   0  0  0  0  0  0  0  0  0  0  0  0
   41.5933   14.4195   -8.2478 C   0  0  0  0  0  0  0  0  0  0  0  0
   40.9186   15.1621   -9.1241 O   0  0  0  0  0  0  0  0  0  0  0  0
   40.0060   16.0594   -8.7508 C   0  0  0  0  0  0  0  0  0  0  0  0
   38.6540   15.8504   -9.4484 C   0  0  0  0  0  0  0  0  0  0  0  0
   38.8395   15.4906  -10.7749 O   0  0  0  0  0  0  0  0  0  0  0  0
   38.6446   18.0903  -10.1261 O   0  0  0  0  0  0  0  0  0  0  0  0
   34.7826   16.5231  -11.4100 H   0  0  0  0  0  0  0  0  0  0  0  0
   34.8791   16.3231   -9.1797 H   0  0  0  0  0  0  0  0  0  0  0  0
   41.1566   17.3413   -5.0111 H   0  0  0  0  0  0  0  0  0  0  0  0
   43.0474   15.4838   -5.6912 H   0  0  0  0  0  0  0  0  0  0  0  0
   39.1364   17.6039  -10.8520 H   0  0  0  0  0  0  0  0  0  0  0  0
   42.9910   14.3403   -8.7072 N   0  0  0  0  0  0  0  0  0  0  0  0
   43.8711   15.3364   -8.8806 C   0  0  0  0  0  0  0  0  0  0  0  0
   45.0756   14.8290   -9.3251 C   0  0  0  0  0  0  0  0  0  0  0  0
   44.9129   13.5091   -9.4189 N   0  0  0  0  0  0  0  0  0  0  0  0
   43.6553   13.2103   -9.0465 C   0  0  0  0  0  0  0  0  0  0  0  0
   46.1721   15.6373   -9.5890 C   0  0  0  0  0  0  0  0  0  0  0  0
   47.4083   15.1122  -10.0458 N   0  0  0  0  0  0  0  0  0  0  0  0
   45.9920   16.9597   -9.3845 N   0  0  0  0  0  0  0  0  0  0  0  0
   44.8171   17.4705   -8.9491 C   0  0  0  0  0  0  0  0  0  0  0  0
   43.7624   16.6728   -8.6974 N   0  0  0  0  0  0  0  0  0  0  0  0
   48.0545   15.7003  -10.6077 H   0  0  0  0  0  0  0  0  0  0  0  0
   47.7030   14.1380   -9.8365 H   0  0  0  0  0  0  0  0  0  0  0  0
   37.7949   14.8027  -12.6310 O   0  0  0  0  0  0  0  0  0  0  0  0
   35.8651   13.7065  -14.3288 O   0  0  0  0  0  0  0  0  0  0  0  0
   36.8408   13.4547  -12.9752 P   0  0  0  0  0  0  0  0  0  0  0  0
   35.9376   13.2123  -11.7927 O   0  0  0  0  0  0  0  0  0  0  0  0
   37.7758   12.0851  -13.2598 O   0  0  0  0  0  0  0  0  0  0  0  0
   35.6024   12.8748  -14.7596 H   0  0  0  0  0  0  0  0  0  0  0  0
   37.1848   11.3070  -13.2924 H   0  0  0  0  0  0  0  0  0  0  0  0
 39 40  1  0  0  0
 40 41  2  0  0  0
 40 42  1  0  0  0
 40 38  1  0  0  0
 38  1  1  0  0  0
  1  2  1  0  0  0
  2  3  1  0  0  0
  2  4  1  0  0  0
  4  5  1  0  0  0
  4  6  1  0  0  0
  6  7  1  0  0  0
  7  8  2  0  0  0
  7  9  1  0  0  0
  9 10  1  0  0  0
 10 11  1  0  0  0
 11 12  1  0  0  0
 11 13  1  0  0  0
 13 14  1  0  0  0
 13 15  1  0  0  0
 15 26  1  0  0  0
 26 27  1  0  0  0
 27 28  2  0  0  0
 28 29  1  0  0  0
 29 30  2  0  0  0
 28 31  1  0  0  0
 31 32  1  0  0  0
 31 33  2  0  0  0
 33 34  1  0  0  0
 34 35  2  0  0  0
 15 16  1  0  0  0
 16 17  1  0  0  0
 17 18  1  0  0  0
 18 19  1  0  0  0
  6 20  1  0  0  0
 19  1  1  0  0  0
 18  6  1  0  0  0
 17 10  1  0  0  0
 30 26  1  0  0  0
 35 27  1  0  0  0
 39 43  1  0  0  0
 42 44  1  0  0  0
  3 21  1  0  0  0
  5 22  1  0  0  0
 12 23  1  0  0  0
 14 24  1  0  0  0
 32 36  1  0  0  0
 32 37  1  0  0  0
 20 25  1  0  0  0
M  END
> <minimizedAffinity>
-7.15731

> <CNNscore>
0.0967811421

> <CNNaffinity>
3.9991729259

> <CNN_VS>
0.3870445192

> <CNNaffinity_variance>
0.5415888429

$$$$
[H]O[C@@]1([H])[C@]([H])(O[H])[C@@]2([H])OC(=O)[C@@]3(O[H])[C@@]([H])(O[C@]([H])(OP(=O)(O[H])O[H])[C@@]([H])(O[H])[C@@]3([H])O[H])[C@]2([H])O[C@@]1([H])n1c([H])nc2c(N([H])[H])nc([H])nc21


 44 48  0  0  0  0  0  0  0  0999 V2000
   46.2063   13.1333  -13.2205 C   0  0  0  0  0  0  0  0  0  0  0  0
   46.9470   12.7361  -11.9589 C   0  0  0  0  0  0  0  0  0  0  0  0
   48.2974   12.6613  -12.1959 O   0  0  0  0  0  0  0  0  0  0  0  0
   46.6331   13.7872  -10.8860 C   0  0  0  0  0  0  0  0  0  0  0  0
   47.1243   14.9954  -11.3180 O   0  0  0  0  0  0  0  0  0  0  0  0
   45.1422   13.7971  -10.7244 C   0  0  0  0  0  0  0  0  0  0  0  0
   44.6432   14.7192   -9.7060 C   0  0  0  0  0  0  0  0  0  0  0  0
   45.3533   14.9761   -8.7029 O   0  0  0  0  0  0  0  0  0  0  0  0
   43.4068   15.3289   -9.8008 O   0  0  0  0  0  0  0  0  0  0  0  0
   42.8158   15.4741  -11.0561 C   0  0  0  0  0  0  0  0  0  0  0  0
   41.3021   15.6831  -10.9711 C   0  0  0  0  0  0  0  0  0  0  0  0
   40.9880   16.7781  -10.1870 O   0  0  0  0  0  0  0  0  0  0  0  0
   40.9108   15.9701  -12.4222 C   0  0  0  0  0  0  0  0  0  0  0  0
   39.5092   16.1342  -12.5106 O   0  0  0  0  0  0  0  0  0  0  0  0
   41.4268   14.9741  -13.3784 C   0  0  0  0  0  0  0  0  0  0  0  0
   42.3322   14.0831  -12.9769 O   0  0  0  0  0  0  0  0  0  0  0  0
   43.0342   14.2311  -11.8532 C   0  0  0  0  0  0  0  0  0  0  0  0
   44.5486   14.1291  -12.0864 C   0  0  0  0  0  0  0  0  0  0  0  0
   44.8342   13.1373  -13.0130 O   0  0  0  0  0  0  0  0  0  0  0  0
   44.7102   12.5113  -10.4033 O   0  0  0  0  0  0  0  0  0  0  0  0
   48.8297   13.2687  -11.6180 H   0  0  0  0  0  0  0  0  0  0  0  0
   47.9927   15.1995  -10.8465 H   0  0  0  0  0  0  0  0  0  0  0  0
   40.6458   16.4277   -9.3188 H   0  0  0  0  0  0  0  0  0  0  0  0
   39.1597   16.1984  -11.6051 H   0  0  0  0  0  0  0  0  0  0  0  0
   44.5092   11.9943  -11.2386 H   0  0  0  0  0  0  0  0  0  0  0  0
   40.2699   14.2319  -13.9089 N   0  0  0  0  0  0  0  0  0  0  0  0
   40.1826   13.5183  -15.0403 C   0  0  0  0  0  0  0  0  0  0  0  0
   38.9164   12.9820  -15.1627 C   0  0  0  0  0  0  0  0  0  0  0  0
   38.2363   13.3813  -14.0879 N   0  0  0  0  0  0  0  0  0  0  0  0
   39.0504   14.1363  -13.3284 C   0  0  0  0  0  0  0  0  0  0  0  0
   38.5424   12.1948  -16.2424 C   0  0  0  0  0  0  0  0  0  0  0  0
   37.2401   11.6454  -16.3648 N   0  0  0  0  0  0  0  0  0  0  0  0
   39.4959   11.9815  -17.1744 N   0  0  0  0  0  0  0  0  0  0  0  0
   40.7406   12.5009  -17.0670 C   0  0  0  0  0  0  0  0  0  0  0  0
   41.0881   13.2628  -16.0130 N   0  0  0  0  0  0  0  0  0  0  0  0
   36.8486   11.4232  -17.3010 H   0  0  0  0  0  0  0  0  0  0  0  0
   36.6453   11.4505  -15.5355 H   0  0  0  0  0  0  0  0  0  0  0  0
   46.4668   12.2055  -14.2277 O   0  0  0  0  0  0  0  0  0  0  0  0
   44.9688   14.1277  -15.5950 O   0  0  0  0  0  0  0  0  0  0  0  0
   45.9358   12.7517  -15.7330 P   0  0  0  0  0  0  0  0  0  0  0  0
   45.1014   11.6603  -16.3537 O   0  0  0  0  0  0  0  0  0  0  0  0
   47.2228   13.1245  -16.7506 O   0  0  0  0  0  0  0  0  0  0  0  0
   44.9606   14.6613  -16.4084 H   0  0  0  0  0  0  0  0  0  0  0  0
   46.8728   13.2775  -17.6506 H   0  0  0  0  0  0  0  0  0  0  0  0
 39 40  1  0  0  0
 40 41  2  0  0  0
 40 42  1  0  0  0
 40 38  1  0  0  0
 38  1  1  0  0  0
  1  2  1  0  0  0
  2  3  1  0  0  0
  2  4  1  0  0  0
  4  5  1  0  0  0
  4  6  1  0  0  0
  6  7  1  0  0  0
  7  8  2  0  0  0
  7  9  1  0  0  0
  9 10  1  0  0  0
 10 11  1  0  0  0
 11 12  1  0  0  0
 11 13  1  0  0  0
 13 14  1  0  0  0
 13 15  1  0  0  0
 15 26  1  0  0  0
 26 27  1  0  0  0
 27 28  2  0  0  0
 28 29  1  0  0  0
 29 30  2  0  0  0
 28 31  1  0  0  0
 31 32  1  0  0  0
 31 33  2  0  0  0
 33 34  1  0  0  0
 34 35  2  0  0  0
 15 16  1  0  0  0
 16 17  1  0  0  0
 17 18  1  0  0  0
 18 19  1  0  0  0
  6 20  1  0  0  0
 19  1  1  0  0  0
 18  6  1  0  0  0
 17 10  1  0  0  0
 30 26  1  0  0  0
 35 27  1  0  0  0
 39 43  1  0  0  0
 42 44  1  0  0  0
  3 21  1  0  0  0
  5 22  1  0  0  0
 12 23  1  0  0  0
 14 24  1  0  0  0
 32 36  1  0  0  0
 32 37  1  0  0  0
 20 25  1  0  0  0
M  END
> <minimizedAffinity>
-8.66356

> <CNNscore>
0.0917111486

> <CNNaffinity>
4.4164881706

> <CNN_VS>
0.4050412178

> <CNNaffinity_variance>
0.2657363713

$$$$
[H]Oc1c([H])c([H])c(C([H])([H])[C@@]2([H])C(=O)N([H])[C@@]([H])(C([H])([H])C([H])([H])C([H])([H])C([H])([H])N([H])[H])C(=O)N([H])[C@@]([H])(C([H])([H])[H])C(=O)N3C([H])([H])C([H])([H])C([H])([H])[C@]3([H])C(=O)N([H])[C@@]([H])(C([H])([H])C([H])([H])C([H])([H])C([H])([H])N([H])[H])C(=O)N2[H])c([H])c1[H]


 51 53  0  0  0  0  0  0  0  0999 V2000
   34.1012   17.1010   -8.8812 C   0  0  0  0  0  0  0  0  0  0  0  0
   34.9537   15.8772   -8.5046 C   0  0  0  0  0  0  0  0  0  0  0  0
   34.8244   14.9604   -9.6291 N   0  0  0  0  0  0  0  0  0  0  0  0
   35.9195   14.4868  -10.3763 C   0  0  0  0  0  0  0  0  0  0  0  0
   35.8753   13.3673  -10.9275 O   0  0  0  0  0  0  0  0  0  0  0  0
   37.1384   15.3079  -10.5200 C   0  0  0  0  0  0  0  0  0  0  0  0
   38.2913   14.5380  -10.0824 N   0  0  0  0  0  0  0  0  0  0  0  0
   39.1689   14.9101   -9.0457 C   0  0  0  0  0  0  0  0  0  0  0  0
   39.8722   13.9839   -8.5288 O   0  0  0  0  0  0  0  0  0  0  0  0
   39.3242   16.2750   -8.5296 C   0  0  0  0  0  0  0  0  0  0  0  0
   39.9271   16.3103   -7.2107 N   0  0  0  0  0  0  0  0  0  0  0  0
   39.2919   16.6392   -6.0065 C   0  0  0  0  0  0  0  0  0  0  0  0
   39.7641   16.2033   -4.9282 O   0  0  0  0  0  0  0  0  0  0  0  0
   38.0528   17.4990   -5.8982 C   0  0  0  0  0  0  0  0  0  0  0  0
   37.3345   17.0049   -4.7269 N   0  0  0  0  0  0  0  0  0  0  0  0
   36.4505   15.8944   -4.7572 C   0  0  0  0  0  0  0  0  0  0  0  0
   35.7229   15.7119   -3.7477 O   0  0  0  0  0  0  0  0  0  0  0  0
   36.3234   14.9409   -5.8835 C   0  0  0  0  0  0  0  0  0  0  0  0
   36.8235   13.5692   -5.4057 C   0  0  0  0  0  0  0  0  0  0  0  0
   35.6272   12.9847   -4.7047 C   0  0  0  0  0  0  0  0  0  0  0  0
   34.4430   13.7585   -5.2265 C   0  0  0  0  0  0  0  0  0  0  0  0
   34.9451   14.6804   -6.2262 N   0  0  0  0  0  0  0  0  0  0  0  0
   34.2823   15.2553   -7.3383 C   0  0  0  0  0  0  0  0  0  0  0  0
   33.0038   15.2505   -7.3636 O   0  0  0  0  0  0  0  0  0  0  0  0
   33.8454   14.6519   -9.8720 H   0  0  0  0  0  0  0  0  0  0  0  0
   38.4632   13.6305  -10.5998 H   0  0  0  0  0  0  0  0  0  0  0  0
   40.9633   16.0497   -7.2155 H   0  0  0  0  0  0  0  0  0  0  0  0
   37.5231   17.5430   -3.8335 H   0  0  0  0  0  0  0  0  0  0  0  0
   37.2827   15.6099  -12.0015 C   0  0  0  0  0  0  0  0  0  0  0  0
   36.0211   15.3745  -12.7669 C   0  0  0  0  0  0  0  0  0  0  0  0
   36.3981   14.6030  -14.0243 C   0  0  0  0  0  0  0  0  0  0  0  0
   35.2184   13.9122  -14.6514 C   0  0  0  0  0  0  0  0  0  0  0  0
   33.9666   14.5036  -14.2519 N   0  0  0  0  0  0  0  0  0  0  0  0
   34.0037   15.5269  -14.1595 H   0  0  0  0  0  0  0  0  0  0  0  0
   33.4983   14.0043  -13.4721 H   0  0  0  0  0  0  0  0  0  0  0  0
   40.0667   17.1722   -9.4999 C   0  0  0  0  0  0  0  0  0  0  0  0
   41.0733   16.4888  -10.3077 C   0  0  0  0  0  0  0  0  0  0  0  0
   42.2641   16.0855   -9.7442 C   0  0  0  0  0  0  0  0  0  0  0  0
   43.2371   15.4352  -10.4776 C   0  0  0  0  0  0  0  0  0  0  0  0
   43.0541   15.1612  -11.8160 C   0  0  0  0  0  0  0  0  0  0  0  0
   44.0272   14.5075  -12.5625 O   0  0  0  0  0  0  0  0  0  0  0  0
   41.8673   15.5593  -12.3937 C   0  0  0  0  0  0  0  0  0  0  0  0
   40.8985   16.2110  -11.6463 C   0  0  0  0  0  0  0  0  0  0  0  0
   44.0711   13.5021  -12.6631 H   0  0  0  0  0  0  0  0  0  0  0  0
   38.4149   18.9380   -5.8250 C   0  0  0  0  0  0  0  0  0  0  0  0
   37.6413   19.9124   -6.6065 C   0  0  0  0  0  0  0  0  0  0  0  0
   36.4187   20.4966   -6.0013 C   0  0  0  0  0  0  0  0  0  0  0  0
   35.1444   19.9700   -6.6657 C   0  0  0  0  0  0  0  0  0  0  0  0
   34.9362   20.8066   -7.8471 N   0  0  0  0  0  0  0  0  0  0  0  0
   35.1474   20.2974   -8.7293 H   0  0  0  0  0  0  0  0  0  0  0  0
   35.4013   21.7314   -7.7636 H   0  0  0  0  0  0  0  0  0  0  0  0
  1  2  1  0  0  0
  2  3  1  0  0  0
  3  4  1  0  0  0
  4  5  2  0  0  0
  4  6  1  0  0  0
  6 29  1  0  0  0
 29 30  1  0  0  0
 30 31  1  0  0  0
 31 32  1  0  0  0
 32 33  1  0  0  0
  6  7  1  0  0  0
  7  8  1  0  0  0
  8  9  2  0  0  0
  8 10  1  0  0  0
 10 36  1  0  0  0
 36 37  1  0  0  0
 37 38  2  0  0  0
 38 39  1  0  0  0
 39 40  2  0  0  0
 40 41  1  0  0  0
 40 42  1  0  0  0
 42 43  2  0  0  0
 10 11  1  0  0  0
 11 12  1  0  0  0
 12 13  2  0  0  0
 12 14  1  0  0  0
 14 45  1  0  0  0
 45 46  1  0  0  0
 46 47  1  0  0  0
 47 48  1  0  0  0
 48 49  1  0  0  0
 14 15  1  0  0  0
 15 16  1  0  0  0
 16 17  2  0  0  0
 16 18  1  0  0  0
 18 19  1  0  0  0
 19 20  1  0  0  0
 20 21  1  0  0  0
 21 22  1  0  0  0
 22 23  1  0  0  0
 23 24  2  0  0  0
 23  2  1  0  0  0
 43 37  1  0  0  0
 22 18  1  0  0  0
  3 25  1  0  0  0
 33 34  1  0  0  0
 33 35  1  0  0  0
  7 26  1  0  0  0
 41 44  1  0  0  0
 11 27  1  0  0  0
 49 50  1  0  0  0
 49 51  1  0  0  0
 15 28  1  0  0  0
M  END
> <minimizedAffinity>
-5.39866

> <CNNscore>
0.4204855859

> <CNNaffinity>
6.5106277466

> <CNN_VS>
2.7376251221

> <CNNaffinity_variance>
0.7712412477

$$$$
[H]Oc1c([H])c([H])c(C([H])([H])[C@@]2([H])C(=O)N([H])[C@@]([H])(C([H])([H])C([H])([H])C([H])([H])C([H])([H])N([H])[H])C(=O)N([H])[C@@]([H])(C([H])([H])[H])C(=O)N3C([H])([H])C([H])([H])C([H])([H])[C@]3([H])C(=O)N([H])[C@@]([H])(C([H])([H])C([H])([H])C([H])([H])C([H])([H])N([H])[H])C(=O)N2[H])c([H])c1[H]


 51 53  0  0  0  0  0  0  0  0999 V2000
   43.6812   12.8482  -12.8490 C   0  0  0  0  0  0  0  0  0  0  0  0
   44.3919   14.1276  -12.3751 C   0  0  0  0  0  0  0  0  0  0  0  0
   43.7041   15.2196  -13.0507 N   0  0  0  0  0  0  0  0  0  0  0  0
   43.0750   16.2805  -12.3721 C   0  0  0  0  0  0  0  0  0  0  0  0
   42.9828   17.4074  -12.9022 O   0  0  0  0  0  0  0  0  0  0  0  0
   42.5136   16.0767  -11.0216 C   0  0  0  0  0  0  0  0  0  0  0  0
   43.0822   17.0572  -10.1113 N   0  0  0  0  0  0  0  0  0  0  0  0
   43.8122   16.7541   -8.9456 C   0  0  0  0  0  0  0  0  0  0  0  0
   44.5583   17.6740   -8.4800 O   0  0  0  0  0  0  0  0  0  0  0  0
   43.7701   15.4667   -8.2424 C   0  0  0  0  0  0  0  0  0  0  0  0
   44.9131   15.2658   -7.3722 N   0  0  0  0  0  0  0  0  0  0  0  0
   45.9703   14.3684   -7.5697 C   0  0  0  0  0  0  0  0  0  0  0  0
   47.0782   14.6012   -7.0276 O   0  0  0  0  0  0  0  0  0  0  0  0
   45.8817   13.1101   -8.4036 C   0  0  0  0  0  0  0  0  0  0  0  0
   47.2201   12.9082   -8.9510 N   0  0  0  0  0  0  0  0  0  0  0  0
   47.6928   13.5459  -10.1282 C   0  0  0  0  0  0  0  0  0  0  0  0
   48.7680   13.1180  -10.6208 O   0  0  0  0  0  0  0  0  0  0  0  0
   47.0167   14.6713  -10.8139 C   0  0  0  0  0  0  0  0  0  0  0  0
   47.9118   15.9134  -10.6877 C   0  0  0  0  0  0  0  0  0  0  0  0
   48.8986   15.7500  -11.8120 C   0  0  0  0  0  0  0  0  0  0  0  0
   48.2539   14.7797  -12.7692 C   0  0  0  0  0  0  0  0  0  0  0  0
   46.9386   14.4734  -12.2421 N   0  0  0  0  0  0  0  0  0  0  0  0
   45.7680   14.0566  -12.9220 C   0  0  0  0  0  0  0  0  0  0  0  0
   45.8786   13.5776  -14.1025 O   0  0  0  0  0  0  0  0  0  0  0  0
   43.6946   15.1866  -14.1049 H   0  0  0  0  0  0  0  0  0  0  0  0
   42.9208   18.0719  -10.3668 H   0  0  0  0  0  0  0  0  0  0  0  0
   44.8975   15.8923   -6.5068 H   0  0  0  0  0  0  0  0  0  0  0  0
   47.8278   12.2394   -8.3971 H   0  0  0  0  0  0  0  0  0  0  0  0
   41.0187   16.3202  -11.1347 C   0  0  0  0  0  0  0  0  0  0  0  0
   40.2880   16.0434   -9.8609 C   0  0  0  0  0  0  0  0  0  0  0  0
   38.8300   16.4170  -10.0913 C   0  0  0  0  0  0  0  0  0  0  0  0
   38.4886   17.7728   -9.5370 C   0  0  0  0  0  0  0  0  0  0  0  0
   37.7835   18.5891  -10.4924 N   0  0  0  0  0  0  0  0  0  0  0  0
   37.1189   18.0632  -11.0745 H   0  0  0  0  0  0  0  0  0  0  0  0
   38.3934   19.2535  -11.0053 H   0  0  0  0  0  0  0  0  0  0  0  0
   42.4663   15.2655   -7.4958 C   0  0  0  0  0  0  0  0  0  0  0  0
   42.3420   13.9707   -6.8318 C   0  0  0  0  0  0  0  0  0  0  0  0
   41.6856   12.9294   -7.4504 C   0  0  0  0  0  0  0  0  0  0  0  0
   41.5512   11.6914   -6.8529 C   0  0  0  0  0  0  0  0  0  0  0  0
   42.0736   11.4459   -5.6011 C   0  0  0  0  0  0  0  0  0  0  0  0
   41.9435   10.2039   -4.9915 O   0  0  0  0  0  0  0  0  0  0  0  0
   42.7330   12.4789   -4.9696 C   0  0  0  0  0  0  0  0  0  0  0  0
   42.8613   13.7168   -5.5806 C   0  0  0  0  0  0  0  0  0  0  0  0
   42.6173    9.4571   -5.0980 H   0  0  0  0  0  0  0  0  0  0  0  0
   45.3817   11.9726   -7.5892 C   0  0  0  0  0  0  0  0  0  0  0  0
   46.3443   11.0137   -7.0302 C   0  0  0  0  0  0  0  0  0  0  0  0
   47.0645   11.3762   -5.7844 C   0  0  0  0  0  0  0  0  0  0  0  0
   48.5825   11.2767   -5.9520 C   0  0  0  0  0  0  0  0  0  0  0  0
   49.0223   12.6001   -6.3928 N   0  0  0  0  0  0  0  0  0  0  0  0
   49.5245   13.1158   -5.6419 H   0  0  0  0  0  0  0  0  0  0  0  0
   48.2596   13.1390   -6.8473 H   0  0  0  0  0  0  0  0  0  0  0  0
  1  2  1  0  0  0
  2  3  1  0  0  0
  3  4  1  0  0  0
  4  5  2  0  0  0
  4  6  1  0  0  0
  6 29  1  0  0  0
 29 30  1  0  0  0
 30 31  1  0  0  0
 31 32  1  0  0  0
 32 33  1  0  0  0
  6  7  1  0  0  0
  7  8  1  0  0  0
  8  9  2  0  0  0
  8 10  1  0  0  0
 10 36  1  0  0  0
 36 37  1  0  0  0
 37 38  2  0  0  0
 38 39  1  0  0  0
 39 40  2  0  0  0
 40 41  1  0  0  0
 40 42  1  0  0  0
 42 43  2  0  0  0
 10 11  1  0  0  0
 11 12  1  0  0  0
 12 13  2  0  0  0
 12 14  1  0  0  0
 14 45  1  0  0  0
 45 46  1  0  0  0
 46 47  1  0  0  0
 47 48  1  0  0  0
 48 49  1  0  0  0
 14 15  1  0  0  0
 15 16  1  0  0  0
 16 17  2  0  0  0
 16 18  1  0  0  0
 18 19  1  0  0  0
 19 20  1  0  0  0
 20 21  1  0  0  0
 21 22  1  0  0  0
 22 23  1  0  0  0
 23 24  2  0  0  0
 23  2  1  0  0  0
 43 37  1  0  0  0
 22 18  1  0  0  0
  3 25  1  0  0  0
 33 34  1  0  0  0
 33 35  1  0  0  0
  7 26  1  0  0  0
 41 44  1  0  0  0
 11 27  1  0  0  0
 49 50  1  0  0  0
 49 51  1  0  0  0
 15 28  1  0  0  0
M  END
> <minimizedAffinity>
-4.78939

> <CNNscore>
0.3963793516

> <CNNaffinity>
5.8959879875

> <CNN_VS>
2.3370478153

> <CNNaffinity_variance>
0.9823865891

$$$$
[H]Oc1c([H])c([H])c(C([H])([H])[C@@]2([H])C(=O)N([H])[C@@]([H])(C([H])([H])C([H])([H])C([H])([H])C([H])([H])N([H])[H])C(=O)N([H])[C@@]([H])(C([H])([H])[H])C(=O)N3C([H])([H])C([H])([H])C([H])([H])[C@]3([H])C(=O)N([H])[C@@]([H])(C([H])([H])C([H])([H])C([H])([H])C([H])([H])N([H])[H])C(=O)N2[H])c([H])c1[H]


 51 53  0  0  0  0  0  0  0  0999 V2000
   43.2894   12.1135   -4.1081 C   0  0  0  0  0  0  0  0  0  0  0  0
   43.0542   12.5640   -5.5600 C   0  0  0  0  0  0  0  0  0  0  0  0
   41.9373   11.7581   -6.0343 N   0  0  0  0  0  0  0  0  0  0  0  0
   40.7338   12.3052   -6.5180 C   0  0  0  0  0  0  0  0  0  0  0  0
   40.0574   11.6955   -7.3724 O   0  0  0  0  0  0  0  0  0  0  0  0
   40.2520   13.6098   -6.0215 C   0  0  0  0  0  0  0  0  0  0  0  0
   40.0296   14.5010   -7.1484 N   0  0  0  0  0  0  0  0  0  0  0  0
   40.6619   15.7454   -7.3352 C   0  0  0  0  0  0  0  0  0  0  0  0
   40.6672   16.2148   -8.5182 O   0  0  0  0  0  0  0  0  0  0  0  0
   41.3055   16.5257   -6.2719 C   0  0  0  0  0  0  0  0  0  0  0  0
   42.2420   17.5072   -6.7855 N   0  0  0  0  0  0  0  0  0  0  0  0
   43.6386   17.4661   -6.6867 C   0  0  0  0  0  0  0  0  0  0  0  0
   44.3290   18.0898   -7.5293 O   0  0  0  0  0  0  0  0  0  0  0  0
   44.4003   16.7127   -5.6195 C   0  0  0  0  0  0  0  0  0  0  0  0
   45.6531   16.3034   -6.2480 N   0  0  0  0  0  0  0  0  0  0  0  0
   45.7893   15.1343   -7.0419 C   0  0  0  0  0  0  0  0  0  0  0  0
   46.9577   14.7705   -7.3325 O   0  0  0  0  0  0  0  0  0  0  0  0
   44.6633   14.3172   -7.5500 C   0  0  0  0  0  0  0  0  0  0  0  0
   44.6369   14.4413   -9.0810 C   0  0  0  0  0  0  0  0  0  0  0  0
   45.6499   13.4244   -9.5326 C   0  0  0  0  0  0  0  0  0  0  0  0
   45.8106   12.4790   -8.3691 C   0  0  0  0  0  0  0  0  0  0  0  0
   44.8773   12.9040   -7.3445 N   0  0  0  0  0  0  0  0  0  0  0  0
   44.2601   12.1499   -6.3163 C   0  0  0  0  0  0  0  0  0  0  0  0
   44.7627   11.0186   -5.9955 O   0  0  0  0  0  0  0  0  0  0  0  0
   42.0674   10.7119   -6.0022 H   0  0  0  0  0  0  0  0  0  0  0  0
   39.3329   14.1653   -7.8714 H   0  0  0  0  0  0  0  0  0  0  0  0
   41.7644   18.3242   -7.2815 H   0  0  0  0  0  0  0  0  0  0  0  0
   46.4708   16.9531   -6.0678 H   0  0  0  0  0  0  0  0  0  0  0  0
   38.9236   13.3459   -5.3342 C   0  0  0  0  0  0  0  0  0  0  0  0
   38.7431   14.1550   -4.0909 C   0  0  0  0  0  0  0  0  0  0  0  0
   37.2466   14.2323   -3.8207 C   0  0  0  0  0  0  0  0  0  0  0  0
   36.4256   13.7575   -4.9880 C   0  0  0  0  0  0  0  0  0  0  0  0
   35.4279   12.7949   -4.5953 N   0  0  0  0  0  0  0  0  0  0  0  0
   34.9996   12.9928   -3.6818 H   0  0  0  0  0  0  0  0  0  0  0  0
   35.7153   11.8095   -4.7465 H   0  0  0  0  0  0  0  0  0  0  0  0
   40.2950   17.1627   -5.3388 C   0  0  0  0  0  0  0  0  0  0  0  0
   39.0920   17.6628   -5.9987 C   0  0  0  0  0  0  0  0  0  0  0  0
   39.0521   18.9463   -6.4977 C   0  0  0  0  0  0  0  0  0  0  0  0
   37.9323   19.4511   -7.1292 C   0  0  0  0  0  0  0  0  0  0  0  0
   36.7985   18.6832   -7.2869 C   0  0  0  0  0  0  0  0  0  0  0  0
   35.6668   19.1821   -7.9208 O   0  0  0  0  0  0  0  0  0  0  0  0
   36.8236   17.3966   -6.7923 C   0  0  0  0  0  0  0  0  0  0  0  0
   37.9543   16.9019   -6.1606 C   0  0  0  0  0  0  0  0  0  0  0  0
   35.5043   19.1028   -8.9159 H   0  0  0  0  0  0  0  0  0  0  0  0
   44.5765   17.5520   -4.4064 C   0  0  0  0  0  0  0  0  0  0  0  0
   45.8036   18.3460   -4.2561 C   0  0  0  0  0  0  0  0  0  0  0  0
   45.7885   19.7645   -4.6920 C   0  0  0  0  0  0  0  0  0  0  0  0
   46.7133   20.0050   -5.8875 C   0  0  0  0  0  0  0  0  0  0  0  0
   45.8611   20.5396   -6.9491 N   0  0  0  0  0  0  0  0  0  0  0  0
   46.0243   21.5546   -7.1081 H   0  0  0  0  0  0  0  0  0  0  0  0
   44.8634   20.2799   -6.8237 H   0  0  0  0  0  0  0  0  0  0  0  0
  1  2  1  0  0  0
  2  3  1  0  0  0
  3  4  1  0  0  0
  4  5  2  0  0  0
  4  6  1  0  0  0
  6 29  1  0  0  0
 29 30  1  0  0  0
 30 31  1  0  0  0
 31 32  1  0  0  0
 32 33  1  0  0  0
  6  7  1  0  0  0
  7  8  1  0  0  0
  8  9  2  0  0  0
  8 10  1  0  0  0
 10 36  1  0  0  0
 36 37  1  0  0  0
 37 38  2  0  0  0
 38 39  1  0  0  0
 39 40  2  0  0  0
 40 41  1  0  0  0
 40 42  1  0  0  0
 42 43  2  0  0  0
 10 11  1  0  0  0
 11 12  1  0  0  0
 12 13  2  0  0  0
 12 14  1  0  0  0
 14 45  1  0  0  0
 45 46  1  0  0  0
 46 47  1  0  0  0
 47 48  1  0  0  0
 48 49  1  0  0  0
 14 15  1  0  0  0
 15 16  1  0  0  0
 16 17  2  0  0  0
 16 18  1  0  0  0
 18 19  1  0  0  0
 19 20  1  0  0  0
 20 21  1  0  0  0
 21 22  1  0  0  0
 22 23  1  0  0  0
 23 24  2  0  0  0
 23  2  1  0  0  0
 43 37  1  0  0  0
 22 18  1  0  0  0
  3 25  1  0  0  0
 33 34  1  0  0  0
 33 35  1  0  0  0
  7 26  1  0  0  0
 41 44  1  0  0  0
 11 27  1  0  0  0
 49 50  1  0  0  0
 49 51  1  0  0  0
 15 28  1  0  0  0
M  END
> <minimizedAffinity>
-4.86688

> <CNNscore>
0.3715879619

> <CNNaffinity>
5.6183252335

> <CNN_VS>
2.0877020359

> <CNNaffinity_variance>
0.6088982821

$$$$
[H]Oc1c([H])c([H])c(C([H])([H])[C@@]2([H])C(=O)N([H])[C@@]([H])(C([H])([H])C([H])([H])C([H])([H])C([H])([H])N([H])[H])C(=O)N([H])[C@@]([H])(C([H])([H])[H])C(=O)N3C([H])([H])C([H])([H])C([H])([H])[C@]3([H])C(=O)N([H])[C@@]([H])(C([H])([H])C([H])([H])C([H])([H])C([H])([H])N([H])[H])C(=O)N2[H])c([H])c1[H]


 51 53  0  0  0  0  0  0  0  0999 V2000
   43.7748   12.8004  -12.5661 C   0  0  0  0  0  0  0  0  0  0  0  0
   44.5198   13.9498  -11.8658 C   0  0  0  0  0  0  0  0  0  0  0  0
   43.9900   15.1684  -12.4625 N   0  0  0  0  0  0  0  0  0  0  0  0
   43.3687   16.1910  -11.7208 C   0  0  0  0  0  0  0  0  0  0  0  0
   43.4161   17.3764  -12.1104 O   0  0  0  0  0  0  0  0  0  0  0  0
   42.6502   15.8770  -10.4695 C   0  0  0  0  0  0  0  0  0  0  0  0
   43.1853   16.6910   -9.3904 N   0  0  0  0  0  0  0  0  0  0  0  0
   43.7601   16.1912   -8.2059 C   0  0  0  0  0  0  0  0  0  0  0  0
   44.5152   16.9829   -7.5557 O   0  0  0  0  0  0  0  0  0  0  0  0
   43.5491   14.8378   -7.6790 C   0  0  0  0  0  0  0  0  0  0  0  0
   44.5730   14.4390   -6.7321 N   0  0  0  0  0  0  0  0  0  0  0  0
   45.5781   13.4850   -6.9357 C   0  0  0  0  0  0  0  0  0  0  0  0
   46.6342   13.5571   -6.2611 O   0  0  0  0  0  0  0  0  0  0  0  0
   45.4907   12.3464   -7.9270 C   0  0  0  0  0  0  0  0  0  0  0  0
   46.8629   12.0979   -8.3598 N   0  0  0  0  0  0  0  0  0  0  0  0
   47.5056   12.8282   -9.3939 C   0  0  0  0  0  0  0  0  0  0  0  0
   48.5945   12.3721   -9.8275 O   0  0  0  0  0  0  0  0  0  0  0  0
   46.9910   14.0802   -9.9952 C   0  0  0  0  0  0  0  0  0  0  0  0
   47.9540   15.2182   -9.6245 C   0  0  0  0  0  0  0  0  0  0  0  0
   49.0432   15.1060  -10.6568 C   0  0  0  0  0  0  0  0  0  0  0  0
   48.4386   14.3141  -11.7885 C   0  0  0  0  0  0  0  0  0  0  0  0
   47.0551   14.0602  -11.4377 N   0  0  0  0  0  0  0  0  0  0  0  0
   45.9386   13.8276  -12.2778 C   0  0  0  0  0  0  0  0  0  0  0  0
   46.1425   13.4841  -13.4926 O   0  0  0  0  0  0  0  0  0  0  0  0
   44.0932   15.2614  -13.5081 H   0  0  0  0  0  0  0  0  0  0  0  0
   43.1261   17.7388   -9.5301 H   0  0  0  0  0  0  0  0  0  0  0  0
   44.5083   14.9577   -5.8002 H   0  0  0  0  0  0  0  0  0  0  0  0
   47.3569   11.3192   -7.8375 H   0  0  0  0  0  0  0  0  0  0  0  0
   41.1980   16.2580  -10.6988 C   0  0  0  0  0  0  0  0  0  0  0  0
   40.2590   15.5420   -9.7830 C   0  0  0  0  0  0  0  0  0  0  0  0
   38.8570   16.0473  -10.0954 C   0  0  0  0  0  0  0  0  0  0  0  0
   38.5766   17.3881   -9.4746 C   0  0  0  0  0  0  0  0  0  0  0  0
   38.1392   18.3570  -10.4474 N   0  0  0  0  0  0  0  0  0  0  0  0
   37.5303   17.9643  -11.1768 H   0  0  0  0  0  0  0  0  0  0  0  0
   38.8969   18.9781  -10.7888 H   0  0  0  0  0  0  0  0  0  0  0  0
   42.1606   14.6609   -7.0972 C   0  0  0  0  0  0  0  0  0  0  0  0
   41.7792   15.6769   -6.1200 C   0  0  0  0  0  0  0  0  0  0  0  0
   40.8505   16.6419   -6.4429 C   0  0  0  0  0  0  0  0  0  0  0  0
   40.4650   17.6163   -5.5432 C   0  0  0  0  0  0  0  0  0  0  0  0
   40.9995   17.6627   -4.2735 C   0  0  0  0  0  0  0  0  0  0  0  0
   40.6181   18.6391   -3.3610 O   0  0  0  0  0  0  0  0  0  0  0  0
   41.9304   16.7035   -3.9361 C   0  0  0  0  0  0  0  0  0  0  0  0
   42.3086   15.7306   -4.8486 C   0  0  0  0  0  0  0  0  0  0  0  0
   39.8471   18.5288   -2.7157 H   0  0  0  0  0  0  0  0  0  0  0  0
   44.8244   11.1670   -7.3169 C   0  0  0  0  0  0  0  0  0  0  0  0
   44.1163   11.3250   -6.0392 C   0  0  0  0  0  0  0  0  0  0  0  0
   42.7800   10.6980   -5.8866 C   0  0  0  0  0  0  0  0  0  0  0  0
   42.1151   11.0843   -4.5634 C   0  0  0  0  0  0  0  0  0  0  0  0
   41.3948    9.8924   -4.1166 N   0  0  0  0  0  0  0  0  0  0  0  0
   41.8603    9.4345   -3.3068 H   0  0  0  0  0  0  0  0  0  0  0  0
   41.1683    9.2503   -4.9007 H   0  0  0  0  0  0  0  0  0  0  0  0
  1  2  1  0  0  0
  2  3  1  0  0  0
  3  4  1  0  0  0
  4  5  2  0  0  0
  4  6  1  0  0  0
  6 29  1  0  0  0
 29 30  1  0  0  0
 30 31  1  0  0  0
 31 32  1  0  0  0
 32 33  1  0  0  0
  6  7  1  0  0  0
  7  8  1  0  0  0
  8  9  2  0  0  0
  8 10  1  0  0  0
 10 36  1  0  0  0
 36 37  1  0  0  0
 37 38  2  0  0  0
 38 39  1  0  0  0
 39 40  2  0  0  0
 40 41  1  0  0  0
 40 42  1  0  0  0
 42 43  2  0  0  0
 10 11  1  0  0  0
 11 12  1  0  0  0
 12 13  2  0  0  0
 12 14  1  0  0  0
 14 45  1  0  0  0
 45 46  1  0  0  0
 46 47  1  0  0  0
 47 48  1  0  0  0
 48 49  1  0  0  0
 14 15  1  0  0  0
 15 16  1  0  0  0
 16 17  2  0  0  0
 16 18  1  0  0  0
 18 19  1  0  0  0
 19 20  1  0  0  0
 20 21  1  0  0  0
 21 22  1  0  0  0
 22 23  1  0  0  0
 23 24  2  0  0  0
 23  2  1  0  0  0
 43 37  1  0  0  0
 22 18  1  0  0  0
  3 25  1  0  0  0
 33 34  1  0  0  0
 33 35  1  0  0  0
  7 26  1  0  0  0
 41 44  1  0  0  0
 11 27  1  0  0  0
 49 50  1  0  0  0
 49 51  1  0  0  0
 15 28  1  0  0  0
M  END
> <minimizedAffinity>
-4.67744

> <CNNscore>
0.3420394361

> <CNNaffinity>
5.7026910782

> <CNN_VS>
1.9505451918

> <CNNaffinity_variance>
0.6878477335

$$$$
[H]Oc1c([H])c([H])c(C([H])([H])[C@@]2([H])C(=O)N([H])[C@@]([H])(C([H])([H])C([H])([H])C([H])([H])C([H])([H])N([H])[H])C(=O)N([H])[C@@]([H])(C([H])([H])[H])C(=O)N3C([H])([H])C([H])([H])C([H])([H])[C@]3([H])C(=O)N([H])[C@@]([H])(C([H])([H])C([H])([H])C([H])([H])C([H])([H])N([H])[H])C(=O)N2[H])c([H])c1[H]


 51 53  0  0  0  0  0  0  0  0999 V2000
   46.4764   16.9534   -8.5927 C   0  0  0  0  0  0  0  0  0  0  0  0
   46.4684   15.6018   -7.8582 C   0  0  0  0  0  0  0  0  0  0  0  0
   47.4892   15.7215   -6.8260 N   0  0  0  0  0  0  0  0  0  0  0  0
   47.2289   15.5582   -5.4522 C   0  0  0  0  0  0  0  0  0  0  0  0
   48.1185   15.1387   -4.6829 O   0  0  0  0  0  0  0  0  0  0  0  0
   45.8983   15.8813   -4.8991 C   0  0  0  0  0  0  0  0  0  0  0  0
   45.3789   14.7243   -4.1887 N   0  0  0  0  0  0  0  0  0  0  0  0
   44.1721   14.0631   -4.4885 C   0  0  0  0  0  0  0  0  0  0  0  0
   44.0465   12.8731   -4.0549 O   0  0  0  0  0  0  0  0  0  0  0  0
   43.0659   14.6466   -5.2562 C   0  0  0  0  0  0  0  0  0  0  0  0
   42.1669   13.6435   -5.7945 N   0  0  0  0  0  0  0  0  0  0  0  0
   42.0280   13.2765   -7.1391 C   0  0  0  0  0  0  0  0  0  0  0  0
   41.5876   12.1346   -7.4181 O   0  0  0  0  0  0  0  0  0  0  0  0
   42.3737   14.1678   -8.3107 C   0  0  0  0  0  0  0  0  0  0  0  0
   42.8012   13.2655   -9.3762 N   0  0  0  0  0  0  0  0  0  0  0  0
   44.1210   12.7552   -9.4922 C   0  0  0  0  0  0  0  0  0  0  0  0
   44.4217   12.1803  -10.5696 O   0  0  0  0  0  0  0  0  0  0  0  0
   45.1628   12.8494   -8.4436 C   0  0  0  0  0  0  0  0  0  0  0  0
   45.4657   11.4289   -7.9434 C   0  0  0  0  0  0  0  0  0  0  0  0
   46.4515   10.9048   -8.9522 C   0  0  0  0  0  0  0  0  0  0  0  0
   47.0195   12.1282   -9.6262 C   0  0  0  0  0  0  0  0  0  0  0  0
   46.4341   13.2828   -8.9737 N   0  0  0  0  0  0  0  0  0  0  0  0
   46.9404   14.5993   -8.8430 C   0  0  0  0  0  0  0  0  0  0  0  0
   47.8796   14.9786   -9.6237 O   0  0  0  0  0  0  0  0  0  0  0  0
   48.4663   15.9419   -7.1566 H   0  0  0  0  0  0  0  0  0  0  0  0
   45.9729   14.3704   -3.3869 H   0  0  0  0  0  0  0  0  0  0  0  0
   41.5734   13.1660   -5.0453 H   0  0  0  0  0  0  0  0  0  0  0  0
   42.0424   13.0117  -10.0712 H   0  0  0  0  0  0  0  0  0  0  0  0
   46.1064   17.0136   -3.9085 C   0  0  0  0  0  0  0  0  0  0  0  0
   45.0662   18.0806   -4.0206 C   0  0  0  0  0  0  0  0  0  0  0  0
   44.9548   18.4436   -5.4951 C   0  0  0  0  0  0  0  0  0  0  0  0
   45.9477   19.4960   -5.9056 C   0  0  0  0  0  0  0  0  0  0  0  0
   45.5470   20.1823   -7.1076 N   0  0  0  0  0  0  0  0  0  0  0  0
   44.5338   20.3445   -7.1727 H   0  0  0  0  0  0  0  0  0  0  0  0
   45.9935   19.8132   -7.9684 H   0  0  0  0  0  0  0  0  0  0  0  0
   42.3112   15.6958   -4.4642 C   0  0  0  0  0  0  0  0  0  0  0  0
   40.9918   16.0243   -4.9972 C   0  0  0  0  0  0  0  0  0  0  0  0
   40.8327   17.0852   -5.8615 C   0  0  0  0  0  0  0  0  0  0  0  0
   39.6005   17.4228   -6.3862 C   0  0  0  0  0  0  0  0  0  0  0  0
   38.4693   16.7048   -6.0625 C   0  0  0  0  0  0  0  0  0  0  0  0
   37.2251   17.0367   -6.5851 O   0  0  0  0  0  0  0  0  0  0  0  0
   38.6131   15.6404   -5.1983 C   0  0  0  0  0  0  0  0  0  0  0  0
   39.8558   15.3117   -4.6788 C   0  0  0  0  0  0  0  0  0  0  0  0
   36.8638   16.6562   -7.4498 H   0  0  0  0  0  0  0  0  0  0  0  0
   41.2207   15.0315   -8.6738 C   0  0  0  0  0  0  0  0  0  0  0  0
   41.3697   16.0048   -9.7643 C   0  0  0  0  0  0  0  0  0  0  0  0
   40.1448   16.5591  -10.3925 C   0  0  0  0  0  0  0  0  0  0  0  0
   39.8581   15.9159  -11.7513 C   0  0  0  0  0  0  0  0  0  0  0  0
   40.7298   16.5984  -12.7070 N   0  0  0  0  0  0  0  0  0  0  0  0
   41.5178   15.9949  -13.0182 H   0  0  0  0  0  0  0  0  0  0  0  0
   41.0153   17.5413  -12.3782 H   0  0  0  0  0  0  0  0  0  0  0  0
  1  2  1  0  0  0
  2  3  1  0  0  0
  3  4  1  0  0  0
  4  5  2  0  0  0
  4  6  1  0  0  0
  6 29  1  0  0  0
 29 30  1  0  0  0
 30 31  1  0  0  0
 31 32  1  0  0  0
 32 33  1  0  0  0
  6  7  1  0  0  0
  7  8  1  0  0  0
  8  9  2  0  0  0
  8 10  1  0  0  0
 10 36  1  0  0  0
 36 37  1  0  0  0
 37 38  2  0  0  0
 38 39  1  0  0  0
 39 40  2  0  0  0
 40 41  1  0  0  0
 40 42  1  0  0  0
 42 43  2  0  0  0
 10 11  1  0  0  0
 11 12  1  0  0  0
 12 13  2  0  0  0
 12 14  1  0  0  0
 14 45  1  0  0  0
 45 46  1  0  0  0
 46 47  1  0  0  0
 47 48  1  0  0  0
 48 49  1  0  0  0
 14 15  1  0  0  0
 15 16  1  0  0  0
 16 17  2  0  0  0
 16 18  1  0  0  0
 18 19  1  0  0  0
 19 20  1  0  0  0
 20 21  1  0  0  0
 21 22  1  0  0  0
 22 23  1  0  0  0
 23 24  2  0  0  0
 23  2  1  0  0  0
 43 37  1  0  0  0
 22 18  1  0  0  0
  3 25  1  0  0  0
 33 34  1  0  0  0
 33 35  1  0  0  0
  7 26  1  0  0  0
 41 44  1  0  0  0
 11 27  1  0  0  0
 49 50  1  0  0  0
 49 51  1  0  0  0
 15 28  1  0  0  0
M  END
> <minimizedAffinity>
-4.89387

> <CNNscore>
0.3281508386

> <CNNaffinity>
5.4122471809

> <CNN_VS>
1.7760334015

> <CNNaffinity_variance>
0.6963866949

$$$$
[H]Oc1c([H])c([H])c(C([H])([H])[C@@]2([H])C(=O)N([H])[C@@]([H])(C([H])([H])C([H])([H])C([H])([H])C([H])([H])N([H])[H])C(=O)N([H])[C@@]([H])(C([H])([H])[H])C(=O)N3C([H])([H])C([H])([H])C([H])([H])[C@]3([H])C(=O)N([H])[C@@]([H])(C([H])([H])C([H])([H])C([H])([H])C([H])([H])N([H])[H])C(=O)N2[H])c([H])c1[H]


 51 53  0  0  0  0  0  0  0  0999 V2000
   42.7379   13.2638   -8.5583 C   0  0  0  0  0  0  0  0  0  0  0  0
   43.3955   13.5327   -7.1939 C   0  0  0  0  0  0  0  0  0  0  0  0
   43.5595   12.2204   -6.5832 N   0  0  0  0  0  0  0  0  0  0  0  0
   44.8036   11.7014   -6.1778 C   0  0  0  0  0  0  0  0  0  0  0  0
   44.8755   10.8931   -5.2287 O   0  0  0  0  0  0  0  0  0  0  0  0
   46.0442   12.1050   -6.8697 C   0  0  0  0  0  0  0  0  0  0  0  0
   46.9898   12.6268   -5.8966 N   0  0  0  0  0  0  0  0  0  0  0  0
   47.5450   13.9209   -5.9184 C   0  0  0  0  0  0  0  0  0  0  0  0
   48.0313   14.3555   -4.8255 O   0  0  0  0  0  0  0  0  0  0  0  0
   47.5994   14.7888   -7.1005 C   0  0  0  0  0  0  0  0  0  0  0  0
   47.7970   16.1854   -6.7618 N   0  0  0  0  0  0  0  0  0  0  0  0
   46.8549   17.2163   -6.8704 C   0  0  0  0  0  0  0  0  0  0  0  0
   46.9778   18.2345   -6.1467 O   0  0  0  0  0  0  0  0  0  0  0  0
   45.6729   17.2011   -7.8133 C   0  0  0  0  0  0  0  0  0  0  0  0
   44.6279   17.9700   -7.1435 N   0  0  0  0  0  0  0  0  0  0  0  0
   43.7463   17.4214   -6.1752 C   0  0  0  0  0  0  0  0  0  0  0  0
   42.7516   18.1167   -5.8451 O   0  0  0  0  0  0  0  0  0  0  0  0
   43.9115   16.0989   -5.5292 C   0  0  0  0  0  0  0  0  0  0  0  0
   44.1968   16.3292   -4.0374 C   0  0  0  0  0  0  0  0  0  0  0  0
   42.8265   16.5094   -3.4422 C   0  0  0  0  0  0  0  0  0  0  0  0
   41.8755   15.9019   -4.4422 C   0  0  0  0  0  0  0  0  0  0  0  0
   42.6814   15.3428   -5.5095 N   0  0  0  0  0  0  0  0  0  0  0  0
   42.3916   14.2771   -6.3965 C   0  0  0  0  0  0  0  0  0  0  0  0
   41.1756   13.9076   -6.5393 O   0  0  0  0  0  0  0  0  0  0  0  0
   42.6807   11.6525   -6.4498 H   0  0  0  0  0  0  0  0  0  0  0  0
   47.2670   11.9621   -5.1206 H   0  0  0  0  0  0  0  0  0  0  0  0
   48.7791   16.3941   -6.3964 H   0  0  0  0  0  0  0  0  0  0  0  0
   44.5720   18.9873   -7.4352 H   0  0  0  0  0  0  0  0  0  0  0  0
   46.6220   10.8445   -7.4894 C   0  0  0  0  0  0  0  0  0  0  0  0
   45.9607   10.4760   -8.7778 C   0  0  0  0  0  0  0  0  0  0  0  0
   46.9813    9.6990   -9.5982 C   0  0  0  0  0  0  0  0  0  0  0  0
   48.3187    9.6073   -8.9163 C   0  0  0  0  0  0  0  0  0  0  0  0
   48.8634    8.2742   -8.9644 N   0  0  0  0  0  0  0  0  0  0  0  0
   48.6754    7.7825   -9.8476 H   0  0  0  0  0  0  0  0  0  0  0  0
   48.6918    7.7211   -8.1035 H   0  0  0  0  0  0  0  0  0  0  0  0
   48.6259   14.3155   -8.1105 C   0  0  0  0  0  0  0  0  0  0  0  0
   48.2238   14.4791   -9.5049 C   0  0  0  0  0  0  0  0  0  0  0  0
   47.3096   13.6192  -10.0730 C   0  0  0  0  0  0  0  0  0  0  0  0
   46.9053   13.7456  -11.3876 C   0  0  0  0  0  0  0  0  0  0  0  0
   47.4055   14.7471  -12.1918 C   0  0  0  0  0  0  0  0  0  0  0  0
   47.0050   14.8825  -13.5157 O   0  0  0  0  0  0  0  0  0  0  0  0
   48.3216   15.6151  -11.6371 C   0  0  0  0  0  0  0  0  0  0  0  0
   48.7190   15.4775  -10.3159 C   0  0  0  0  0  0  0  0  0  0  0  0
   46.2162   15.4457  -13.8050 H   0  0  0  0  0  0  0  0  0  0  0  0
   46.0561   17.7322   -9.1469 C   0  0  0  0  0  0  0  0  0  0  0  0
   45.2524   17.3673  -10.3215 C   0  0  0  0  0  0  0  0  0  0  0  0
   44.3952   16.1582  -10.2466 C   0  0  0  0  0  0  0  0  0  0  0  0
   43.7428   15.8358  -11.5930 C   0  0  0  0  0  0  0  0  0  0  0  0
   44.4642   16.6313  -12.5859 N   0  0  0  0  0  0  0  0  0  0  0  0
   45.0846   16.0455  -13.1809 H   0  0  0  0  0  0  0  0  0  0  0  0
   44.9291   17.4598  -12.1666 H   0  0  0  0  0  0  0  0  0  0  0  0
  1  2  1  0  0  0
  2  3  1  0  0  0
  3  4  1  0  0  0
  4  5  2  0  0  0
  4  6  1  0  0  0
  6 29  1  0  0  0
 29 30  1  0  0  0
 30 31  1  0  0  0
 31 32  1  0  0  0
 32 33  1  0  0  0
  6  7  1  0  0  0
  7  8  1  0  0  0
  8  9  2  0  0  0
  8 10  1  0  0  0
 10 36  1  0  0  0
 36 37  1  0  0  0
 37 38  2  0  0  0
 38 39  1  0  0  0
 39 40  2  0  0  0
 40 41  1  0  0  0
 40 42  1  0  0  0
 42 43  2  0  0  0
 10 11  1  0  0  0
 11 12  1  0  0  0
 12 13  2  0  0  0
 12 14  1  0  0  0
 14 45  1  0  0  0
 45 46  1  0  0  0
 46 47  1  0  0  0
 47 48  1  0  0  0
 48 49  1  0  0  0
 14 15  1  0  0  0
 15 16  1  0  0  0
 16 17  2  0  0  0
 16 18  1  0  0  0
 18 19  1  0  0  0
 19 20  1  0  0  0
 20 21  1  0  0  0
 21 22  1  0  0  0
 22 23  1  0  0  0
 23 24  2  0  0  0
 23  2  1  0  0  0
 43 37  1  0  0  0
 22 18  1  0  0  0
  3 25  1  0  0  0
 33 34  1  0  0  0
 33 35  1  0  0  0
  7 26  1  0  0  0
 41 44  1  0  0  0
 11 27  1  0  0  0
 49 50  1  0  0  0
 49 51  1  0  0  0
 15 28  1  0  0  0
M  END
> <minimizedAffinity>
-3.88505

> <CNNscore>
0.3254064023

> <CNNaffinity>
5.1508455276

> <CNN_VS>
1.6761181355

> <CNNaffinity_variance>
0.5615574718

$$$$
[H]Oc1c([H])c([H])c(C([H])([H])[C@@]2([H])C(=O)N([H])[C@@]([H])(C([H])([H])C([H])([H])C([H])([H])C([H])([H])N([H])[H])C(=O)N([H])[C@@]([H])(C([H])([H])[H])C(=O)N3C([H])([H])C([H])([H])C([H])([H])[C@]3([H])C(=O)N([H])[C@@]([H])(C([H])([H])C([H])([H])C([H])([H])C([H])([H])N([H])[H])C(=O)N2[H])c([H])c1[H]


 51 53  0  0  0  0  0  0  0  0999 V2000
   41.4207   14.8185  -12.7990 C   0  0  0  0  0  0  0  0  0  0  0  0
   41.8968   15.6183  -11.5742 C   0  0  0  0  0  0  0  0  0  0  0  0
   40.7633   16.4523  -11.1979 N   0  0  0  0  0  0  0  0  0  0  0  0
   40.1551   16.4114   -9.9291 C   0  0  0  0  0  0  0  0  0  0  0  0
   39.6007   17.4262   -9.4578 O   0  0  0  0  0  0  0  0  0  0  0  0
   40.1629   15.1663   -9.1352 C   0  0  0  0  0  0  0  0  0  0  0  0
   40.7370   15.4337   -7.8267 N   0  0  0  0  0  0  0  0  0  0  0  0
   41.8740   14.7957   -7.2941 C   0  0  0  0  0  0  0  0  0  0  0  0
   42.4716   15.3896   -6.3402 O   0  0  0  0  0  0  0  0  0  0  0  0
   42.4075   13.5101   -7.7591 C   0  0  0  0  0  0  0  0  0  0  0  0
   43.7903   13.3042   -7.3722 N   0  0  0  0  0  0  0  0  0  0  0  0
   44.9083   13.3174   -8.2159 C   0  0  0  0  0  0  0  0  0  0  0  0
   46.0356   13.5829   -7.7317 O   0  0  0  0  0  0  0  0  0  0  0  0
   44.8655   13.0297   -9.6998 C   0  0  0  0  0  0  0  0  0  0  0  0
   45.9393   13.8279  -10.2845 N   0  0  0  0  0  0  0  0  0  0  0  0
   45.7992   15.1957  -10.6382 C   0  0  0  0  0  0  0  0  0  0  0  0
   46.7118   15.7040  -11.3386 O   0  0  0  0  0  0  0  0  0  0  0  0
   44.6642   16.0623  -10.2449 C   0  0  0  0  0  0  0  0  0  0  0  0
   45.1974   17.1432   -9.2923 C   0  0  0  0  0  0  0  0  0  0  0  0
   45.7457   18.1910  -10.2228 C   0  0  0  0  0  0  0  0  0  0  0  0
   45.0842   17.9281  -11.5520 C   0  0  0  0  0  0  0  0  0  0  0  0
   44.1550   16.8330  -11.3548 N   0  0  0  0  0  0  0  0  0  0  0  0
   42.9711   16.5146  -12.0643 C   0  0  0  0  0  0  0  0  0  0  0  0
   42.7894   17.0275  -13.2216 O   0  0  0  0  0  0  0  0  0  0  0  0
   40.4019   17.1128  -11.9366 H   0  0  0  0  0  0  0  0  0  0  0  0
   40.2431   16.1700   -7.2480 H   0  0  0  0  0  0  0  0  0  0  0  0
   43.9119   13.1294   -6.3252 H   0  0  0  0  0  0  0  0  0  0  0  0
   46.8500   13.3053  -10.4289 H   0  0  0  0  0  0  0  0  0  0  0  0
   38.7108   14.7571   -8.9604 C   0  0  0  0  0  0  0  0  0  0  0  0
   38.2735   14.7669   -7.5315 C   0  0  0  0  0  0  0  0  0  0  0  0
   37.0337   15.6470   -7.4491 C   0  0  0  0  0  0  0  0  0  0  0  0
   36.9179   16.3564   -6.1281 C   0  0  0  0  0  0  0  0  0  0  0  0
   36.1222   15.6167   -5.1815 N   0  0  0  0  0  0  0  0  0  0  0  0
   36.2562   14.5988   -5.2352 H   0  0  0  0  0  0  0  0  0  0  0  0
   35.1351   15.9322   -5.1283 H   0  0  0  0  0  0  0  0  0  0  0  0
   41.5369   12.3434   -7.3368 C   0  0  0  0  0  0  0  0  0  0  0  0
   42.1185   11.4987   -6.2970 C   0  0  0  0  0  0  0  0  0  0  0  0
   43.0597   10.5453   -6.6179 C   0  0  0  0  0  0  0  0  0  0  0  0
   43.6319    9.7309   -5.6603 C   0  0  0  0  0  0  0  0  0  0  0  0
   43.2804    9.8405   -4.3320 C   0  0  0  0  0  0  0  0  0  0  0  0
   43.8504    9.0258   -3.3610 O   0  0  0  0  0  0  0  0  0  0  0  0
   42.3394   10.7903   -3.9958 C   0  0  0  0  0  0  0  0  0  0  0  0
   41.7728   11.6017   -4.9667 C   0  0  0  0  0  0  0  0  0  0  0  0
   44.6927    9.2663   -2.8553 H   0  0  0  0  0  0  0  0  0  0  0  0
   44.9849   11.5714   -9.9572 C   0  0  0  0  0  0  0  0  0  0  0  0
   46.3197   10.9594  -10.0073 C   0  0  0  0  0  0  0  0  0  0  0  0
   46.7040   10.0070   -8.9361 C   0  0  0  0  0  0  0  0  0  0  0  0
   48.2232    9.8678   -8.8130 C   0  0  0  0  0  0  0  0  0  0  0  0
   48.5246    8.4776   -9.1527 N   0  0  0  0  0  0  0  0  0  0  0  0
   48.9775    8.3919  -10.0852 H   0  0  0  0  0  0  0  0  0  0  0  0
   47.7087    7.8505   -9.0127 H   0  0  0  0  0  0  0  0  0  0  0  0
  1  2  1  0  0  0
  2  3  1  0  0  0
  3  4  1  0  0  0
  4  5  2  0  0  0
  4  6  1  0  0  0
  6 29  1  0  0  0
 29 30  1  0  0  0
 30 31  1  0  0  0
 31 32  1  0  0  0
 32 33  1  0  0  0
  6  7  1  0  0  0
  7  8  1  0  0  0
  8  9  2  0  0  0
  8 10  1  0  0  0
 10 36  1  0  0  0
 36 37  1  0  0  0
 37 38  2  0  0  0
 38 39  1  0  0  0
 39 40  2  0  0  0
 40 41  1  0  0  0
 40 42  1  0  0  0
 42 43  2  0  0  0
 10 11  1  0  0  0
 11 12  1  0  0  0
 12 13  2  0  0  0
 12 14  1  0  0  0
 14 45  1  0  0  0
 45 46  1  0  0  0
 46 47  1  0  0  0
 47 48  1  0  0  0
 48 49  1  0  0  0
 14 15  1  0  0  0
 15 16  1  0  0  0
 16 17  2  0  0  0
 16 18  1  0  0  0
 18 19  1  0  0  0
 19 20  1  0  0  0
 20 21  1  0  0  0
 21 22  1  0  0  0
 22 23  1  0  0  0
 23 24  2  0  0  0
 23  2  1  0  0  0
 43 37  1  0  0  0
 22 18  1  0  0  0
  3 25  1  0  0  0
 33 34  1  0  0  0
 33 35  1  0  0  0
  7 26  1  0  0  0
 41 44  1  0  0  0
 11 27  1  0  0  0
 49 50  1  0  0  0
 49 51  1  0  0  0
 15 28  1  0  0  0
M  END
> <minimizedAffinity>
-4.72301

> <CNNscore>
0.3115593791

> <CNNaffinity>
5.8536496162

> <CNN_VS>
1.8237594366

> <CNNaffinity_variance>
0.5760255456

$$$$
[H]Oc1c([H])c([H])c(C([H])([H])[C@@]2([H])C(=O)N([H])[C@@]([H])(C([H])([H])C([H])([H])C([H])([H])C([H])([H])N([H])[H])C(=O)N([H])[C@@]([H])(C([H])([H])[H])C(=O)N3C([H])([H])C([H])([H])C([H])([H])[C@]3([H])C(=O)N([H])[C@@]([H])(C([H])([H])C([H])([H])C([H])([H])C([H])([H])N([H])[H])C(=O)N2[H])c([H])c1[H]


 51 53  0  0  0  0  0  0  0  0999 V2000
   34.7570   15.8522   -9.0567 C   0  0  0  0  0  0  0  0  0  0  0  0
   35.0136   15.6600   -7.5522 C   0  0  0  0  0  0  0  0  0  0  0  0
   35.3437   14.2497   -7.3976 N   0  0  0  0  0  0  0  0  0  0  0  0
   36.5537   13.7905   -6.8439 C   0  0  0  0  0  0  0  0  0  0  0  0
   36.6027   12.6962   -6.2443 O   0  0  0  0  0  0  0  0  0  0  0  0
   37.7852   14.5965   -6.9641 C   0  0  0  0  0  0  0  0  0  0  0  0
   38.3411   14.8258   -5.6405 N   0  0  0  0  0  0  0  0  0  0  0  0
   38.5653   16.0906   -5.0631 C   0  0  0  0  0  0  0  0  0  0  0  0
   38.6807   16.1310   -3.7963 O   0  0  0  0  0  0  0  0  0  0  0  0
   38.6734   17.3467   -5.8142 C   0  0  0  0  0  0  0  0  0  0  0  0
   38.4552   18.5164   -4.9845 N   0  0  0  0  0  0  0  0  0  0  0  0
   37.3443   19.3691   -5.0121 C   0  0  0  0  0  0  0  0  0  0  0  0
   37.0597   20.0347   -3.9866 O   0  0  0  0  0  0  0  0  0  0  0  0
   36.4384   19.5576   -6.2080 C   0  0  0  0  0  0  0  0  0  0  0  0
   35.1196   19.8562   -5.6570 N   0  0  0  0  0  0  0  0  0  0  0  0
   34.2008   18.8605   -5.2327 C   0  0  0  0  0  0  0  0  0  0  0  0
   33.0223   19.2303   -4.9957 O   0  0  0  0  0  0  0  0  0  0  0  0
   34.5267   17.4273   -5.0496 C   0  0  0  0  0  0  0  0  0  0  0  0
   34.4119   17.0996   -3.5532 C   0  0  0  0  0  0  0  0  0  0  0  0
   32.9411   16.8455   -3.3618 C   0  0  0  0  0  0  0  0  0  0  0  0
   32.4063   16.5477   -4.7397 C   0  0  0  0  0  0  0  0  0  0  0  0
   33.5373   16.5613   -5.6465 N   0  0  0  0  0  0  0  0  0  0  0  0
   33.7113   15.8926   -6.8831 C   0  0  0  0  0  0  0  0  0  0  0  0
   32.6798   15.4439   -7.4914 O   0  0  0  0  0  0  0  0  0  0  0  0
   34.6170   13.5596   -7.7265 H   0  0  0  0  0  0  0  0  0  0  0  0
   38.5887   13.9576   -5.0875 H   0  0  0  0  0  0  0  0  0  0  0  0
   39.2542   18.7003   -4.2993 H   0  0  0  0  0  0  0  0  0  0  0  0
   34.8909   20.8891   -5.5932 H   0  0  0  0  0  0  0  0  0  0  0  0
   38.7670   13.7661   -7.7722 C   0  0  0  0  0  0  0  0  0  0  0  0
   40.1560   13.8131   -7.2230 C   0  0  0  0  0  0  0  0  0  0  0  0
   40.3562   12.5455   -6.4035 C   0  0  0  0  0  0  0  0  0  0  0  0
   41.7516   11.9973   -6.5226 C   0  0  0  0  0  0  0  0  0  0  0  0
   41.9825   10.8974   -5.6208 N   0  0  0  0  0  0  0  0  0  0  0  0
   41.1696   10.2784   -5.5073 H   0  0  0  0  0  0  0  0  0  0  0  0
   42.4579   11.1715   -4.7402 H   0  0  0  0  0  0  0  0  0  0  0  0
   39.9800   17.4467   -6.5760 C   0  0  0  0  0  0  0  0  0  0  0  0
   41.1586   17.6373   -5.7350 C   0  0  0  0  0  0  0  0  0  0  0  0
   42.3085   16.9163   -5.9712 C   0  0  0  0  0  0  0  0  0  0  0  0
   43.4418   17.0726   -5.1974 C   0  0  0  0  0  0  0  0  0  0  0  0
   43.4679   17.9650   -4.1473 C   0  0  0  0  0  0  0  0  0  0  0  0
   44.6033   18.1294   -3.3629 O   0  0  0  0  0  0  0  0  0  0  0  0
   42.3242   18.6935   -3.8987 C   0  0  0  0  0  0  0  0  0  0  0  0
   41.1932   18.5274   -4.6832 C   0  0  0  0  0  0  0  0  0  0  0  0
   45.3310   18.8010   -3.5688 H   0  0  0  0  0  0  0  0  0  0  0  0
   36.9706   20.6102   -7.1113 C   0  0  0  0  0  0  0  0  0  0  0  0
   37.4939   20.2261   -8.4294 C   0  0  0  0  0  0  0  0  0  0  0  0
   37.4452   18.7959   -8.8225 C   0  0  0  0  0  0  0  0  0  0  0  0
   38.0396   18.5650  -10.2139 C   0  0  0  0  0  0  0  0  0  0  0  0
   37.1170   17.6578  -10.8956 N   0  0  0  0  0  0  0  0  0  0  0  0
   36.5649   18.1421  -11.6324 H   0  0  0  0  0  0  0  0  0  0  0  0
   36.5478   17.0994  -10.2303 H   0  0  0  0  0  0  0  0  0  0  0  0
  1  2  1  0  0  0
  2  3  1  0  0  0
  3  4  1  0  0  0
  4  5  2  0  0  0
  4  6  1  0  0  0
  6 29  1  0  0  0
 29 30  1  0  0  0
 30 31  1  0  0  0
 31 32  1  0  0  0
 32 33  1  0  0  0
  6  7  1  0  0  0
  7  8  1  0  0  0
  8  9  2  0  0  0
  8 10  1  0  0  0
 10 36  1  0  0  0
 36 37  1  0  0  0
 37 38  2  0  0  0
 38 39  1  0  0  0
 39 40  2  0  0  0
 40 41  1  0  0  0
 40 42  1  0  0  0
 42 43  2  0  0  0
 10 11  1  0  0  0
 11 12  1  0  0  0
 12 13  2  0  0  0
 12 14  1  0  0  0
 14 45  1  0  0  0
 45 46  1  0  0  0
 46 47  1  0  0  0
 47 48  1  0  0  0
 48 49  1  0  0  0
 14 15  1  0  0  0
 15 16  1  0  0  0
 16 17  2  0  0  0
 16 18  1  0  0  0
 18 19  1  0  0  0
 19 20  1  0  0  0
 20 21  1  0  0  0
 21 22  1  0  0  0
 22 23  1  0  0  0
 23 24  2  0  0  0
 23  2  1  0  0  0
 43 37  1  0  0  0
 22 18  1  0  0  0
  3 25  1  0  0  0
 33 34  1  0  0  0
 33 35  1  0  0  0
  7 26  1  0  0  0
 41 44  1  0  0  0
 11 27  1  0  0  0
 49 50  1  0  0  0
 49 51  1  0  0  0
 15 28  1  0  0  0
M  END
> <minimizedAffinity>
-5.73868

> <CNNscore>
0.3101326823

> <CNNaffinity>
5.8796453476

> <CNN_VS>
1.8234702349

> <CNNaffinity_variance>
0.3233661652

$$$$
[H]Oc1c([H])c([H])c(C([H])([H])[C@@]2([H])C(=O)N([H])[C@@]([H])(C([H])([H])C([H])([H])C([H])([H])C([H])([H])N([H])[H])C(=O)N([H])[C@@]([H])(C([H])([H])[H])C(=O)N3C([H])([H])C([H])([H])C([H])([H])[C@]3([H])C(=O)N([H])[C@@]([H])(C([H])([H])C([H])([H])C([H])([H])C([H])([H])N([H])[H])C(=O)N2[H])c([H])c1[H]


 51 53  0  0  0  0  0  0  0  0999 V2000
   45.6395   17.8254   -8.7891 C   0  0  0  0  0  0  0  0  0  0  0  0
   45.9690   16.4398   -8.2078 C   0  0  0  0  0  0  0  0  0  0  0  0
   47.2255   16.6145   -7.4919 N   0  0  0  0  0  0  0  0  0  0  0  0
   47.3842   16.3386   -6.1206 C   0  0  0  0  0  0  0  0  0  0  0  0
   48.4917   15.9796   -5.6692 O   0  0  0  0  0  0  0  0  0  0  0  0
   46.2420   16.4701   -5.1938 C   0  0  0  0  0  0  0  0  0  0  0  0
   46.0585   15.2193   -4.4762 N   0  0  0  0  0  0  0  0  0  0  0  0
   44.8846   14.4414   -4.4894 C   0  0  0  0  0  0  0  0  0  0  0  0
   45.0009   13.2207   -4.1486 O   0  0  0  0  0  0  0  0  0  0  0  0
   43.5554   14.9377   -4.8644 C   0  0  0  0  0  0  0  0  0  0  0  0
   42.6394   13.8714   -5.2222 N   0  0  0  0  0  0  0  0  0  0  0  0
   42.1585   13.5733   -6.5036 C   0  0  0  0  0  0  0  0  0  0  0  0
   41.7670   12.4070   -6.7529 O   0  0  0  0  0  0  0  0  0  0  0  0
   42.0701   14.5685   -7.6386 C   0  0  0  0  0  0  0  0  0  0  0  0
   42.2596   13.7889   -8.8585 N   0  0  0  0  0  0  0  0  0  0  0  0
   43.5338   13.4439   -9.3813 C   0  0  0  0  0  0  0  0  0  0  0  0
   43.5679   12.9747  -10.5477 O   0  0  0  0  0  0  0  0  0  0  0  0
   44.8174   13.5948   -8.6579 C   0  0  0  0  0  0  0  0  0  0  0  0
   45.3833   12.1914   -8.3930 C   0  0  0  0  0  0  0  0  0  0  0  0
   46.0857   11.8483   -9.6787 C   0  0  0  0  0  0  0  0  0  0  0  0
   46.3196   13.1683  -10.3688 C   0  0  0  0  0  0  0  0  0  0  0  0
   45.8379   14.2050   -9.4772 N   0  0  0  0  0  0  0  0  0  0  0  0
   46.2336   15.5610   -9.3720 C   0  0  0  0  0  0  0  0  0  0  0  0
   46.8710   16.0941  -10.3440 O   0  0  0  0  0  0  0  0  0  0  0  0
   48.0425   16.9671   -8.0584 H   0  0  0  0  0  0  0  0  0  0  0  0
   46.8871   14.8889   -3.9059 H   0  0  0  0  0  0  0  0  0  0  0  0
   42.3320   13.2831   -4.3849 H   0  0  0  0  0  0  0  0  0  0  0  0
   41.3618   13.4911   -9.3366 H   0  0  0  0  0  0  0  0  0  0  0  0
   46.6156   17.5564   -4.2004 C   0  0  0  0  0  0  0  0  0  0  0  0
   45.5067   18.5289   -3.9602 C   0  0  0  0  0  0  0  0  0  0  0  0
   45.1964   19.1922   -5.2952 C   0  0  0  0  0  0  0  0  0  0  0  0
   46.2633   20.1648   -5.7166 C   0  0  0  0  0  0  0  0  0  0  0  0
   45.9009   20.8859   -6.9104 N   0  0  0  0  0  0  0  0  0  0  0  0
   44.9028   21.1277   -6.9602 H   0  0  0  0  0  0  0  0  0  0  0  0
   46.3046   20.4866   -7.7788 H   0  0  0  0  0  0  0  0  0  0  0  0
   42.9620   15.8415   -3.8021 C   0  0  0  0  0  0  0  0  0  0  0  0
   41.8085   16.6203   -4.2447 C   0  0  0  0  0  0  0  0  0  0  0  0
   41.9816   17.7391   -5.0298 C   0  0  0  0  0  0  0  0  0  0  0  0
   40.9138   18.4976   -5.4680 C   0  0  0  0  0  0  0  0  0  0  0  0
   39.6193   18.1624   -5.1337 C   0  0  0  0  0  0  0  0  0  0  0  0
   38.5382   18.9192   -5.5695 O   0  0  0  0  0  0  0  0  0  0  0  0
   39.4305   17.0453   -4.3481 C   0  0  0  0  0  0  0  0  0  0  0  0
   40.5111   16.2922   -3.9151 C   0  0  0  0  0  0  0  0  0  0  0  0
   38.0488   18.7445   -6.4373 H   0  0  0  0  0  0  0  0  0  0  0  0
   40.7851   15.3124   -7.5880 C   0  0  0  0  0  0  0  0  0  0  0  0
   39.6649   14.8660   -8.4275 C   0  0  0  0  0  0  0  0  0  0  0  0
   38.3429   14.6486   -7.7893 C   0  0  0  0  0  0  0  0  0  0  0  0
   38.4775   14.0754   -6.3766 C   0  0  0  0  0  0  0  0  0  0  0  0
   38.6966   12.6396   -6.5485 N   0  0  0  0  0  0  0  0  0  0  0  0
   39.6780   12.3657   -6.3389 H   0  0  0  0  0  0  0  0  0  0  0  0
   38.3390   12.2914   -7.4592 H   0  0  0  0  0  0  0  0  0  0  0  0
  1  2  1  0  0  0
  2  3  1  0  0  0
  3  4  1  0  0  0
  4  5  2  0  0  0
  4  6  1  0  0  0
  6 29  1  0  0  0
 29 30  1  0  0  0
 30 31  1  0  0  0
 31 32  1  0  0  0
 32 33  1  0  0  0
  6  7  1  0  0  0
  7  8  1  0  0  0
  8  9  2  0  0  0
  8 10  1  0  0  0
 10 36  1  0  0  0
 36 37  1  0  0  0
 37 38  2  0  0  0
 38 39  1  0  0  0
 39 40  2  0  0  0
 40 41  1  0  0  0
 40 42  1  0  0  0
 42 43  2  0  0  0
 10 11  1  0  0  0
 11 12  1  0  0  0
 12 13  2  0  0  0
 12 14  1  0  0  0
 14 45  1  0  0  0
 45 46  1  0  0  0
 46 47  1  0  0  0
 47 48  1  0  0  0
 48 49  1  0  0  0
 14 15  1  0  0  0
 15 16  1  0  0  0
 16 17  2  0  0  0
 16 18  1  0  0  0
 18 19  1  0  0  0
 19 20  1  0  0  0
 20 21  1  0  0  0
 21 22  1  0  0  0
 22 23  1  0  0  0
 23 24  2  0  0  0
 23  2  1  0  0  0
 43 37  1  0  0  0
 22 18  1  0  0  0
  3 25  1  0  0  0
 33 34  1  0  0  0
 33 35  1  0  0  0
  7 26  1  0  0  0
 41 44  1  0  0  0
 11 27  1  0  0  0
 49 50  1  0  0  0
 49 51  1  0  0  0
 15 28  1  0  0  0
M  END
> <minimizedAffinity>
-4.26148

> <CNNscore>
0.3091661632

> <CNNaffinity>
5.3139028549

> <CNN_VS>
1.6428790092

> <CNNaffinity_variance>
0.6470333934

$$$$
[H]C1=C2[C@](C([H])([H])[H])(C([H])([H])C([H])([H])C1=O)C([H])([H])[C@]1([H])[C@@]([H])(C([H])(C([H])([H])[H])C([H])([H])[H])C([H])([H])C([H])([H])[C@@]1([H])[C@@]2([H])C([H])([H])[H]


 19 21  0  0  0  0  0  0  0  0999 V2000
   36.1799   13.5553   -6.3109 C   0  0  0  0  0  0  0  0  0  0  0  0
   35.3140   14.3497   -7.2721 C   0  0  0  0  0  0  0  0  0  0  0  0
   36.2309   15.5042   -7.7056 C   0  0  0  0  0  0  0  0  0  0  0  0
   37.5048   14.7502   -7.8173 C   0  0  0  0  0  0  0  0  0  0  0  0
   38.7034   15.4989   -8.1747 C   0  0  0  0  0  0  0  0  0  0  0  0
   38.8172   16.8786   -7.5924 C   0  0  0  0  0  0  0  0  0  0  0  0
   39.9129   14.6948   -7.8627 C   0  0  0  0  0  0  0  0  0  0  0  0
   41.0302   15.0251   -8.4945 C   0  0  0  0  0  0  0  0  0  0  0  0
   42.2853   14.3233   -8.2845 C   0  0  0  0  0  0  0  0  0  0  0  0
   43.3853   14.8046   -8.6399 O   0  0  0  0  0  0  0  0  0  0  0  0
   42.2656   13.0022   -7.6323 C   0  0  0  0  0  0  0  0  0  0  0  0
   40.8330   12.4937   -7.4750 C   0  0  0  0  0  0  0  0  0  0  0  0
   39.9463   13.5827   -6.9187 C   0  0  0  0  0  0  0  0  0  0  0  0
   40.5662   14.1023   -5.6217 C   0  0  0  0  0  0  0  0  0  0  0  0
   38.6056   12.9833   -6.6024 C   0  0  0  0  0  0  0  0  0  0  0  0
   37.5732   14.0601   -6.4504 C   0  0  0  0  0  0  0  0  0  0  0  0
   36.4827   14.6692   -4.1738 C   0  0  0  0  0  0  0  0  0  0  0  0
   35.5787   13.7303   -4.9491 C   0  0  0  0  0  0  0  0  0  0  0  0
   34.1896   14.2226   -4.9199 C   0  0  0  0  0  0  0  0  0  0  0  0
 17 18  1  0  0  0
 18 19  1  0  0  0
 18  1  1  0  0  0
  1  2  1  0  0  0
  2  3  1  0  0  0
  3  4  1  0  0  0
  4  5  1  0  0  0
  5  6  1  0  0  0
  5  7  1  0  0  0
  7  8  2  0  0  0
  8  9  1  0  0  0
  9 10  2  0  0  0
  9 11  1  0  0  0
 11 12  1  0  0  0
 12 13  1  0  0  0
 13 14  1  0  0  0
 13 15  1  0  0  0
 15 16  1  0  0  0
 16  1  1  0  0  0
 16  4  1  0  0  0
 13  7  1  0  0  0
M  END
> <minimizedAffinity>
-4.54390

> <CNNscore>
0.5763890147

> <CNNaffinity>
4.6211733818

> <CNN_VS>
2.6635935307

> <CNNaffinity_variance>
0.0428663380

$$$$
[H]C1=C2[C@](C([H])([H])[H])(C([H])([H])C([H])([H])C1=O)C([H])([H])[C@]1([H])[C@@]([H])(C([H])(C([H])([H])[H])C([H])([H])[H])C([H])([H])C([H])([H])[C@@]1([H])[C@@]2([H])C([H])([H])[H]


 19 21  0  0  0  0  0  0  0  0999 V2000
   37.2627   13.8240  -12.5653 C   0  0  0  0  0  0  0  0  0  0  0  0
   36.1475   12.8128  -12.3691 C   0  0  0  0  0  0  0  0  0  0  0  0
   35.8809   12.2969  -13.7919 C   0  0  0  0  0  0  0  0  0  0  0  0
   37.2832   12.2335  -14.2749 C   0  0  0  0  0  0  0  0  0  0  0  0
   37.5039   11.8209  -15.6555 C   0  0  0  0  0  0  0  0  0  0  0  0
   36.4957   12.3055  -16.6577 C   0  0  0  0  0  0  0  0  0  0  0  0
   38.8812   12.1840  -16.0770 C   0  0  0  0  0  0  0  0  0  0  0  0
   39.3823   11.5269  -17.1133 C   0  0  0  0  0  0  0  0  0  0  0  0
   40.7164   11.7809  -17.6307 C   0  0  0  0  0  0  0  0  0  0  0  0
   41.0772   11.3891  -18.7640 O   0  0  0  0  0  0  0  0  0  0  0  0
   41.6777   12.5234  -16.7967 C   0  0  0  0  0  0  0  0  0  0  0  0
   41.1332   12.7206  -15.3824 C   0  0  0  0  0  0  0  0  0  0  0  0
   39.7026   13.2029  -15.4319 C   0  0  0  0  0  0  0  0  0  0  0  0
   39.6403   14.4585  -16.3014 C   0  0  0  0  0  0  0  0  0  0  0  0
   39.2785   13.5646  -14.0369 C   0  0  0  0  0  0  0  0  0  0  0  0
   37.7838   13.6449  -13.9480 C   0  0  0  0  0  0  0  0  0  0  0  0
   35.2133   14.9604  -11.9268 C   0  0  0  0  0  0  0  0  0  0  0  0
   36.6721   15.1723  -12.2831 C   0  0  0  0  0  0  0  0  0  0  0  0
   37.3430   15.9591  -11.2326 C   0  0  0  0  0  0  0  0  0  0  0  0
 17 18  1  0  0  0
 18 19  1  0  0  0
 18  1  1  0  0  0
  1  2  1  0  0  0
  2  3  1  0  0  0
  3  4  1  0  0  0
  4  5  1  0  0  0
  5  6  1  0  0  0
  5  7  1  0  0  0
  7  8  2  0  0  0
  8  9  1  0  0  0
  9 10  2  0  0  0
  9 11  1  0  0  0
 11 12  1  0  0  0
 12 13  1  0  0  0
 13 14  1  0  0  0
 13 15  1  0  0  0
 15 16  1  0  0  0
 16  1  1  0  0  0
 16  4  1  0  0  0
 13  7  1  0  0  0
M  END
> <minimizedAffinity>
-7.36194

> <CNNscore>
0.4874393642

> <CNNaffinity>
5.9302735329

> <CNN_VS>
2.8906488419

> <CNNaffinity_variance>
0.0740862638

$$$$
[H]C1=C2[C@](C([H])([H])[H])(C([H])([H])C([H])([H])C1=O)C([H])([H])[C@]1([H])[C@@]([H])(C([H])(C([H])([H])[H])C([H])([H])[H])C([H])([H])C([H])([H])[C@@]1([H])[C@@]2([H])C([H])([H])[H]


 19 21  0  0  0  0  0  0  0  0999 V2000
   39.9801   12.5914  -15.6052 C   0  0  0  0  0  0  0  0  0  0  0  0
   40.0739   13.2454  -14.2383 C   0  0  0  0  0  0  0  0  0  0  0  0
   38.6743   13.8463  -14.0347 C   0  0  0  0  0  0  0  0  0  0  0  0
   37.8690   12.7445  -14.6189 C   0  0  0  0  0  0  0  0  0  0  0  0
   36.4234   12.9225  -14.6777 C   0  0  0  0  0  0  0  0  0  0  0  0
   35.9420   14.3108  -14.9886 C   0  0  0  0  0  0  0  0  0  0  0  0
   35.8312   11.9373  -15.6187 C   0  0  0  0  0  0  0  0  0  0  0  0
   34.5395   11.6761  -15.4766 C   0  0  0  0  0  0  0  0  0  0  0  0
   33.8329   10.7339  -16.3279 C   0  0  0  0  0  0  0  0  0  0  0  0
   32.5828   10.7047  -16.3953 O   0  0  0  0  0  0  0  0  0  0  0  0
   34.6103    9.7807  -17.1392 C   0  0  0  0  0  0  0  0  0  0  0  0
   36.0900    9.8221  -16.7592 C   0  0  0  0  0  0  0  0  0  0  0  0
   36.5711   11.2513  -16.6727 C   0  0  0  0  0  0  0  0  0  0  0  0
   36.2491   11.9558  -17.9903 C   0  0  0  0  0  0  0  0  0  0  0  0
   38.0621   11.2365  -16.4893 C   0  0  0  0  0  0  0  0  0  0  0  0
   38.5411   12.5648  -15.9848 C   0  0  0  0  0  0  0  0  0  0  0  0
   42.2927   12.9788  -16.2386 C   0  0  0  0  0  0  0  0  0  0  0  0
   40.8598   13.3872  -16.5213 C   0  0  0  0  0  0  0  0  0  0  0  0
   40.5692   13.2591  -17.9607 C   0  0  0  0  0  0  0  0  0  0  0  0
 17 18  1  0  0  0
 18 19  1  0  0  0
 18  1  1  0  0  0
  1  2  1  0  0  0
  2  3  1  0  0  0
  3  4  1  0  0  0
  4  5  1  0  0  0
  5  6  1  0  0  0
  5  7  1  0  0  0
  7  8  2  0  0  0
  8  9  1  0  0  0
  9 10  2  0  0  0
  9 11  1  0  0  0
 11 12  1  0  0  0
 12 13  1  0  0  0
 13 14  1  0  0  0
 13 15  1  0  0  0
 15 16  1  0  0  0
 16  1  1  0  0  0
 16  4  1  0  0  0
 13  7  1  0  0  0
M  END
> <minimizedAffinity>
-5.74673

> <CNNscore>
0.4267947078

> <CNNaffinity>
6.3101377487

> <CNN_VS>
2.6931333542

> <CNNaffinity_variance>
0.3049638569

$$$$
[H]C1=C2[C@](C([H])([H])[H])(C([H])([H])C([H])([H])C1=O)C([H])([H])[C@]1([H])[C@@]([H])(C([H])(C([H])([H])[H])C([H])([H])[H])C([H])([H])C([H])([H])[C@@]1([H])[C@@]2([H])C([H])([H])[H]


 19 21  0  0  0  0  0  0  0  0999 V2000
   37.1480   15.1331   -9.4927 C   0  0  0  0  0  0  0  0  0  0  0  0
   38.5048   15.3806  -10.1272 C   0  0  0  0  0  0  0  0  0  0  0  0
   38.7046   16.8952   -9.9604 C   0  0  0  0  0  0  0  0  0  0  0  0
   38.1394   17.0479   -8.5962 C   0  0  0  0  0  0  0  0  0  0  0  0
   38.0831   18.3922   -8.0353 C   0  0  0  0  0  0  0  0  0  0  0  0
   37.7537   19.4957   -8.9993 C   0  0  0  0  0  0  0  0  0  0  0  0
   37.1589   18.4159   -6.8726 C   0  0  0  0  0  0  0  0  0  0  0  0
   37.3093   19.4101   -6.0091 C   0  0  0  0  0  0  0  0  0  0  0  0
   36.4744   19.5549   -4.8285 C   0  0  0  0  0  0  0  0  0  0  0  0
   36.4118   20.6267   -4.1840 O   0  0  0  0  0  0  0  0  0  0  0  0
   35.6744   18.4045   -4.3727 C   0  0  0  0  0  0  0  0  0  0  0  0
   36.0485   17.1404   -5.1458 C   0  0  0  0  0  0  0  0  0  0  0  0
   36.1124   17.4292   -6.6271 C   0  0  0  0  0  0  0  0  0  0  0  0
   34.7857   18.0520   -7.0610 C   0  0  0  0  0  0  0  0  0  0  0  0
   36.2906   16.1266   -7.3540 C   0  0  0  0  0  0  0  0  0  0  0  0
   36.7740   16.3691   -8.7526 C   0  0  0  0  0  0  0  0  0  0  0  0
   35.3684   15.9764  -10.9144 C   0  0  0  0  0  0  0  0  0  0  0  0
   36.2173   14.7581  -10.6060 C   0  0  0  0  0  0  0  0  0  0  0  0
   36.8575   14.2597  -11.8367 C   0  0  0  0  0  0  0  0  0  0  0  0
 17 18  1  0  0  0
 18 19  1  0  0  0
 18  1  1  0  0  0
  1  2  1  0  0  0
  2  3  1  0  0  0
  3  4  1  0  0  0
  4  5  1  0  0  0
  5  6  1  0  0  0
  5  7  1  0  0  0
  7  8  2  0  0  0
  8  9  1  0  0  0
  9 10  2  0  0  0
  9 11  1  0  0  0
 11 12  1  0  0  0
 12 13  1  0  0  0
 13 14  1  0  0  0
 13 15  1  0  0  0
 15 16  1  0  0  0
 16  1  1  0  0  0
 16  4  1  0  0  0
 13  7  1  0  0  0
M  END
> <minimizedAffinity>
-4.41758

> <CNNscore>
0.4027966559

> <CNNaffinity>
4.8127226830

> <CNN_VS>
1.9385485649

> <CNNaffinity_variance>
0.0854986086

$$$$
[H]C1=C2[C@](C([H])([H])[H])(C([H])([H])C([H])([H])C1=O)C([H])([H])[C@]1([H])[C@@]([H])(C([H])(C([H])([H])[H])C([H])([H])[H])C([H])([H])C([H])([H])[C@@]1([H])[C@@]2([H])C([H])([H])[H]


 19 21  0  0  0  0  0  0  0  0999 V2000
   36.9755   13.1917  -13.9471 C   0  0  0  0  0  0  0  0  0  0  0  0
   36.1578   11.9619  -14.2988 C   0  0  0  0  0  0  0  0  0  0  0  0
   36.7392   11.5233  -15.6521 C   0  0  0  0  0  0  0  0  0  0  0  0
   38.1739   11.7873  -15.3770 C   0  0  0  0  0  0  0  0  0  0  0  0
   39.1240   11.5452  -16.4557 C   0  0  0  0  0  0  0  0  0  0  0  0
   38.6551   11.8964  -17.8386 C   0  0  0  0  0  0  0  0  0  0  0  0
   40.4146   12.2150  -16.1517 C   0  0  0  0  0  0  0  0  0  0  0  0
   41.4871   11.7627  -16.7857 C   0  0  0  0  0  0  0  0  0  0  0  0
   42.8116   12.3253  -16.5834 C   0  0  0  0  0  0  0  0  0  0  0  0
   43.7550   12.1113  -17.3786 O   0  0  0  0  0  0  0  0  0  0  0  0
   43.0552   13.1756  -15.4049 C   0  0  0  0  0  0  0  0  0  0  0  0
   41.8620   13.1388  -14.4508 C   0  0  0  0  0  0  0  0  0  0  0  0
   40.5718   13.3222  -15.2145 C   0  0  0  0  0  0  0  0  0  0  0  0
   40.6693   14.6070  -16.0368 C   0  0  0  0  0  0  0  0  0  0  0  0
   39.4538   13.4721  -14.2223 C   0  0  0  0  0  0  0  0  0  0  0  0
   38.1296   13.2387  -14.8859 C   0  0  0  0  0  0  0  0  0  0  0  0
   34.6435   13.8464  -13.7673 C   0  0  0  0  0  0  0  0  0  0  0  0
   36.0444   14.3631  -14.0324 C   0  0  0  0  0  0  0  0  0  0  0  0
   36.3489   15.4910  -13.1336 C   0  0  0  0  0  0  0  0  0  0  0  0
 17 18  1  0  0  0
 18 19  1  0  0  0
 18  1  1  0  0  0
  1  2  1  0  0  0
  2  3  1  0  0  0
  3  4  1  0  0  0
  4  5  1  0  0  0
  5  6  1  0  0  0
  5  7  1  0  0  0
  7  8  2  0  0  0
  8  9  1  0  0  0
  9 10  2  0  0  0
  9 11  1  0  0  0
 11 12  1  0  0  0
 12 13  1  0  0  0
 13 14  1  0  0  0
 13 15  1  0  0  0
 15 16  1  0  0  0
 16  1  1  0  0  0
 16  4  1  0  0  0
 13  7  1  0  0  0
M  END
> <minimizedAffinity>
-5.64673

> <CNNscore>
0.3797717094

> <CNNaffinity>
5.7961597443

> <CNN_VS>
2.2012174129

> <CNNaffinity_variance>
0.1534369886

$$$$
[H]C1=C2[C@](C([H])([H])[H])(C([H])([H])C([H])([H])C1=O)C([H])([H])[C@]1([H])[C@@]([H])(C([H])(C([H])([H])[H])C([H])([H])[H])C([H])([H])C([H])([H])[C@@]1([H])[C@@]2([H])C([H])([H])[H]


 19 21  0  0  0  0  0  0  0  0999 V2000
   44.0324   14.2337   -8.1975 C   0  0  0  0  0  0  0  0  0  0  0  0
   44.8092   13.6906   -9.3834 C   0  0  0  0  0  0  0  0  0  0  0  0
   45.6661   12.5743   -8.7660 C   0  0  0  0  0  0  0  0  0  0  0  0
   44.6646   12.0174   -7.8223 C   0  0  0  0  0  0  0  0  0  0  0  0
   45.0865   10.9206   -6.9597 C   0  0  0  0  0  0  0  0  0  0  0  0
   46.4938   10.9940   -6.4405 C   0  0  0  0  0  0  0  0  0  0  0  0
   44.1213   10.7571   -5.8423 C   0  0  0  0  0  0  0  0  0  0  0  0
   44.1093    9.5819   -5.2295 C   0  0  0  0  0  0  0  0  0  0  0  0
   43.2164    9.2856   -4.1219 C   0  0  0  0  0  0  0  0  0  0  0  0
   43.4003    8.3081   -3.3610 O   0  0  0  0  0  0  0  0  0  0  0  0
   42.0562   10.1622   -3.8841 C   0  0  0  0  0  0  0  0  0  0  0  0
   41.8790   11.1546   -5.0327 C   0  0  0  0  0  0  0  0  0  0  0  0
   43.2017   11.7934   -5.3848 C   0  0  0  0  0  0  0  0  0  0  0  0
   43.7991   12.4089   -4.1196 C   0  0  0  0  0  0  0  0  0  0  0  0
   42.9454   12.8920   -6.3769 C   0  0  0  0  0  0  0  0  0  0  0  0
   44.2169   13.2770   -7.0723 C   0  0  0  0  0  0  0  0  0  0  0  0
   44.0944   16.4905   -9.0933 C   0  0  0  0  0  0  0  0  0  0  0  0
   44.5527   15.6160   -7.9422 C   0  0  0  0  0  0  0  0  0  0  0  0
   44.1609   16.2213   -6.6565 C   0  0  0  0  0  0  0  0  0  0  0  0
 17 18  1  0  0  0
 18 19  1  0  0  0
 18  1  1  0  0  0
  1  2  1  0  0  0
  2  3  1  0  0  0
  3  4  1  0  0  0
  4  5  1  0  0  0
  5  6  1  0  0  0
  5  7  1  0  0  0
  7  8  2  0  0  0
  8  9  1  0  0  0
  9 10  2  0  0  0
  9 11  1  0  0  0
 11 12  1  0  0  0
 12 13  1  0  0  0
 13 14  1  0  0  0
 13 15  1  0  0  0
 15 16  1  0  0  0
 16  1  1  0  0  0
 16  4  1  0  0  0
 13  7  1  0  0  0
M  END
> <minimizedAffinity>
-4.40147

> <CNNscore>
0.3774118423

> <CNNaffinity>
4.3688063622

> <CNN_VS>
1.6488392353

> <CNNaffinity_variance>
0.0033593625

$$$$
[H]C1=C2[C@](C([H])([H])[H])(C([H])([H])C([H])([H])C1=O)C([H])([H])[C@]1([H])[C@@]([H])(C([H])(C([H])([H])[H])C([H])([H])[H])C([H])([H])C([H])([H])[C@@]1([H])[C@@]2([H])C([H])([H])[H]


 19 21  0  0  0  0  0  0  0  0999 V2000
   41.1048   13.6736  -15.3824 C   0  0  0  0  0  0  0  0  0  0  0  0
   41.5973   13.4190  -16.7956 C   0  0  0  0  0  0  0  0  0  0  0  0
   40.7061   12.2647  -17.2803 C   0  0  0  0  0  0  0  0  0  0  0  0
   39.4220   12.7037  -16.6786 C   0  0  0  0  0  0  0  0  0  0  0  0
   38.2623   11.8386  -16.8563 C   0  0  0  0  0  0  0  0  0  0  0  0
   38.5281   10.3612  -16.8073 C   0  0  0  0  0  0  0  0  0  0  0  0
   37.1990   12.2143  -15.8893 C   0  0  0  0  0  0  0  0  0  0  0  0
   35.9630   11.8366  -16.1829 C   0  0  0  0  0  0  0  0  0  0  0  0
   34.8282   12.1369  -15.3262 C   0  0  0  0  0  0  0  0  0  0  0  0
   33.7321   11.5419  -15.4393 O   0  0  0  0  0  0  0  0  0  0  0  0
   34.9691   13.1749  -14.2900 C   0  0  0  0  0  0  0  0  0  0  0  0
   36.2880   13.9300  -14.4513 C   0  0  0  0  0  0  0  0  0  0  0  0
   37.4278   12.9602  -14.6564 C   0  0  0  0  0  0  0  0  0  0  0  0
   37.4258   11.9539  -13.5059 C   0  0  0  0  0  0  0  0  0  0  0  0
   38.7162   13.7317  -14.6158 C   0  0  0  0  0  0  0  0  0  0  0  0
   39.8284   12.9258  -15.2174 C   0  0  0  0  0  0  0  0  0  0  0  0
   43.4891   13.2236  -15.2738 C   0  0  0  0  0  0  0  0  0  0  0  0
   42.2086   13.2489  -14.4617 C   0  0  0  0  0  0  0  0  0  0  0  0
   42.3890   14.0738  -13.2535 C   0  0  0  0  0  0  0  0  0  0  0  0
 17 18  1  0  0  0
 18 19  1  0  0  0
 18  1  1  0  0  0
  1  2  1  0  0  0
  2  3  1  0  0  0
  3  4  1  0  0  0
  4  5  1  0  0  0
  5  6  1  0  0  0
  5  7  1  0  0  0
  7  8  2  0  0  0
  8  9  1  0  0  0
  9 10  2  0  0  0
  9 11  1  0  0  0
 11 12  1  0  0  0
 12 13  1  0  0  0
 13 14  1  0  0  0
 13 15  1  0  0  0
 15 16  1  0  0  0
 16  1  1  0  0  0
 16  4  1  0  0  0
 13  7  1  0  0  0
M  END
> <minimizedAffinity>
-8.20275

> <CNNscore>
0.3620707989

> <CNNaffinity>
6.1686611176

> <CNN_VS>
2.2334921360

> <CNNaffinity_variance>
0.1100589260

$$$$
[H]C1=C2[C@](C([H])([H])[H])(C([H])([H])C([H])([H])C1=O)C([H])([H])[C@]1([H])[C@@]([H])(C([H])(C([H])([H])[H])C([H])([H])[H])C([H])([H])C([H])([H])[C@@]1([H])[C@@]2([H])C([H])([H])[H]


 19 21  0  0  0  0  0  0  0  0999 V2000
   35.3702   13.1347  -15.1619 C   0  0  0  0  0  0  0  0  0  0  0  0
   35.3451   14.4981  -14.4947 C   0  0  0  0  0  0  0  0  0  0  0  0
   36.7608   14.6354  -13.9128 C   0  0  0  0  0  0  0  0  0  0  0  0
   37.5240   14.0273  -15.0315 C   0  0  0  0  0  0  0  0  0  0  0  0
   38.9682   13.9045  -14.8754 C   0  0  0  0  0  0  0  0  0  0  0  0
   39.4555   13.5601  -13.4972 C   0  0  0  0  0  0  0  0  0  0  0  0
   39.5048   12.9481  -15.8774 C   0  0  0  0  0  0  0  0  0  0  0  0
   40.7975   13.0367  -16.1564 C   0  0  0  0  0  0  0  0  0  0  0  0
   41.4529   12.1644  -17.1164 C   0  0  0  0  0  0  0  0  0  0  0  0
   42.6983   12.0433  -17.1646 O   0  0  0  0  0  0  0  0  0  0  0  0
   40.6275   11.3964  -18.0650 C   0  0  0  0  0  0  0  0  0  0  0  0
   39.1664   11.8396  -17.9984 C   0  0  0  0  0  0  0  0  0  0  0  0
   38.7100   11.9335  -16.5615 C   0  0  0  0  0  0  0  0  0  0  0  0
   38.9848   10.5966  -15.8734 C   0  0  0  0  0  0  0  0  0  0  0  0
   37.2284   12.1812  -16.5528 C   0  0  0  0  0  0  0  0  0  0  0  0
   36.7908   12.6935  -15.2131 C   0  0  0  0  0  0  0  0  0  0  0  0
   33.5347   13.1521  -13.5712 C   0  0  0  0  0  0  0  0  0  0  0  0
   34.4632   12.2500  -14.3612 C   0  0  0  0  0  0  0  0  0  0  0  0
   33.6817   11.2667  -15.1327 C   0  0  0  0  0  0  0  0  0  0  0  0
 17 18  1  0  0  0
 18 19  1  0  0  0
 18  1  1  0  0  0
  1  2  1  0  0  0
  2  3  1  0  0  0
  3  4  1  0  0  0
  4  5  1  0  0  0
  5  6  1  0  0  0
  5  7  1  0  0  0
  7  8  2  0  0  0
  8  9  1  0  0  0
  9 10  2  0  0  0
  9 11  1  0  0  0
 11 12  1  0  0  0
 12 13  1  0  0  0
 13 14  1  0  0  0
 13 15  1  0  0  0
 15 16  1  0  0  0
 16  1  1  0  0  0
 16  4  1  0  0  0
 13  7  1  0  0  0
M  END
> <minimizedAffinity>
-5.72406

> <CNNscore>
0.3457116485

> <CNNaffinity>
5.9816083908

> <CNN_VS>
2.0679116249

> <CNNaffinity_variance>
0.1656370461

$$$$
[H]C1=C2[C@](C([H])([H])[H])(C([H])([H])C([H])([H])C1=O)C([H])([H])[C@]1([H])[C@@]([H])(C([H])(C([H])([H])[H])C([H])([H])[H])C([H])([H])C([H])([H])[C@@]1([H])[C@@]2([H])C([H])([H])[H]


 19 21  0  0  0  0  0  0  0  0999 V2000
   37.2848   11.3320  -15.9611 C   0  0  0  0  0  0  0  0  0  0  0  0
   38.7266   10.9527  -16.2477 C   0  0  0  0  0  0  0  0  0  0  0  0
   39.5116   12.2125  -15.8498 C   0  0  0  0  0  0  0  0  0  0  0  0
   38.7443   12.5812  -14.6336 C   0  0  0  0  0  0  0  0  0  0  0  0
   39.1347   13.7978  -13.9320 C   0  0  0  0  0  0  0  0  0  0  0  0
   39.5689   14.9469  -14.7961 C   0  0  0  0  0  0  0  0  0  0  0  0
   38.0515   14.2162  -13.0055 C   0  0  0  0  0  0  0  0  0  0  0  0
   38.3935   15.0222  -12.0105 C   0  0  0  0  0  0  0  0  0  0  0  0
   37.4354   15.5082  -11.0319 C   0  0  0  0  0  0  0  0  0  0  0  0
   37.6816   16.4830  -10.2855 O   0  0  0  0  0  0  0  0  0  0  0  0
   36.1309   14.8336  -10.9118 C   0  0  0  0  0  0  0  0  0  0  0  0
   36.1038   13.5490  -11.7392 C   0  0  0  0  0  0  0  0  0  0  0  0
   36.6572   13.8020  -13.1218 C   0  0  0  0  0  0  0  0  0  0  0  0
   35.8866   14.9620  -13.7517 C   0  0  0  0  0  0  0  0  0  0  0  0
   36.4323   12.5704  -13.9522 C   0  0  0  0  0  0  0  0  0  0  0  0
   37.3081   12.5920  -15.1691 C   0  0  0  0  0  0  0  0  0  0  0  0
   37.3346   10.5214  -18.2502 C   0  0  0  0  0  0  0  0  0  0  0  0
   36.5974   11.4339  -17.2890 C   0  0  0  0  0  0  0  0  0  0  0  0
   35.1575   11.1182  -17.2916 C   0  0  0  0  0  0  0  0  0  0  0  0
 17 18  1  0  0  0
 18 19  1  0  0  0
 18  1  1  0  0  0
  1  2  1  0  0  0
  2  3  1  0  0  0
  3  4  1  0  0  0
  4  5  1  0  0  0
  5  6  1  0  0  0
  5  7  1  0  0  0
  7  8  2  0  0  0
  8  9  1  0  0  0
  9 10  2  0  0  0
  9 11  1  0  0  0
 11 12  1  0  0  0
 12 13  1  0  0  0
 13 14  1  0  0  0
 13 15  1  0  0  0
 15 16  1  0  0  0
 16  1  1  0  0  0
 16  4  1  0  0  0
 13  7  1  0  0  0
M  END
> <minimizedAffinity>
-6.97959

> <CNNscore>
0.3274445534

> <CNNaffinity>
5.7708678246

> <CNN_VS>
1.8896392584

> <CNNaffinity_variance>
0.1099530011

$$$$
[H]c1c([H])c([H])c(C([H])([H])OC(=O)N([H])[C@@]([H])(C(=O)N([H])[C@]([H])(C(=O)N([H])[C@]([H])(C(=O)N([H])[C@]([H])(C(=O)N([H])C([H])([H])[H])C([H])([H])c2c([H])c([H])c([H])c([H])c2[H])C([H])([H])c2c([H])c([H])c([H])c([H])c2[H])C([H])([H])C([H])(C([H])([H])[H])C([H])([H])[H])C([H])([H])c2c([H])c([H])c([H])c([H])c2[H])c([H])c1[H]


 58 61  0  0  0  0  0  0  0  0999 V2000
   42.0302   14.3787  -12.9510 N   0  0  0  0  0  0  0  0  0  0  0  0
   42.1455   15.5862  -12.2916 C   0  0  0  0  0  0  0  0  0  0  0  0
   41.5213   16.5850  -12.8331 O   0  0  0  0  0  0  0  0  0  0  0  0
   42.4241   13.4540  -12.6449 H   0  0  0  0  0  0  0  0  0  0  0  0
   42.8639   15.8904  -11.0764 C   0  0  0  0  0  0  0  0  0  0  0  0
   42.7474   14.7842  -10.1099 N   0  0  0  0  0  0  0  0  0  0  0  0
   42.0899   14.9488   -8.8807 C   0  0  0  0  0  0  0  0  0  0  0  0
   41.5800   16.0650   -8.6296 O   0  0  0  0  0  0  0  0  0  0  0  0
   43.1612   13.8596  -10.3479 H   0  0  0  0  0  0  0  0  0  0  0  0
   41.9540   13.8863   -7.8429 C   0  0  0  0  0  0  0  0  0  0  0  0
   40.7322   13.9765   -7.0945 N   0  0  0  0  0  0  0  0  0  0  0  0
   40.0187   12.7698   -6.8436 C   0  0  0  0  0  0  0  0  0  0  0  0
   40.4561   11.6579   -7.2727 O   0  0  0  0  0  0  0  0  0  0  0  0
   40.3280   14.8535   -6.7233 H   0  0  0  0  0  0  0  0  0  0  0  0
   38.8260   12.7119   -6.1331 O   0  0  0  0  0  0  0  0  0  0  0  0
   37.6221   13.2571   -6.7203 C   0  0  0  0  0  0  0  0  0  0  0  0
   36.8945   13.9619   -5.6374 C   0  0  0  0  0  0  0  0  0  0  0  0
   37.3893   15.0817   -4.9890 C   0  0  0  0  0  0  0  0  0  0  0  0
   36.6648   15.7017   -3.9872 C   0  0  0  0  0  0  0  0  0  0  0  0
   35.4242   15.2133   -3.6097 C   0  0  0  0  0  0  0  0  0  0  0  0
   34.9469   14.1048   -4.2603 C   0  0  0  0  0  0  0  0  0  0  0  0
   35.6702   13.4819   -5.2642 C   0  0  0  0  0  0  0  0  0  0  0  0
   43.1681   14.0723   -6.9451 C   0  0  0  0  0  0  0  0  0  0  0  0
   43.7825   12.8330   -6.4780 C   0  0  0  0  0  0  0  0  0  0  0  0
   44.6741   12.0476   -7.1670 C   0  0  0  0  0  0  0  0  0  0  0  0
   45.2217   10.8984   -6.6328 C   0  0  0  0  0  0  0  0  0  0  0  0
   44.9064   10.4652   -5.3679 C   0  0  0  0  0  0  0  0  0  0  0  0
   43.9996   11.2461   -4.6469 C   0  0  0  0  0  0  0  0  0  0  0  0
   43.4570   12.3853   -5.1809 C   0  0  0  0  0  0  0  0  0  0  0  0
   44.2094   16.4540  -11.2156 C   0  0  0  0  0  0  0  0  0  0  0  0
   45.0847   16.2588  -10.0253 C   0  0  0  0  0  0  0  0  0  0  0  0
   44.9585   17.4653   -9.0733 C   0  0  0  0  0  0  0  0  0  0  0  0
   46.5709   16.3261  -10.4687 C   0  0  0  0  0  0  0  0  0  0  0  0
   41.2547   14.2266  -14.2153 C   0  0  0  0  0  0  0  0  0  0  0  0
   39.1319   14.4008  -12.8478 N   0  0  0  0  0  0  0  0  0  0  0  0
   39.8940   14.6331  -13.9963 C   0  0  0  0  0  0  0  0  0  0  0  0
   39.2933   15.2706  -14.9335 O   0  0  0  0  0  0  0  0  0  0  0  0
   39.6323   13.9040  -12.0554 H   0  0  0  0  0  0  0  0  0  0  0  0
   37.7208   14.7870  -12.6780 C   0  0  0  0  0  0  0  0  0  0  0  0
   38.6446   17.3929   -9.9355 C   0  0  0  0  0  0  0  0  0  0  0  0
   38.7615   16.5044  -11.0959 N   0  0  0  0  0  0  0  0  0  0  0  0
   37.6349   15.7027  -11.4873 C   0  0  0  0  0  0  0  0  0  0  0  0
   36.5783   15.7494  -10.8466 O   0  0  0  0  0  0  0  0  0  0  0  0
   39.6334   16.4240  -11.6292 H   0  0  0  0  0  0  0  0  0  0  0  0
   37.0070   13.4851  -12.4507 C   0  0  0  0  0  0  0  0  0  0  0  0
   35.8814   13.1772  -13.3162 C   0  0  0  0  0  0  0  0  0  0  0  0
   36.0311   12.3167  -14.3826 C   0  0  0  0  0  0  0  0  0  0  0  0
   34.9501   11.9878  -15.1908 C   0  0  0  0  0  0  0  0  0  0  0  0
   33.7045   12.5012  -14.9597 C   0  0  0  0  0  0  0  0  0  0  0  0
   33.5425   13.3771  -13.8754 C   0  0  0  0  0  0  0  0  0  0  0  0
   34.6076   13.6970  -13.0866 C   0  0  0  0  0  0  0  0  0  0  0  0
   41.5989   13.0037  -14.9500 C   0  0  0  0  0  0  0  0  0  0  0  0
   40.7155   12.4804  -15.9703 C   0  0  0  0  0  0  0  0  0  0  0  0
   41.1040   12.4339  -17.2885 C   0  0  0  0  0  0  0  0  0  0  0  0
   40.2936   11.9399  -18.3115 C   0  0  0  0  0  0  0  0  0  0  0  0
   39.0501   11.4829  -17.9566 C   0  0  0  0  0  0  0  0  0  0  0  0
   38.6571   11.5266  -16.6383 C   0  0  0  0  0  0  0  0  0  0  0  0
   39.4478   12.0093  -15.6335 C   0  0  0  0  0  0  0  0  0  0  0  0
 40 41  1  0  0  0
 41 42  1  0  0  0
 42 43  2  0  0  0
 42 39  1  0  0  0
 39 45  1  0  0  0
 45 46  1  0  0  0
 46 47  2  0  0  0
 47 48  1  0  0  0
 48 49  2  0  0  0
 49 50  1  0  0  0
 50 51  2  0  0  0
 39 35  1  0  0  0
 35 36  1  0  0  0
 36 37  2  0  0  0
 36 34  1  0  0  0
 34 52  1  0  0  0
 52 53  1  0  0  0
 53 54  2  0  0  0
 54 55  1  0  0  0
 55 56  2  0  0  0
 56 57  1  0  0  0
 57 58  2  0  0  0
 34  1  1  0  0  0
  1  2  1  0  0  0
  2  3  2  0  0  0
  2  5  1  0  0  0
  5 30  1  0  0  0
 30 31  1  0  0  0
 31 32  1  0  0  0
 31 33  1  0  0  0
  5  6  1  0  0  0
  6  7  1  0  0  0
  7  8  2  0  0  0
  7 10  1  0  0  0
 10 23  1  0  0  0
 23 24  1  0  0  0
 24 25  2  0  0  0
 25 26  1  0  0  0
 26 27  2  0  0  0
 27 28  1  0  0  0
 28 29  2  0  0  0
 10 11  1  0  0  0
 11 12  1  0  0  0
 12 13  2  0  0  0
 12 15  1  0  0  0
 15 16  1  0  0  0
 16 17  1  0  0  0
 17 18  2  0  0  0
 18 19  1  0  0  0
 19 20  2  0  0  0
 20 21  1  0  0  0
 21 22  2  0  0  0
 51 46  1  0  0  0
 58 53  1  0  0  0
 29 24  1  0  0  0
 22 17  1  0  0  0
 41 44  1  0  0  0
 35 38  1  0  0  0
  1  4  1  0  0  0
  6  9  1  0  0  0
 11 14  1  0  0  0
M  END
> <minimizedAffinity>
-8.85455

> <CNNscore>
0.2700289786

> <CNNaffinity>
7.1319084167

> <CNN_VS>
1.9258219004

> <CNNaffinity_variance>
0.5702593327

$$$$
[H]c1c([H])c([H])c(C([H])([H])OC(=O)N([H])[C@@]([H])(C(=O)N([H])[C@]([H])(C(=O)N([H])[C@]([H])(C(=O)N([H])[C@]([H])(C(=O)N([H])C([H])([H])[H])C([H])([H])c2c([H])c([H])c([H])c([H])c2[H])C([H])([H])c2c([H])c([H])c([H])c([H])c2[H])C([H])([H])C([H])(C([H])([H])[H])C([H])([H])[H])C([H])([H])c2c([H])c([H])c([H])c([H])c2[H])c([H])c1[H]


 58 61  0  0  0  0  0  0  0  0999 V2000
   41.1225   14.4537  -13.1291 N   0  0  0  0  0  0  0  0  0  0  0  0
   42.5027   14.4914  -13.1333 C   0  0  0  0  0  0  0  0  0  0  0  0
   43.0715   14.1549  -14.2485 O   0  0  0  0  0  0  0  0  0  0  0  0
   40.4875   14.7320  -12.3397 H   0  0  0  0  0  0  0  0  0  0  0  0
   43.4026   14.8588  -12.0654 C   0  0  0  0  0  0  0  0  0  0  0  0
   43.0056   14.2124  -10.8021 N   0  0  0  0  0  0  0  0  0  0  0  0
   42.6299   14.9649   -9.6782 C   0  0  0  0  0  0  0  0  0  0  0  0
   42.6196   16.2132   -9.7811 O   0  0  0  0  0  0  0  0  0  0  0  0
   43.0023   13.1734  -10.7454 H   0  0  0  0  0  0  0  0  0  0  0  0
   42.2413   14.3844   -8.3605 C   0  0  0  0  0  0  0  0  0  0  0  0
   41.4326   15.2668   -7.5677 N   0  0  0  0  0  0  0  0  0  0  0  0
   40.1380   14.8136   -7.1848 C   0  0  0  0  0  0  0  0  0  0  0  0
   39.7222   13.6675   -7.5389 O   0  0  0  0  0  0  0  0  0  0  0  0
   41.7182   16.2100   -7.2531 H   0  0  0  0  0  0  0  0  0  0  0  0
   39.2534   15.5628   -6.4186 O   0  0  0  0  0  0  0  0  0  0  0  0
   37.8465   15.5617   -6.7534 C   0  0  0  0  0  0  0  0  0  0  0  0
   37.1407   14.8667   -5.6499 C   0  0  0  0  0  0  0  0  0  0  0  0
   37.6234   14.8081   -4.3528 C   0  0  0  0  0  0  0  0  0  0  0  0
   36.9203   14.1483   -3.3612 C   0  0  0  0  0  0  0  0  0  0  0  0
   35.7137   13.5294   -3.6463 C   0  0  0  0  0  0  0  0  0  0  0  0
   35.2479   13.5959   -4.9341 C   0  0  0  0  0  0  0  0  0  0  0  0
   35.9499   14.2562   -5.9292 C   0  0  0  0  0  0  0  0  0  0  0  0
   43.5637   14.0783   -7.6734 C   0  0  0  0  0  0  0  0  0  0  0  0
   43.6481   12.7537   -7.0653 C   0  0  0  0  0  0  0  0  0  0  0  0
   42.6706   12.1201   -6.3378 C   0  0  0  0  0  0  0  0  0  0  0  0
   42.8336   10.8518   -5.8175 C   0  0  0  0  0  0  0  0  0  0  0  0
   43.9937   10.1382   -5.9969 C   0  0  0  0  0  0  0  0  0  0  0  0
   45.0047   10.7620   -6.7322 C   0  0  0  0  0  0  0  0  0  0  0  0
   44.8398   12.0215   -7.2458 C   0  0  0  0  0  0  0  0  0  0  0  0
   44.8385   14.8239  -12.3561 C   0  0  0  0  0  0  0  0  0  0  0  0
   45.4943   16.1620  -12.3806 C   0  0  0  0  0  0  0  0  0  0  0  0
   44.4385   17.2636  -12.6033 C   0  0  0  0  0  0  0  0  0  0  0  0
   46.3790   16.2732  -13.6514 C   0  0  0  0  0  0  0  0  0  0  0  0
   40.3284   14.0368  -14.3201 C   0  0  0  0  0  0  0  0  0  0  0  0
   37.9539   13.4715  -13.6500 N   0  0  0  0  0  0  0  0  0  0  0  0
   38.9420   14.3485  -14.1064 C   0  0  0  0  0  0  0  0  0  0  0  0
   38.5434   15.5421  -14.3557 O   0  0  0  0  0  0  0  0  0  0  0  0
   38.2824   12.4920  -13.4096 H   0  0  0  0  0  0  0  0  0  0  0  0
   36.5297   13.8120  -13.4921 C   0  0  0  0  0  0  0  0  0  0  0  0
   36.2479   16.7782  -10.9845 C   0  0  0  0  0  0  0  0  0  0  0  0
   36.3998   16.0374  -12.2407 N   0  0  0  0  0  0  0  0  0  0  0  0
   36.3840   14.6007  -12.2191 C   0  0  0  0  0  0  0  0  0  0  0  0
   36.2561   13.9902  -11.1514 O   0  0  0  0  0  0  0  0  0  0  0  0
   36.5354   16.5161  -13.1372 H   0  0  0  0  0  0  0  0  0  0  0  0
   35.8379   12.4806  -13.4223 C   0  0  0  0  0  0  0  0  0  0  0  0
   35.2735   11.9526  -14.6525 C   0  0  0  0  0  0  0  0  0  0  0  0
   33.9463   11.5856  -14.7147 C   0  0  0  0  0  0  0  0  0  0  0  0
   33.3907   11.1166  -15.8985 C   0  0  0  0  0  0  0  0  0  0  0  0
   34.1346   11.0030  -17.0396 C   0  0  0  0  0  0  0  0  0  0  0  0
   35.4865   11.3754  -16.9860 C   0  0  0  0  0  0  0  0  0  0  0  0
   36.0262   11.8339  -15.8208 C   0  0  0  0  0  0  0  0  0  0  0  0
   40.7663   12.7502  -14.8737 C   0  0  0  0  0  0  0  0  0  0  0  0
   40.3199   12.3169  -16.1807 C   0  0  0  0  0  0  0  0  0  0  0  0
   39.4238   11.2829  -16.3170 C   0  0  0  0  0  0  0  0  0  0  0  0
   38.9603   10.8253  -17.5510 C   0  0  0  0  0  0  0  0  0  0  0  0
   39.4388   11.4572  -18.6704 C   0  0  0  0  0  0  0  0  0  0  0  0
   40.3352   12.4932  -18.5390 C   0  0  0  0  0  0  0  0  0  0  0  0
   40.7913   12.9446  -17.3323 C   0  0  0  0  0  0  0  0  0  0  0  0
 40 41  1  0  0  0
 41 42  1  0  0  0
 42 43  2  0  0  0
 42 39  1  0  0  0
 39 45  1  0  0  0
 45 46  1  0  0  0
 46 47  2  0  0  0
 47 48  1  0  0  0
 48 49  2  0  0  0
 49 50  1  0  0  0
 50 51  2  0  0  0
 39 35  1  0  0  0
 35 36  1  0  0  0
 36 37  2  0  0  0
 36 34  1  0  0  0
 34 52  1  0  0  0
 52 53  1  0  0  0
 53 54  2  0  0  0
 54 55  1  0  0  0
 55 56  2  0  0  0
 56 57  1  0  0  0
 57 58  2  0  0  0
 34  1  1  0  0  0
  1  2  1  0  0  0
  2  3  2  0  0  0
  2  5  1  0  0  0
  5 30  1  0  0  0
 30 31  1  0  0  0
 31 32  1  0  0  0
 31 33  1  0  0  0
  5  6  1  0  0  0
  6  7  1  0  0  0
  7  8  2  0  0  0
  7 10  1  0  0  0
 10 23  1  0  0  0
 23 24  1  0  0  0
 24 25  2  0  0  0
 25 26  1  0  0  0
 26 27  2  0  0  0
 27 28  1  0  0  0
 28 29  2  0  0  0
 10 11  1  0  0  0
 11 12  1  0  0  0
 12 13  2  0  0  0
 12 15  1  0  0  0
 15 16  1  0  0  0
 16 17  1  0  0  0
 17 18  2  0  0  0
 18 19  1  0  0  0
 19 20  2  0  0  0
 20 21  1  0  0  0
 21 22  2  0  0  0
 51 46  1  0  0  0
 58 53  1  0  0  0
 29 24  1  0  0  0
 22 17  1  0  0  0
 41 44  1  0  0  0
 35 38  1  0  0  0
  1  4  1  0  0  0
  6  9  1  0  0  0
 11 14  1  0  0  0
M  END
> <minimizedAffinity>
-8.36623

> <CNNscore>
0.2412344962

> <CNNaffinity>
7.3263158798

> <CNN_VS>
1.7673600912

> <CNNaffinity_variance>
0.2106453925

$$$$
[H]c1c([H])c([H])c(C([H])([H])OC(=O)N([H])[C@@]([H])(C(=O)N([H])[C@]([H])(C(=O)N([H])[C@]([H])(C(=O)N([H])[C@]([H])(C(=O)N([H])C([H])([H])[H])C([H])([H])c2c([H])c([H])c([H])c([H])c2[H])C([H])([H])c2c([H])c([H])c([H])c([H])c2[H])C([H])([H])C([H])(C([H])([H])[H])C([H])([H])[H])C([H])([H])c2c([H])c([H])c([H])c([H])c2[H])c([H])c1[H]


 58 61  0  0  0  0  0  0  0  0999 V2000
   38.7057   14.5233  -14.0841 N   0  0  0  0  0  0  0  0  0  0  0  0
   37.7954   13.6877  -13.4679 C   0  0  0  0  0  0  0  0  0  0  0  0
   38.2340   12.5074  -13.1595 O   0  0  0  0  0  0  0  0  0  0  0  0
   38.5515   15.5234  -14.3665 H   0  0  0  0  0  0  0  0  0  0  0  0
   36.4198   13.9490  -13.1147 C   0  0  0  0  0  0  0  0  0  0  0  0
   36.3149   15.1628  -12.2858 N   0  0  0  0  0  0  0  0  0  0  0  0
   36.1623   15.0899  -10.8923 C   0  0  0  0  0  0  0  0  0  0  0  0
   36.1379   13.9562  -10.3604 O   0  0  0  0  0  0  0  0  0  0  0  0
   36.3576   16.0947  -12.7468 H   0  0  0  0  0  0  0  0  0  0  0  0
   36.0240   16.2706   -9.9916 C   0  0  0  0  0  0  0  0  0  0  0  0
   37.2115   16.5495   -9.2346 N   0  0  0  0  0  0  0  0  0  0  0  0
   38.4054   16.8346   -9.9567 C   0  0  0  0  0  0  0  0  0  0  0  0
   38.4090   16.8380  -11.2263 O   0  0  0  0  0  0  0  0  0  0  0  0
   37.2674   16.5581   -8.2016 H   0  0  0  0  0  0  0  0  0  0  0  0
   39.6229   17.1224   -9.3521 O   0  0  0  0  0  0  0  0  0  0  0  0
   40.5798   16.0590   -9.1403 C   0  0  0  0  0  0  0  0  0  0  0  0
   40.1946   15.3759   -7.8818 C   0  0  0  0  0  0  0  0  0  0  0  0
   39.7177   14.0762   -7.8343 C   0  0  0  0  0  0  0  0  0  0  0  0
   39.3766   13.4872   -6.6303 C   0  0  0  0  0  0  0  0  0  0  0  0
   39.5051   14.1882   -5.4419 C   0  0  0  0  0  0  0  0  0  0  0  0
   39.9788   15.4733   -5.5040 C   0  0  0  0  0  0  0  0  0  0  0  0
   40.3214   16.0657   -6.7085 C   0  0  0  0  0  0  0  0  0  0  0  0
   34.8563   15.9211   -9.0810 C   0  0  0  0  0  0  0  0  0  0  0  0
   35.2237   15.6112   -7.7024 C   0  0  0  0  0  0  0  0  0  0  0  0
   35.4435   14.3638   -7.1713 C   0  0  0  0  0  0  0  0  0  0  0  0
   35.8103   14.1690   -5.8548 C   0  0  0  0  0  0  0  0  0  0  0  0
   35.9802   15.2198   -4.9864 C   0  0  0  0  0  0  0  0  0  0  0  0
   35.7604   16.4995   -5.5021 C   0  0  0  0  0  0  0  0  0  0  0  0
   35.3950   16.6889   -6.8090 C   0  0  0  0  0  0  0  0  0  0  0  0
   35.4205   13.8369  -14.1806 C   0  0  0  0  0  0  0  0  0  0  0  0
   34.2738   12.9415  -13.8576 C   0  0  0  0  0  0  0  0  0  0  0  0
   33.7201   12.3058  -15.1487 C   0  0  0  0  0  0  0  0  0  0  0  0
   33.0805   13.8006  -13.3595 C   0  0  0  0  0  0  0  0  0  0  0  0
   40.1005   14.0986  -14.3956 C   0  0  0  0  0  0  0  0  0  0  0  0
   42.1756   14.2084  -12.9504 N   0  0  0  0  0  0  0  0  0  0  0  0
   41.0139   14.7560  -13.5020 C   0  0  0  0  0  0  0  0  0  0  0  0
   40.7596   15.9649  -13.1563 O   0  0  0  0  0  0  0  0  0  0  0  0
   42.4107   13.2210  -13.2581 H   0  0  0  0  0  0  0  0  0  0  0  0
   43.0619   14.8950  -11.9952 C   0  0  0  0  0  0  0  0  0  0  0  0
   46.2709   15.3890  -14.1455 C   0  0  0  0  0  0  0  0  0  0  0  0
   45.2044   14.7353  -13.3807 N   0  0  0  0  0  0  0  0  0  0  0  0
   44.1741   15.5366  -12.7796 C   0  0  0  0  0  0  0  0  0  0  0  0
   44.1896   16.7677  -12.8934 O   0  0  0  0  0  0  0  0  0  0  0  0
   45.1811   13.7192  -13.2460 H   0  0  0  0  0  0  0  0  0  0  0  0
   43.5556   13.7976  -11.0961 C   0  0  0  0  0  0  0  0  0  0  0  0
   43.5975   14.0675   -9.6691 C   0  0  0  0  0  0  0  0  0  0  0  0
   43.1797   13.1168   -8.7627 C   0  0  0  0  0  0  0  0  0  0  0  0
   43.2535   13.3535   -7.3958 C   0  0  0  0  0  0  0  0  0  0  0  0
   43.7411   14.5308   -6.9011 C   0  0  0  0  0  0  0  0  0  0  0  0
   44.1699   15.5041   -7.8166 C   0  0  0  0  0  0  0  0  0  0  0  0
   44.0938   15.2662   -9.1570 C   0  0  0  0  0  0  0  0  0  0  0  0
   40.3541   13.9921  -15.8371 C   0  0  0  0  0  0  0  0  0  0  0  0
   39.8934   12.8425  -16.5862 C   0  0  0  0  0  0  0  0  0  0  0  0
   38.6534   12.2955  -16.3539 C   0  0  0  0  0  0  0  0  0  0  0  0
   38.1596   11.1891  -17.0462 C   0  0  0  0  0  0  0  0  0  0  0  0
   38.9731   10.6380  -18.0030 C   0  0  0  0  0  0  0  0  0  0  0  0
   40.2147   11.1825  -18.2397 C   0  0  0  0  0  0  0  0  0  0  0  0
   40.7019   12.2661  -17.5642 C   0  0  0  0  0  0  0  0  0  0  0  0
 40 41  1  0  0  0
 41 42  1  0  0  0
 42 43  2  0  0  0
 42 39  1  0  0  0
 39 45  1  0  0  0
 45 46  1  0  0  0
 46 47  2  0  0  0
 47 48  1  0  0  0
 48 49  2  0  0  0
 49 50  1  0  0  0
 50 51  2  0  0  0
 39 35  1  0  0  0
 35 36  1  0  0  0
 36 37  2  0  0  0
 36 34  1  0  0  0
 34 52  1  0  0  0
 52 53  1  0  0  0
 53 54  2  0  0  0
 54 55  1  0  0  0
 55 56  2  0  0  0
 56 57  1  0  0  0
 57 58  2  0  0  0
 34  1  1  0  0  0
  1  2  1  0  0  0
  2  3  2  0  0  0
  2  5  1  0  0  0
  5 30  1  0  0  0
 30 31  1  0  0  0
 31 32  1  0  0  0
 31 33  1  0  0  0
  5  6  1  0  0  0
  6  7  1  0  0  0
  7  8  2  0  0  0
  7 10  1  0  0  0
 10 23  1  0  0  0
 23 24  1  0  0  0
 24 25  2  0  0  0
 25 26  1  0  0  0
 26 27  2  0  0  0
 27 28  1  0  0  0
 28 29  2  0  0  0
 10 11  1  0  0  0
 11 12  1  0  0  0
 12 13  2  0  0  0
 12 15  1  0  0  0
 15 16  1  0  0  0
 16 17  1  0  0  0
 17 18  2  0  0  0
 18 19  1  0  0  0
 19 20  2  0  0  0
 20 21  1  0  0  0
 21 22  2  0  0  0
 51 46  1  0  0  0
 58 53  1  0  0  0
 29 24  1  0  0  0
 22 17  1  0  0  0
 41 44  1  0  0  0
 35 38  1  0  0  0
  1  4  1  0  0  0
  6  9  1  0  0  0
 11 14  1  0  0  0
M  END
> <minimizedAffinity>
-7.79993

> <CNNscore>
0.2379986644

> <CNNaffinity>
7.4704895020

> <CNN_VS>
1.7779664993

> <CNNaffinity_variance>
0.5159018636

$$$$
[H]c1c([H])c([H])c(C([H])([H])OC(=O)N([H])[C@@]([H])(C(=O)N([H])[C@]([H])(C(=O)N([H])[C@]([H])(C(=O)N([H])[C@]([H])(C(=O)N([H])C([H])([H])[H])C([H])([H])c2c([H])c([H])c([H])c([H])c2[H])C([H])([H])c2c([H])c([H])c([H])c([H])c2[H])C([H])([H])C([H])(C([H])([H])[H])C([H])([H])[H])C([H])([H])c2c([H])c([H])c([H])c([H])c2[H])c([H])c1[H]


 58 61  0  0  0  0  0  0  0  0999 V2000
   41.6083   14.6088  -12.4405 N   0  0  0  0  0  0  0  0  0  0  0  0
   41.6383   15.8717  -11.8830 C   0  0  0  0  0  0  0  0  0  0  0  0
   41.5004   16.8571  -12.7140 O   0  0  0  0  0  0  0  0  0  0  0  0
   41.6585   13.6931  -11.9280 H   0  0  0  0  0  0  0  0  0  0  0  0
   41.7981   16.2475  -10.4979 C   0  0  0  0  0  0  0  0  0  0  0  0
   41.0749   15.3139   -9.6166 N   0  0  0  0  0  0  0  0  0  0  0  0
   39.9112   15.7007   -8.9335 C   0  0  0  0  0  0  0  0  0  0  0  0
   39.4845   16.8653   -9.1084 O   0  0  0  0  0  0  0  0  0  0  0  0
   41.4363   14.3449   -9.5017 H   0  0  0  0  0  0  0  0  0  0  0  0
   39.1406   14.8224   -8.0066 C   0  0  0  0  0  0  0  0  0  0  0  0
   39.7961   13.5756   -7.7295 N   0  0  0  0  0  0  0  0  0  0  0  0
   40.0599   13.2546   -6.3674 C   0  0  0  0  0  0  0  0  0  0  0  0
   39.7241   14.0513   -5.4377 O   0  0  0  0  0  0  0  0  0  0  0  0
   40.0937   12.8907   -8.4454 H   0  0  0  0  0  0  0  0  0  0  0  0
   40.6853   12.0834   -5.9576 O   0  0  0  0  0  0  0  0  0  0  0  0
   42.0373   12.1408   -5.4479 C   0  0  0  0  0  0  0  0  0  0  0  0
   42.3485   10.7994   -4.8975 C   0  0  0  0  0  0  0  0  0  0  0  0
   41.6629   10.2327   -3.8355 C   0  0  0  0  0  0  0  0  0  0  0  0
   41.9940    8.9748   -3.3652 C   0  0  0  0  0  0  0  0  0  0  0  0
   43.0229    8.2530   -3.9488 C   0  0  0  0  0  0  0  0  0  0  0  0
   43.6923    8.8261   -4.9991 C   0  0  0  0  0  0  0  0  0  0  0  0
   43.3627   10.0856   -5.4724 C   0  0  0  0  0  0  0  0  0  0  0  0
   37.8082   14.6035   -8.7077 C   0  0  0  0  0  0  0  0  0  0  0  0
   36.6310   14.8289   -7.8742 C   0  0  0  0  0  0  0  0  0  0  0  0
   35.7460   15.8750   -7.9681 C   0  0  0  0  0  0  0  0  0  0  0  0
   34.6433   15.9937   -7.1460 C   0  0  0  0  0  0  0  0  0  0  0  0
   34.3598   15.0645   -6.1747 C   0  0  0  0  0  0  0  0  0  0  0  0
   35.2466   13.9912   -6.0575 C   0  0  0  0  0  0  0  0  0  0  0  0
   36.3408   13.8776   -6.8743 C   0  0  0  0  0  0  0  0  0  0  0  0
   43.1474   16.6040  -10.0509 C   0  0  0  0  0  0  0  0  0  0  0  0
   44.2350   15.7949  -10.6701 C   0  0  0  0  0  0  0  0  0  0  0  0
   45.2892   15.4257   -9.6072 C   0  0  0  0  0  0  0  0  0  0  0  0
   45.0380   16.6878  -11.6538 C   0  0  0  0  0  0  0  0  0  0  0  0
   41.4465   14.3828  -13.9053 C   0  0  0  0  0  0  0  0  0  0  0  0
   39.0221   13.8100  -13.4570 N   0  0  0  0  0  0  0  0  0  0  0  0
   40.0483   14.3531  -14.2354 C   0  0  0  0  0  0  0  0  0  0  0  0
   39.6777   14.8652  -15.3516 O   0  0  0  0  0  0  0  0  0  0  0  0
   39.3161   13.4151  -12.5175 H   0  0  0  0  0  0  0  0  0  0  0  0
   37.6042   13.7504  -13.8511 C   0  0  0  0  0  0  0  0  0  0  0  0
   35.8434   16.3558  -11.5538 C   0  0  0  0  0  0  0  0  0  0  0  0
   36.6469   15.7890  -12.6415 N   0  0  0  0  0  0  0  0  0  0  0  0
   36.7927   14.3629  -12.7420 C   0  0  0  0  0  0  0  0  0  0  0  0
   36.2573   13.6172  -11.9136 O   0  0  0  0  0  0  0  0  0  0  0  0
   37.1253   16.3835  -13.3262 H   0  0  0  0  0  0  0  0  0  0  0  0
   37.3293   12.2831  -14.0176 C   0  0  0  0  0  0  0  0  0  0  0  0
   37.4057   11.7346  -15.3608 C   0  0  0  0  0  0  0  0  0  0  0  0
   36.2582   11.4779  -16.0801 C   0  0  0  0  0  0  0  0  0  0  0  0
   36.3250   10.9899  -17.3791 C   0  0  0  0  0  0  0  0  0  0  0  0
   37.5240   10.7484  -17.9895 C   0  0  0  0  0  0  0  0  0  0  0  0
   38.6975   11.0080  -17.2651 C   0  0  0  0  0  0  0  0  0  0  0  0
   38.6253   11.4857  -15.9901 C   0  0  0  0  0  0  0  0  0  0  0  0
   42.3987   13.4015  -14.4380 C   0  0  0  0  0  0  0  0  0  0  0  0
   43.8081   13.4905  -14.1203 C   0  0  0  0  0  0  0  0  0  0  0  0
   44.3122   12.9307  -12.9700 C   0  0  0  0  0  0  0  0  0  0  0  0
   45.6605   12.9864  -12.6151 C   0  0  0  0  0  0  0  0  0  0  0  0
   46.5056   13.6390  -13.4760 C   0  0  0  0  0  0  0  0  0  0  0  0
   46.0059   14.2001  -14.6290 C   0  0  0  0  0  0  0  0  0  0  0  0
   44.6862   14.1475  -14.9804 C   0  0  0  0  0  0  0  0  0  0  0  0
 40 41  1  0  0  0
 41 42  1  0  0  0
 42 43  2  0  0  0
 42 39  1  0  0  0
 39 45  1  0  0  0
 45 46  1  0  0  0
 46 47  2  0  0  0
 47 48  1  0  0  0
 48 49  2  0  0  0
 49 50  1  0  0  0
 50 51  2  0  0  0
 39 35  1  0  0  0
 35 36  1  0  0  0
 36 37  2  0  0  0
 36 34  1  0  0  0
 34 52  1  0  0  0
 52 53  1  0  0  0
 53 54  2  0  0  0
 54 55  1  0  0  0
 55 56  2  0  0  0
 56 57  1  0  0  0
 57 58  2  0  0  0
 34  1  1  0  0  0
  1  2  1  0  0  0
  2  3  2  0  0  0
  2  5  1  0  0  0
  5 30  1  0  0  0
 30 31  1  0  0  0
 31 32  1  0  0  0
 31 33  1  0  0  0
  5  6  1  0  0  0
  6  7  1  0  0  0
  7  8  2  0  0  0
  7 10  1  0  0  0
 10 23  1  0  0  0
 23 24  1  0  0  0
 24 25  2  0  0  0
 25 26  1  0  0  0
 26 27  2  0  0  0
 27 28  1  0  0  0
 28 29  2  0  0  0
 10 11  1  0  0  0
 11 12  1  0  0  0
 12 13  2  0  0  0
 12 15  1  0  0  0
 15 16  1  0  0  0
 16 17  1  0  0  0
 17 18  2  0  0  0
 18 19  1  0  0  0
 19 20  2  0  0  0
 20 21  1  0  0  0
 21 22  2  0  0  0
 51 46  1  0  0  0
 58 53  1  0  0  0
 29 24  1  0  0  0
 22 17  1  0  0  0
 41 44  1  0  0  0
 35 38  1  0  0  0
  1  4  1  0  0  0
  6  9  1  0  0  0
 11 14  1  0  0  0
M  END
> <minimizedAffinity>
-8.93001

> <CNNscore>
0.2294816673

> <CNNaffinity>
6.7565398216

> <CNN_VS>
1.5505020618

> <CNNaffinity_variance>
1.1876026392

$$$$
[H]c1c([H])c([H])c(C([H])([H])OC(=O)N([H])[C@@]([H])(C(=O)N([H])[C@]([H])(C(=O)N([H])[C@]([H])(C(=O)N([H])[C@]([H])(C(=O)N([H])C([H])([H])[H])C([H])([H])c2c([H])c([H])c([H])c([H])c2[H])C([H])([H])c2c([H])c([H])c([H])c([H])c2[H])C([H])([H])C([H])(C([H])([H])[H])C([H])([H])[H])C([H])([H])c2c([H])c([H])c([H])c([H])c2[H])c([H])c1[H]


 58 61  0  0  0  0  0  0  0  0999 V2000
   39.8394   13.0169  -14.0370 N   0  0  0  0  0  0  0  0  0  0  0  0
   40.6710   14.1171  -13.9711 C   0  0  0  0  0  0  0  0  0  0  0  0
   40.1035   15.2645  -14.1760 O   0  0  0  0  0  0  0  0  0  0  0  0
   40.1039   12.0162  -13.8568 H   0  0  0  0  0  0  0  0  0  0  0  0
   42.0886   14.1670  -13.7008 C   0  0  0  0  0  0  0  0  0  0  0  0
   42.3396   14.3515  -12.2605 N   0  0  0  0  0  0  0  0  0  0  0  0
   42.7202   15.5961  -11.7346 C   0  0  0  0  0  0  0  0  0  0  0  0
   42.8229   16.5631  -12.5240 O   0  0  0  0  0  0  0  0  0  0  0  0
   42.2288   13.5388  -11.6202 H   0  0  0  0  0  0  0  0  0  0  0  0
   43.0157   15.8539  -10.2957 C   0  0  0  0  0  0  0  0  0  0  0  0
   43.7395   14.7868   -9.6646 N   0  0  0  0  0  0  0  0  0  0  0  0
   44.8723   15.1321   -8.8735 C   0  0  0  0  0  0  0  0  0  0  0  0
   45.2224   16.3450   -8.7387 O   0  0  0  0  0  0  0  0  0  0  0  0
   43.5018   13.7829   -9.7414 H   0  0  0  0  0  0  0  0  0  0  0  0
   45.6608   14.2021   -8.2072 O   0  0  0  0  0  0  0  0  0  0  0  0
   45.2284   12.8239   -8.1378 C   0  0  0  0  0  0  0  0  0  0  0  0
   44.7417   12.5931   -6.7561 C   0  0  0  0  0  0  0  0  0  0  0  0
   44.9228   13.4975   -5.7225 C   0  0  0  0  0  0  0  0  0  0  0  0
   44.4438   13.2315   -4.4525 C   0  0  0  0  0  0  0  0  0  0  0  0
   43.7706   12.0498   -4.1869 C   0  0  0  0  0  0  0  0  0  0  0  0
   43.5983   11.1644   -5.2195 C   0  0  0  0  0  0  0  0  0  0  0  0
   44.0767   11.4283   -6.4925 C   0  0  0  0  0  0  0  0  0  0  0  0
   41.6499   16.0511   -9.6550 C   0  0  0  0  0  0  0  0  0  0  0  0
   41.4843   15.4128   -8.3525 C   0  0  0  0  0  0  0  0  0  0  0  0
   41.1254   14.1082   -8.1167 C   0  0  0  0  0  0  0  0  0  0  0  0
   41.0144   13.5848   -6.8440 C   0  0  0  0  0  0  0  0  0  0  0  0
   41.2586   14.3426   -5.7246 C   0  0  0  0  0  0  0  0  0  0  0  0
   41.6236   15.6743   -5.9378 C   0  0  0  0  0  0  0  0  0  0  0  0
   41.7312   16.1907   -7.2024 C   0  0  0  0  0  0  0  0  0  0  0  0
   42.9320   13.1624  -14.3541 C   0  0  0  0  0  0  0  0  0  0  0  0
   43.7183   13.6769  -15.5109 C   0  0  0  0  0  0  0  0  0  0  0  0
   44.1824   12.5038  -16.3975 C   0  0  0  0  0  0  0  0  0  0  0  0
   45.0581   14.2673  -14.9946 C   0  0  0  0  0  0  0  0  0  0  0  0
   38.3842   13.1290  -14.3413 C   0  0  0  0  0  0  0  0  0  0  0  0
   37.8078   14.5730  -12.3440 N   0  0  0  0  0  0  0  0  0  0  0  0
   37.6629   13.4301  -13.1356 C   0  0  0  0  0  0  0  0  0  0  0  0
   36.7966   12.5806  -12.7190 O   0  0  0  0  0  0  0  0  0  0  0  0
   38.4978   15.2956  -12.7000 H   0  0  0  0  0  0  0  0  0  0  0  0
   37.0877   14.8247  -11.0841 C   0  0  0  0  0  0  0  0  0  0  0  0
   33.3192   15.2396  -11.9738 C   0  0  0  0  0  0  0  0  0  0  0  0
   34.6030   14.6116  -11.6463 N   0  0  0  0  0  0  0  0  0  0  0  0
   35.7581   15.4384  -11.4293 C   0  0  0  0  0  0  0  0  0  0  0  0
   35.6775   16.6683  -11.5290 O   0  0  0  0  0  0  0  0  0  0  0  0
   34.7062   13.5934  -11.5844 H   0  0  0  0  0  0  0  0  0  0  0  0
   37.9781   15.7737  -10.3339 C   0  0  0  0  0  0  0  0  0  0  0  0
   37.8795   15.7821   -8.8844 C   0  0  0  0  0  0  0  0  0  0  0  0
   37.5349   14.6375   -8.1980 C   0  0  0  0  0  0  0  0  0  0  0  0
   37.4767   14.6284   -6.8100 C   0  0  0  0  0  0  0  0  0  0  0  0
   37.7582   15.7474   -6.0771 C   0  0  0  0  0  0  0  0  0  0  0  0
   38.1111   16.9171   -6.7674 C   0  0  0  0  0  0  0  0  0  0  0  0
   38.1653   16.9198   -8.1298 C   0  0  0  0  0  0  0  0  0  0  0  0
   37.9236   12.1161  -15.2982 C   0  0  0  0  0  0  0  0  0  0  0  0
   38.6340   11.8942  -16.5397 C   0  0  0  0  0  0  0  0  0  0  0  0
   38.1776   10.9852  -17.4649 C   0  0  0  0  0  0  0  0  0  0  0  0
   38.8221   10.7322  -18.6764 C   0  0  0  0  0  0  0  0  0  0  0  0
   39.9680   11.4409  -18.9332 C   0  0  0  0  0  0  0  0  0  0  0  0
   40.4283   12.3525  -18.0106 C   0  0  0  0  0  0  0  0  0  0  0  0
   39.7999   12.6033  -16.8232 C   0  0  0  0  0  0  0  0  0  0  0  0
 40 41  1  0  0  0
 41 42  1  0  0  0
 42 43  2  0  0  0
 42 39  1  0  0  0
 39 45  1  0  0  0
 45 46  1  0  0  0
 46 47  2  0  0  0
 47 48  1  0  0  0
 48 49  2  0  0  0
 49 50  1  0  0  0
 50 51  2  0  0  0
 39 35  1  0  0  0
 35 36  1  0  0  0
 36 37  2  0  0  0
 36 34  1  0  0  0
 34 52  1  0  0  0
 52 53  1  0  0  0
 53 54  2  0  0  0
 54 55  1  0  0  0
 55 56  2  0  0  0
 56 57  1  0  0  0
 57 58  2  0  0  0
 34  1  1  0  0  0
  1  2  1  0  0  0
  2  3  2  0  0  0
  2  5  1  0  0  0
  5 30  1  0  0  0
 30 31  1  0  0  0
 31 32  1  0  0  0
 31 33  1  0  0  0
  5  6  1  0  0  0
  6  7  1  0  0  0
  7  8  2  0  0  0
  7 10  1  0  0  0
 10 23  1  0  0  0
 23 24  1  0  0  0
 24 25  2  0  0  0
 25 26  1  0  0  0
 26 27  2  0  0  0
 27 28  1  0  0  0
 28 29  2  0  0  0
 10 11  1  0  0  0
 11 12  1  0  0  0
 12 13  2  0  0  0
 12 15  1  0  0  0
 15 16  1  0  0  0
 16 17  1  0  0  0
 17 18  2  0  0  0
 18 19  1  0  0  0
 19 20  2  0  0  0
 20 21  1  0  0  0
 21 22  2  0  0  0
 51 46  1  0  0  0
 58 53  1  0  0  0
 29 24  1  0  0  0
 22 17  1  0  0  0
 41 44  1  0  0  0
 35 38  1  0  0  0
  1  4  1  0  0  0
  6  9  1  0  0  0
 11 14  1  0  0  0
M  END
> <minimizedAffinity>
-7.88988

> <CNNscore>
0.2114463151

> <CNNaffinity>
7.2654342651

> <CNN_VS>
1.5362492800

> <CNNaffinity_variance>
0.5634168983

$$$$
[H]c1c([H])c([H])c(C([H])([H])OC(=O)N([H])[C@@]([H])(C(=O)N([H])[C@]([H])(C(=O)N([H])[C@]([H])(C(=O)N([H])[C@]([H])(C(=O)N([H])C([H])([H])[H])C([H])([H])c2c([H])c([H])c([H])c([H])c2[H])C([H])([H])c2c([H])c([H])c([H])c([H])c2[H])C([H])([H])C([H])(C([H])([H])[H])C([H])([H])[H])C([H])([H])c2c([H])c([H])c([H])c([H])c2[H])c([H])c1[H]


 58 61  0  0  0  0  0  0  0  0999 V2000
   39.3357   14.3969  -14.1861 N   0  0  0  0  0  0  0  0  0  0  0  0
   38.3213   13.6815  -13.5815 C   0  0  0  0  0  0  0  0  0  0  0  0
   38.5023   12.3999  -13.5091 O   0  0  0  0  0  0  0  0  0  0  0  0
   39.3906   15.4402  -14.2971 H   0  0  0  0  0  0  0  0  0  0  0  0
   37.0850   14.1653  -13.0133 C   0  0  0  0  0  0  0  0  0  0  0  0
   37.3456   15.2147  -12.0122 N   0  0  0  0  0  0  0  0  0  0  0  0
   36.8694   15.1090  -10.6960 C   0  0  0  0  0  0  0  0  0  0  0  0
   36.2277   14.0801  -10.3821 O   0  0  0  0  0  0  0  0  0  0  0  0
   37.8981   16.0517  -12.2897 H   0  0  0  0  0  0  0  0  0  0  0  0
   37.0703   16.1391   -9.6363 C   0  0  0  0  0  0  0  0  0  0  0  0
   37.3583   15.5782   -8.3465 N   0  0  0  0  0  0  0  0  0  0  0  0
   38.7199   15.5378   -7.9311 C   0  0  0  0  0  0  0  0  0  0  0  0
   39.6399   15.9839   -8.6836 O   0  0  0  0  0  0  0  0  0  0  0  0
   36.6509   15.1986   -7.6941 H   0  0  0  0  0  0  0  0  0  0  0  0
   39.1392   15.0244   -6.7099 O   0  0  0  0  0  0  0  0  0  0  0  0
   38.6847   13.7155   -6.2958 C   0  0  0  0  0  0  0  0  0  0  0  0
   37.4914   13.9235   -5.4403 C   0  0  0  0  0  0  0  0  0  0  0  0
   37.5130   14.6588   -4.2665 C   0  0  0  0  0  0  0  0  0  0  0  0
   36.3675   14.8234   -3.5091 C   0  0  0  0  0  0  0  0  0  0  0  0
   35.1699   14.2536   -3.9104 C   0  0  0  0  0  0  0  0  0  0  0  0
   35.1632   13.5291   -5.0744 C   0  0  0  0  0  0  0  0  0  0  0  0
   36.3090   13.3627   -5.8351 C   0  0  0  0  0  0  0  0  0  0  0  0
   35.7693   16.9276   -9.6191 C   0  0  0  0  0  0  0  0  0  0  0  0
   34.9873   16.7960   -8.3932 C   0  0  0  0  0  0  0  0  0  0  0  0
   35.1796   17.4815   -7.2187 C   0  0  0  0  0  0  0  0  0  0  0  0
   34.3719   17.3056   -6.1130 C   0  0  0  0  0  0  0  0  0  0  0  0
   33.3162   16.4266   -6.1189 C   0  0  0  0  0  0  0  0  0  0  0  0
   33.1008   15.7152   -7.3018 C   0  0  0  0  0  0  0  0  0  0  0  0
   33.9054   15.8914   -8.3967 C   0  0  0  0  0  0  0  0  0  0  0  0
   35.9869   14.4510  -13.9406 C   0  0  0  0  0  0  0  0  0  0  0  0
   35.1827   13.2578  -14.3288 C   0  0  0  0  0  0  0  0  0  0  0  0
   33.6965   13.6447  -14.4668 C   0  0  0  0  0  0  0  0  0  0  0  0
   35.1661   12.2484  -13.1494 C   0  0  0  0  0  0  0  0  0  0  0  0
   40.5568   13.7447  -14.7396 C   0  0  0  0  0  0  0  0  0  0  0  0
   43.0124   13.6712  -14.1304 N   0  0  0  0  0  0  0  0  0  0  0  0
   41.6984   14.1113  -13.9476 C   0  0  0  0  0  0  0  0  0  0  0  0
   41.5216   14.9180  -12.9660 O   0  0  0  0  0  0  0  0  0  0  0  0
   43.1726   13.0307  -14.9605 H   0  0  0  0  0  0  0  0  0  0  0  0
   44.1504   14.0274  -13.2659 C   0  0  0  0  0  0  0  0  0  0  0  0
   44.7150   17.8797  -13.3506 C   0  0  0  0  0  0  0  0  0  0  0  0
   44.2282   16.5610  -12.9336 N   0  0  0  0  0  0  0  0  0  0  0  0
   44.6267   15.3952  -13.6734 C   0  0  0  0  0  0  0  0  0  0  0  0
   45.3635   15.4999  -14.6609 O   0  0  0  0  0  0  0  0  0  0  0  0
   43.5941   16.4465  -12.1361 H   0  0  0  0  0  0  0  0  0  0  0  0
   45.1712   12.9607  -13.5422 C   0  0  0  0  0  0  0  0  0  0  0  0
   45.8165   12.3377  -12.3992 C   0  0  0  0  0  0  0  0  0  0  0  0
   47.1831   12.1598  -12.3759 C   0  0  0  0  0  0  0  0  0  0  0  0
   47.8108   11.6002  -11.2700 C   0  0  0  0  0  0  0  0  0  0  0  0
   47.1010   11.2083  -10.1695 C   0  0  0  0  0  0  0  0  0  0  0  0
   45.7092   11.3867  -10.1839 C   0  0  0  0  0  0  0  0  0  0  0  0
   45.0989   11.9354  -11.2728 C   0  0  0  0  0  0  0  0  0  0  0  0
   40.5873   13.7468  -16.2068 C   0  0  0  0  0  0  0  0  0  0  0  0
   39.9435   12.6927  -16.9615 C   0  0  0  0  0  0  0  0  0  0  0  0
   38.7293   12.1801  -16.5696 C   0  0  0  0  0  0  0  0  0  0  0  0
   38.0649   11.1652  -17.2592 C   0  0  0  0  0  0  0  0  0  0  0  0
   38.6763   10.6710  -18.3831 C   0  0  0  0  0  0  0  0  0  0  0  0
   39.8912   11.1814  -18.7799 C   0  0  0  0  0  0  0  0  0  0  0  0
   40.5450   12.1755  -18.1075 C   0  0  0  0  0  0  0  0  0  0  0  0
 40 41  1  0  0  0
 41 42  1  0  0  0
 42 43  2  0  0  0
 42 39  1  0  0  0
 39 45  1  0  0  0
 45 46  1  0  0  0
 46 47  2  0  0  0
 47 48  1  0  0  0
 48 49  2  0  0  0
 49 50  1  0  0  0
 50 51  2  0  0  0
 39 35  1  0  0  0
 35 36  1  0  0  0
 36 37  2  0  0  0
 36 34  1  0  0  0
 34 52  1  0  0  0
 52 53  1  0  0  0
 53 54  2  0  0  0
 54 55  1  0  0  0
 55 56  2  0  0  0
 56 57  1  0  0  0
 57 58  2  0  0  0
 34  1  1  0  0  0
  1  2  1  0  0  0
  2  3  2  0  0  0
  2  5  1  0  0  0
  5 30  1  0  0  0
 30 31  1  0  0  0
 31 32  1  0  0  0
 31 33  1  0  0  0
  5  6  1  0  0  0
  6  7  1  0  0  0
  7  8  2  0  0  0
  7 10  1  0  0  0
 10 23  1  0  0  0
 23 24  1  0  0  0
 24 25  2  0  0  0
 25 26  1  0  0  0
 26 27  2  0  0  0
 27 28  1  0  0  0
 28 29  2  0  0  0
 10 11  1  0  0  0
 11 12  1  0  0  0
 12 13  2  0  0  0
 12 15  1  0  0  0
 15 16  1  0  0  0
 16 17  1  0  0  0
 17 18  2  0  0  0
 18 19  1  0  0  0
 19 20  2  0  0  0
 20 21  1  0  0  0
 21 22  2  0  0  0
 51 46  1  0  0  0
 58 53  1  0  0  0
 29 24  1  0  0  0
 22 17  1  0  0  0
 41 44  1  0  0  0
 35 38  1  0  0  0
  1  4  1  0  0  0
  6  9  1  0  0  0
 11 14  1  0  0  0
M  END
> <minimizedAffinity>
-8.10345

> <CNNscore>
0.2003867775

> <CNNaffinity>
6.8992133141

> <CNN_VS>
1.3825111389

> <CNNaffinity_variance>
0.4484820366

$$$$
[H]c1c([H])c([H])c(C([H])([H])OC(=O)N([H])[C@@]([H])(C(=O)N([H])[C@]([H])(C(=O)N([H])[C@]([H])(C(=O)N([H])[C@]([H])(C(=O)N([H])C([H])([H])[H])C([H])([H])c2c([H])c([H])c([H])c([H])c2[H])C([H])([H])c2c([H])c([H])c([H])c([H])c2[H])C([H])([H])C([H])(C([H])([H])[H])C([H])([H])[H])C([H])([H])c2c([H])c([H])c([H])c([H])c2[H])c([H])c1[H]


 58 61  0  0  0  0  0  0  0  0999 V2000
   39.1694   14.4019  -14.2570 N   0  0  0  0  0  0  0  0  0  0  0  0
   38.1535   13.6931  -13.6472 C   0  0  0  0  0  0  0  0  0  0  0  0
   38.4082   12.4468  -13.3972 O   0  0  0  0  0  0  0  0  0  0  0  0
   39.1678   15.4249  -14.4961 H   0  0  0  0  0  0  0  0  0  0  0  0
   36.8443   14.1504  -13.2445 C   0  0  0  0  0  0  0  0  0  0  0  0
   36.9449   15.0984  -12.1208 N   0  0  0  0  0  0  0  0  0  0  0  0
   36.3673   14.8211  -10.8718 C   0  0  0  0  0  0  0  0  0  0  0  0
   35.7751   13.7271  -10.7260 O   0  0  0  0  0  0  0  0  0  0  0  0
   37.4589   15.9925  -12.2586 H   0  0  0  0  0  0  0  0  0  0  0  0
   36.4050   15.7398   -9.6976 C   0  0  0  0  0  0  0  0  0  0  0  0
   35.1603   16.4167   -9.4661 N   0  0  0  0  0  0  0  0  0  0  0  0
   34.3609   15.9772   -8.3725 C   0  0  0  0  0  0  0  0  0  0  0  0
   34.7444   15.0178   -7.6346 O   0  0  0  0  0  0  0  0  0  0  0  0
   34.7973   17.2008  -10.0351 H   0  0  0  0  0  0  0  0  0  0  0  0
   33.1373   16.5424   -8.0347 O   0  0  0  0  0  0  0  0  0  0  0  0
   31.9163   15.9275   -8.5062 C   0  0  0  0  0  0  0  0  0  0  0  0
   30.8396   16.3327   -7.5705 C   0  0  0  0  0  0  0  0  0  0  0  0
   30.8385   17.5356   -6.8835 C   0  0  0  0  0  0  0  0  0  0  0  0
   29.8049   17.8636   -6.0250 C   0  0  0  0  0  0  0  0  0  0  0  0
   28.7450   16.9917   -5.8335 C   0  0  0  0  0  0  0  0  0  0  0  0
   28.7591   15.8052   -6.5203 C   0  0  0  0  0  0  0  0  0  0  0  0
   29.7929   15.4742   -7.3809 C   0  0  0  0  0  0  0  0  0  0  0  0
   37.5191   16.7247  -10.0192 C   0  0  0  0  0  0  0  0  0  0  0  0
   37.7209   17.7714   -9.0216 C   0  0  0  0  0  0  0  0  0  0  0  0
   38.0092   17.5932   -7.6907 C   0  0  0  0  0  0  0  0  0  0  0  0
   38.2056   18.6491   -6.8234 C   0  0  0  0  0  0  0  0  0  0  0  0
   38.1245   19.9553   -7.2412 C   0  0  0  0  0  0  0  0  0  0  0  0
   37.8301   20.1633   -8.5910 C   0  0  0  0  0  0  0  0  0  0  0  0
   37.6344   19.1128   -9.4486 C   0  0  0  0  0  0  0  0  0  0  0  0
   35.9147   14.5435  -14.3069 C   0  0  0  0  0  0  0  0  0  0  0  0
   34.9348   13.4878  -14.6893 C   0  0  0  0  0  0  0  0  0  0  0  0
   34.6863   12.5413  -13.4976 C   0  0  0  0  0  0  0  0  0  0  0  0
   35.5816   12.5493  -15.7433 C   0  0  0  0  0  0  0  0  0  0  0  0
   40.4729   13.7786  -14.6248 C   0  0  0  0  0  0  0  0  0  0  0  0
   41.4975   15.3818  -12.9554 N   0  0  0  0  0  0  0  0  0  0  0  0
   41.4844   14.1942  -13.6926 C   0  0  0  0  0  0  0  0  0  0  0  0
   42.4888   13.4193  -13.5022 O   0  0  0  0  0  0  0  0  0  0  0  0
   40.6538   16.0120  -13.0819 H   0  0  0  0  0  0  0  0  0  0  0  0
   42.5784   15.7998  -12.0466 C   0  0  0  0  0  0  0  0  0  0  0  0
   42.1420   16.0165   -8.1829 C   0  0  0  0  0  0  0  0  0  0  0  0
   42.7541   15.7922   -9.4962 N   0  0  0  0  0  0  0  0  0  0  0  0
   41.9767   16.0137  -10.6842 C   0  0  0  0  0  0  0  0  0  0  0  0
   40.7978   16.3784  -10.6042 O   0  0  0  0  0  0  0  0  0  0  0  0
   43.7203   15.4631   -9.5929 H   0  0  0  0  0  0  0  0  0  0  0  0
   43.0949   17.0747  -12.6500 C   0  0  0  0  0  0  0  0  0  0  0  0
   44.5126   17.1436  -12.9606 C   0  0  0  0  0  0  0  0  0  0  0  0
   45.2936   18.1591  -12.4519 C   0  0  0  0  0  0  0  0  0  0  0  0
   46.6572   18.2092  -12.7131 C   0  0  0  0  0  0  0  0  0  0  0  0
   47.2721   17.2585  -13.4790 C   0  0  0  0  0  0  0  0  0  0  0  0
   46.4849   16.2202  -14.0001 C   0  0  0  0  0  0  0  0  0  0  0  0
   45.1470   16.1772  -13.7411 C   0  0  0  0  0  0  0  0  0  0  0  0
   40.7039   13.7563  -16.0738 C   0  0  0  0  0  0  0  0  0  0  0  0
   40.1169   12.7232  -16.9006 C   0  0  0  0  0  0  0  0  0  0  0  0
   40.5563   12.5088  -18.1858 C   0  0  0  0  0  0  0  0  0  0  0  0
   40.0269   11.5280  -19.0253 C   0  0  0  0  0  0  0  0  0  0  0  0
   39.0171   10.7509  -18.5175 C   0  0  0  0  0  0  0  0  0  0  0  0
   38.5746   10.9612  -17.2315 C   0  0  0  0  0  0  0  0  0  0  0  0
   39.0906   11.9205  -16.4060 C   0  0  0  0  0  0  0  0  0  0  0  0
 40 41  1  0  0  0
 41 42  1  0  0  0
 42 43  2  0  0  0
 42 39  1  0  0  0
 39 45  1  0  0  0
 45 46  1  0  0  0
 46 47  2  0  0  0
 47 48  1  0  0  0
 48 49  2  0  0  0
 49 50  1  0  0  0
 50 51  2  0  0  0
 39 35  1  0  0  0
 35 36  1  0  0  0
 36 37  2  0  0  0
 36 34  1  0  0  0
 34 52  1  0  0  0
 52 53  1  0  0  0
 53 54  2  0  0  0
 54 55  1  0  0  0
 55 56  2  0  0  0
 56 57  1  0  0  0
 57 58  2  0  0  0
 34  1  1  0  0  0
  1  2  1  0  0  0
  2  3  2  0  0  0
  2  5  1  0  0  0
  5 30  1  0  0  0
 30 31  1  0  0  0
 31 32  1  0  0  0
 31 33  1  0  0  0
  5  6  1  0  0  0
  6  7  1  0  0  0
  7  8  2  0  0  0
  7 10  1  0  0  0
 10 23  1  0  0  0
 23 24  1  0  0  0
 24 25  2  0  0  0
 25 26  1  0  0  0
 26 27  2  0  0  0
 27 28  1  0  0  0
 28 29  2  0  0  0
 10 11  1  0  0  0
 11 12  1  0  0  0
 12 13  2  0  0  0
 12 15  1  0  0  0
 15 16  1  0  0  0
 16 17  1  0  0  0
 17 18  2  0  0  0
 18 19  1  0  0  0
 19 20  2  0  0  0
 20 21  1  0  0  0
 21 22  2  0  0  0
 51 46  1  0  0  0
 58 53  1  0  0  0
 29 24  1  0  0  0
 22 17  1  0  0  0
 41 44  1  0  0  0
 35 38  1  0  0  0
  1  4  1  0  0  0
  6  9  1  0  0  0
 11 14  1  0  0  0
M  END
> <minimizedAffinity>
-8.22239

> <CNNscore>
0.1981819868

> <CNNaffinity>
7.1033449173

> <CNN_VS>
1.4077550173

> <CNNaffinity_variance>
0.3324983716

$$$$
[H]c1c([H])c([H])c(C([H])([H])OC(=O)N([H])[C@@]([H])(C(=O)N([H])[C@]([H])(C(=O)N([H])[C@]([H])(C(=O)N([H])[C@]([H])(C(=O)N([H])C([H])([H])[H])C([H])([H])c2c([H])c([H])c([H])c([H])c2[H])C([H])([H])c2c([H])c([H])c([H])c([H])c2[H])C([H])([H])C([H])(C([H])([H])[H])C([H])([H])[H])C([H])([H])c2c([H])c([H])c([H])c([H])c2[H])c([H])c1[H]


 58 61  0  0  0  0  0  0  0  0999 V2000
   43.8036   14.5403  -14.0676 N   0  0  0  0  0  0  0  0  0  0  0  0
   43.2138   14.5564  -12.8192 C   0  0  0  0  0  0  0  0  0  0  0  0
   42.9529   13.3953  -12.3051 O   0  0  0  0  0  0  0  0  0  0  0  0
   44.1275   15.3722  -14.6216 H   0  0  0  0  0  0  0  0  0  0  0  0
   42.8501   15.6908  -12.0032 C   0  0  0  0  0  0  0  0  0  0  0  0
   41.5437   15.4723  -11.3572 N   0  0  0  0  0  0  0  0  0  0  0  0
   40.3471   15.8919  -11.9593 C   0  0  0  0  0  0  0  0  0  0  0  0
   40.4139   16.4445  -13.0814 O   0  0  0  0  0  0  0  0  0  0  0  0
   41.5104   14.9931  -10.4342 H   0  0  0  0  0  0  0  0  0  0  0  0
   38.9925   15.7293  -11.3570 C   0  0  0  0  0  0  0  0  0  0  0  0
   37.9289   15.8298  -12.3160 N   0  0  0  0  0  0  0  0  0  0  0  0
   37.4626   14.6255  -12.9164 C   0  0  0  0  0  0  0  0  0  0  0  0
   37.9777   13.5068  -12.6082 O   0  0  0  0  0  0  0  0  0  0  0  0
   37.4744   16.7126  -12.6065 H   0  0  0  0  0  0  0  0  0  0  0  0
   36.4409   14.5773  -13.8569 O   0  0  0  0  0  0  0  0  0  0  0  0
   35.2175   13.8736  -13.5414 C   0  0  0  0  0  0  0  0  0  0  0  0
   35.0131   12.8637  -14.6078 C   0  0  0  0  0  0  0  0  0  0  0  0
   33.8286   12.1668  -14.7816 C   0  0  0  0  0  0  0  0  0  0  0  0
   33.6924   11.2375  -15.7970 C   0  0  0  0  0  0  0  0  0  0  0  0
   34.7425   10.9834  -16.6646 C   0  0  0  0  0  0  0  0  0  0  0  0
   35.9086   11.6809  -16.4811 C   0  0  0  0  0  0  0  0  0  0  0  0
   36.0477   12.6123  -15.4651 C   0  0  0  0  0  0  0  0  0  0  0  0
   38.9036   16.8334  -10.3140 C   0  0  0  0  0  0  0  0  0  0  0  0
   37.9322   16.5968   -9.2501 C   0  0  0  0  0  0  0  0  0  0  0  0
   38.0973   15.7889   -8.1518 C   0  0  0  0  0  0  0  0  0  0  0  0
   37.1260   15.6433   -7.1816 C   0  0  0  0  0  0  0  0  0  0  0  0
   35.9235   16.3035   -7.2548 C   0  0  0  0  0  0  0  0  0  0  0  0
   35.7302   17.1304   -8.3642 C   0  0  0  0  0  0  0  0  0  0  0  0
   36.6960   17.2713   -9.3258 C   0  0  0  0  0  0  0  0  0  0  0  0
   43.8871   16.2510  -11.1324 C   0  0  0  0  0  0  0  0  0  0  0  0
   43.7017   15.9532   -9.6840 C   0  0  0  0  0  0  0  0  0  0  0  0
   44.4205   17.0169   -8.8298 C   0  0  0  0  0  0  0  0  0  0  0  0
   44.4698   14.6518   -9.3285 C   0  0  0  0  0  0  0  0  0  0  0  0
   44.1085   13.2744  -14.7938 C   0  0  0  0  0  0  0  0  0  0  0  0
   46.3014   13.4043  -13.5363 N   0  0  0  0  0  0  0  0  0  0  0  0
   45.4648   12.8820  -14.5269 C   0  0  0  0  0  0  0  0  0  0  0  0
   45.9863   11.9662  -15.2583 O   0  0  0  0  0  0  0  0  0  0  0  0
   45.8665   14.1379  -12.9056 H   0  0  0  0  0  0  0  0  0  0  0  0
   47.7057   13.0141  -13.3247 C   0  0  0  0  0  0  0  0  0  0  0  0
   49.0296   14.2095  -16.7864 C   0  0  0  0  0  0  0  0  0  0  0  0
   48.3398   14.2113  -15.4926 N   0  0  0  0  0  0  0  0  0  0  0  0
   48.3966   13.0408  -14.6610 C   0  0  0  0  0  0  0  0  0  0  0  0
   49.0103   12.0344  -15.0346 O   0  0  0  0  0  0  0  0  0  0  0  0
   47.8001   15.0208  -15.1692 H   0  0  0  0  0  0  0  0  0  0  0  0
   47.6209   11.6280  -12.7523 C   0  0  0  0  0  0  0  0  0  0  0  0
   47.2842   11.5029  -11.3445 C   0  0  0  0  0  0  0  0  0  0  0  0
   47.8040   12.3813  -10.4182 C   0  0  0  0  0  0  0  0  0  0  0  0
   47.4557   12.2915   -9.0763 C   0  0  0  0  0  0  0  0  0  0  0  0
   46.5887   11.3349   -8.6270 C   0  0  0  0  0  0  0  0  0  0  0  0
   46.0536   10.4370   -9.5633 C   0  0  0  0  0  0  0  0  0  0  0  0
   46.4003   10.5297  -10.8787 C   0  0  0  0  0  0  0  0  0  0  0  0
   43.5339   13.2406  -16.1437 C   0  0  0  0  0  0  0  0  0  0  0  0
   42.1581   12.8420  -16.3522 C   0  0  0  0  0  0  0  0  0  0  0  0
   41.1722   13.2069  -15.4659 C   0  0  0  0  0  0  0  0  0  0  0  0
   39.8317   12.8507  -15.6183 C   0  0  0  0  0  0  0  0  0  0  0  0
   39.5074   12.0977  -16.7178 C   0  0  0  0  0  0  0  0  0  0  0  0
   40.4906   11.7308  -17.6082 C   0  0  0  0  0  0  0  0  0  0  0  0
   41.8045   12.0778  -17.4629 C   0  0  0  0  0  0  0  0  0  0  0  0
 40 41  1  0  0  0
 41 42  1  0  0  0
 42 43  2  0  0  0
 42 39  1  0  0  0
 39 45  1  0  0  0
 45 46  1  0  0  0
 46 47  2  0  0  0
 47 48  1  0  0  0
 48 49  2  0  0  0
 49 50  1  0  0  0
 50 51  2  0  0  0
 39 35  1  0  0  0
 35 36  1  0  0  0
 36 37  2  0  0  0
 36 34  1  0  0  0
 34 52  1  0  0  0
 52 53  1  0  0  0
 53 54  2  0  0  0
 54 55  1  0  0  0
 55 56  2  0  0  0
 56 57  1  0  0  0
 57 58  2  0  0  0
 34  1  1  0  0  0
  1  2  1  0  0  0
  2  3  2  0  0  0
  2  5  1  0  0  0
  5 30  1  0  0  0
 30 31  1  0  0  0
 31 32  1  0  0  0
 31 33  1  0  0  0
  5  6  1  0  0  0
  6  7  1  0  0  0
  7  8  2  0  0  0
  7 10  1  0  0  0
 10 23  1  0  0  0
 23 24  1  0  0  0
 24 25  2  0  0  0
 25 26  1  0  0  0
 26 27  2  0  0  0
 27 28  1  0  0  0
 28 29  2  0  0  0
 10 11  1  0  0  0
 11 12  1  0  0  0
 12 13  2  0  0  0
 12 15  1  0  0  0
 15 16  1  0  0  0
 16 17  1  0  0  0
 17 18  2  0  0  0
 18 19  1  0  0  0
 19 20  2  0  0  0
 20 21  1  0  0  0
 21 22  2  0  0  0
 51 46  1  0  0  0
 58 53  1  0  0  0
 29 24  1  0  0  0
 22 17  1  0  0  0
 41 44  1  0  0  0
 35 38  1  0  0  0
  1  4  1  0  0  0
  6  9  1  0  0  0
 11 14  1  0  0  0
M  END
> <minimizedAffinity>
-8.55149

> <CNNscore>
0.1914039105

> <CNNaffinity>
7.1420836449

> <CNN_VS>
1.3670227528

> <CNNaffinity_variance>
0.5142931342

$$$$
[H]c1c([H])c([H])c(C([H])([H])OC(=O)N([H])[C@@]([H])(C(=O)N([H])[C@]([H])(C(=O)N([H])[C@]([H])(C(=O)N([H])[C@]([H])(C(=O)N([H])C([H])([H])[H])C([H])([H])c2c([H])c([H])c([H])c([H])c2[H])C([H])([H])c2c([H])c([H])c([H])c([H])c2[H])C([H])([H])C([H])(C([H])([H])[H])C([H])([H])[H])C([H])([H])c2c([H])c([H])c([H])c([H])c2[H])c([H])c1[H]


 58 61  0  0  0  0  0  0  0  0999 V2000
   41.7791   14.6312  -12.1091 N   0  0  0  0  0  0  0  0  0  0  0  0
   42.1916   15.7760  -11.4568 C   0  0  0  0  0  0  0  0  0  0  0  0
   42.4883   16.7820  -12.2187 O   0  0  0  0  0  0  0  0  0  0  0  0
   41.4563   13.7353  -11.6652 H   0  0  0  0  0  0  0  0  0  0  0  0
   42.3348   16.0098  -10.0390 C   0  0  0  0  0  0  0  0  0  0  0  0
   41.6258   14.9756   -9.2649 N   0  0  0  0  0  0  0  0  0  0  0  0
   41.0111   15.2689   -8.0374 C   0  0  0  0  0  0  0  0  0  0  0  0
   41.0616   16.4487   -7.6199 O   0  0  0  0  0  0  0  0  0  0  0  0
   41.5792   14.0064   -9.6406 H   0  0  0  0  0  0  0  0  0  0  0  0
   40.2990   14.2725   -7.1863 C   0  0  0  0  0  0  0  0  0  0  0  0
   38.9211   14.6036   -6.9566 N   0  0  0  0  0  0  0  0  0  0  0  0
   38.0096   13.5311   -6.7397 C   0  0  0  0  0  0  0  0  0  0  0  0
   38.4117   12.3270   -6.7525 O   0  0  0  0  0  0  0  0  0  0  0  0
   38.5377   15.5643   -6.9377 H   0  0  0  0  0  0  0  0  0  0  0  0
   36.6516   13.7081   -6.5045 O   0  0  0  0  0  0  0  0  0  0  0  0
   36.0399   14.9848   -6.7996 C   0  0  0  0  0  0  0  0  0  0  0  0
   34.5739   14.8006   -6.6736 C   0  0  0  0  0  0  0  0  0  0  0  0
   33.9726   14.1881   -5.5862 C   0  0  0  0  0  0  0  0  0  0  0  0
   32.5984   14.0465   -5.5198 C   0  0  0  0  0  0  0  0  0  0  0  0
   31.7916   14.5159   -6.5439 C   0  0  0  0  0  0  0  0  0  0  0  0
   32.4004   15.1203   -7.6135 C   0  0  0  0  0  0  0  0  0  0  0  0
   33.7765   15.2637   -7.6826 C   0  0  0  0  0  0  0  0  0  0  0  0
   41.0872   14.2494   -5.8852 C   0  0  0  0  0  0  0  0  0  0  0  0
   42.1191   13.2193   -5.8101 C   0  0  0  0  0  0  0  0  0  0  0  0
   43.4773   13.4106   -5.8806 C   0  0  0  0  0  0  0  0  0  0  0  0
   44.3818   12.3727   -5.7777 C   0  0  0  0  0  0  0  0  0  0  0  0
   43.9761   11.0728   -5.5963 C   0  0  0  0  0  0  0  0  0  0  0  0
   42.5986   10.8516   -5.5234 C   0  0  0  0  0  0  0  0  0  0  0  0
   41.7038   11.8840   -5.6275 C   0  0  0  0  0  0  0  0  0  0  0  0
   43.6733   16.3456   -9.5461 C   0  0  0  0  0  0  0  0  0  0  0  0
   44.7682   15.5164  -10.1245 C   0  0  0  0  0  0  0  0  0  0  0  0
   45.1321   14.3725   -9.1568 C   0  0  0  0  0  0  0  0  0  0  0  0
   46.0737   16.3553  -10.1699 C   0  0  0  0  0  0  0  0  0  0  0  0
   41.6941   14.5416  -13.5949 C   0  0  0  0  0  0  0  0  0  0  0  0
   39.2534   13.9957  -13.2057 N   0  0  0  0  0  0  0  0  0  0  0  0
   40.3165   14.4475  -13.9927 C   0  0  0  0  0  0  0  0  0  0  0  0
   40.0040   14.8030  -15.1850 O   0  0  0  0  0  0  0  0  0  0  0  0
   39.4982   13.7320  -12.2079 H   0  0  0  0  0  0  0  0  0  0  0  0
   37.8599   13.8633  -13.6639 C   0  0  0  0  0  0  0  0  0  0  0  0
   36.0024   16.3446  -11.3064 C   0  0  0  0  0  0  0  0  0  0  0  0
   36.8872   15.8340  -12.3581 N   0  0  0  0  0  0  0  0  0  0  0  0
   36.9672   14.4177  -12.5871 C   0  0  0  0  0  0  0  0  0  0  0  0
   36.3069   13.6319  -11.8975 O   0  0  0  0  0  0  0  0  0  0  0  0
   37.4674   16.4595  -12.9268 H   0  0  0  0  0  0  0  0  0  0  0  0
   37.6740   12.3852  -13.8560 C   0  0  0  0  0  0  0  0  0  0  0  0
   37.6306   11.8862  -15.2198 C   0  0  0  0  0  0  0  0  0  0  0  0
   38.7948   11.5914  -15.8964 C   0  0  0  0  0  0  0  0  0  0  0  0
   38.7593   11.0773  -17.1865 C   0  0  0  0  0  0  0  0  0  0  0  0
   37.5755   10.8450  -17.8294 C   0  0  0  0  0  0  0  0  0  0  0  0
   36.3852   11.1411  -17.1478 C   0  0  0  0  0  0  0  0  0  0  0  0
   36.4267   11.6465  -15.8822 C   0  0  0  0  0  0  0  0  0  0  0  0
   42.7373   13.6871  -14.1737 C   0  0  0  0  0  0  0  0  0  0  0  0
   44.1261   13.8626  -13.8052 C   0  0  0  0  0  0  0  0  0  0  0  0
   44.7678   12.9481  -13.0036 C   0  0  0  0  0  0  0  0  0  0  0  0
   46.1036   13.0678  -12.6183 C   0  0  0  0  0  0  0  0  0  0  0  0
   46.7894   14.1635  -13.0770 C   0  0  0  0  0  0  0  0  0  0  0  0
   46.1516   15.0811  -13.8803 C   0  0  0  0  0  0  0  0  0  0  0  0
   44.8437   14.9674  -14.2602 C   0  0  0  0  0  0  0  0  0  0  0  0
 40 41  1  0  0  0
 41 42  1  0  0  0
 42 43  2  0  0  0
 42 39  1  0  0  0
 39 45  1  0  0  0
 45 46  1  0  0  0
 46 47  2  0  0  0
 47 48  1  0  0  0
 48 49  2  0  0  0
 49 50  1  0  0  0
 50 51  2  0  0  0
 39 35  1  0  0  0
 35 36  1  0  0  0
 36 37  2  0  0  0
 36 34  1  0  0  0
 34 52  1  0  0  0
 52 53  1  0  0  0
 53 54  2  0  0  0
 54 55  1  0  0  0
 55 56  2  0  0  0
 56 57  1  0  0  0
 57 58  2  0  0  0
 34  1  1  0  0  0
  1  2  1  0  0  0
  2  3  2  0  0  0
  2  5  1  0  0  0
  5 30  1  0  0  0
 30 31  1  0  0  0
 31 32  1  0  0  0
 31 33  1  0  0  0
  5  6  1  0  0  0
  6  7  1  0  0  0
  7  8  2  0  0  0
  7 10  1  0  0  0
 10 23  1  0  0  0
 23 24  1  0  0  0
 24 25  2  0  0  0
 25 26  1  0  0  0
 26 27  2  0  0  0
 27 28  1  0  0  0
 28 29  2  0  0  0
 10 11  1  0  0  0
 11 12  1  0  0  0
 12 13  2  0  0  0
 12 15  1  0  0  0
 15 16  1  0  0  0
 16 17  1  0  0  0
 17 18  2  0  0  0
 18 19  1  0  0  0
 19 20  2  0  0  0
 20 21  1  0  0  0
 21 22  2  0  0  0
 51 46  1  0  0  0
 58 53  1  0  0  0
 29 24  1  0  0  0
 22 17  1  0  0  0
 41 44  1  0  0  0
 35 38  1  0  0  0
  1  4  1  0  0  0
  6  9  1  0  0  0
 11 14  1  0  0  0
M  END
> <minimizedAffinity>
-8.37576

> <CNNscore>
0.1879962981

> <CNNaffinity>
6.5232591629

> <CNN_VS>
1.2263485193

> <CNNaffinity_variance>
1.3652250767

$$$$
[H]OC(n1c([H])c(C(=O)OC([H])([H])[H])c([H])c1N([H])c1nc([H])c([H])c(OC([H])([H])[C@]2([H])C([H])([H])O[C@]2([H])C([H])([H])O[H])n1)(C([H])([H])[H])C([H])([H])[H]


 31 33  0  0  0  0  0  0  0  0999 V2000
   40.7178   14.4994  -14.6596 N   0  0  0  0  0  0  0  0  0  0  0  0
   41.4304   15.3634  -14.6621 H   0  0  0  0  0  0  0  0  0  0  0  0
   39.7627   14.6807  -13.6478 C   0  0  0  0  0  0  0  0  0  0  0  0
   39.7251   15.5909  -12.6983 N   0  0  0  0  0  0  0  0  0  0  0  0
   38.7985   15.7053  -11.7748 C   0  0  0  0  0  0  0  0  0  0  0  0
   37.7401   14.8243  -11.7389 C   0  0  0  0  0  0  0  0  0  0  0  0
   37.7249   13.8487  -12.7082 C   0  0  0  0  0  0  0  0  0  0  0  0
   38.6930   13.8006  -13.6010 N   0  0  0  0  0  0  0  0  0  0  0  0
   36.6605   12.9446  -12.6898 O   0  0  0  0  0  0  0  0  0  0  0  0
   36.1585   12.2769  -13.8210 C   0  0  0  0  0  0  0  0  0  0  0  0
   35.3288   13.2330  -14.6300 C   0  0  0  0  0  0  0  0  0  0  0  0
   34.2131   13.8821  -13.8669 C   0  0  0  0  0  0  0  0  0  0  0  0
   33.3396   12.8282  -14.1838 O   0  0  0  0  0  0  0  0  0  0  0  0
   34.1262   12.6248  -15.3105 C   0  0  0  0  0  0  0  0  0  0  0  0
   34.2586   11.2249  -15.7999 C   0  0  0  0  0  0  0  0  0  0  0  0
   33.2541   11.0175  -16.7618 O   0  0  0  0  0  0  0  0  0  0  0  0
   32.4291   10.6476  -16.3482 H   0  0  0  0  0  0  0  0  0  0  0  0
   40.3733   12.0561  -17.2491 C   0  0  0  0  0  0  0  0  0  0  0  0
   39.9009   12.9370  -16.3326 C   0  0  0  0  0  0  0  0  0  0  0  0
   40.9960   13.5166  -15.5989 C   0  0  0  0  0  0  0  0  0  0  0  0
   42.0853   12.9518  -16.1215 N   0  0  0  0  0  0  0  0  0  0  0  0
   41.7180   12.0620  -17.1211 C   0  0  0  0  0  0  0  0  0  0  0  0
   43.5012   13.1461  -15.9136 C   0  0  0  0  0  0  0  0  0  0  0  0
   44.2217   11.8830  -16.5314 C   0  0  0  0  0  0  0  0  0  0  0  0
   43.8937   13.2064  -14.4583 C   0  0  0  0  0  0  0  0  0  0  0  0
   44.0766   14.1718  -16.6066 O   0  0  0  0  0  0  0  0  0  0  0  0
   44.9090   14.4333  -16.1388 H   0  0  0  0  0  0  0  0  0  0  0  0
   39.5932   11.2561  -18.1891 C   0  0  0  0  0  0  0  0  0  0  0  0
   39.8602   11.3270  -19.4131 O   0  0  0  0  0  0  0  0  0  0  0  0
   37.2068   10.6494  -18.1401 C   0  0  0  0  0  0  0  0  0  0  0  0
   38.5628   10.4133  -17.8025 O   0  0  0  0  0  0  0  0  0  0  0  0
 30 31  1  0  0  0
 31 28  1  0  0  0
 28 29  2  0  0  0
 28 18  1  0  0  0
 18 19  1  0  0  0
 19 20  2  0  0  0
 20  1  1  0  0  0
  1  3  1  0  0  0
  3  4  2  0  0  0
  4  5  1  0  0  0
  5  6  2  0  0  0
  6  7  1  0  0  0
  7  9  1  0  0  0
  9 10  1  0  0  0
 10 11  1  0  0  0
 11 12  1  0  0  0
 12 13  1  0  0  0
 13 14  1  0  0  0
 14 15  1  0  0  0
 15 16  1  0  0  0
  7  8  2  0  0  0
 20 21  1  0  0  0
 21 22  1  0  0  0
 21 23  1  0  0  0
 23 24  1  0  0  0
 23 25  1  0  0  0
 23 26  1  0  0  0
 22 18  2  0  0  0
  8  3  1  0  0  0
 14 11  1  0  0  0
  1  2  1  0  0  0
 16 17  1  0  0  0
 26 27  1  0  0  0
M  END
> <minimizedAffinity>
-7.74651

> <CNNscore>
0.5680810213

> <CNNaffinity>
6.7123498917

> <CNN_VS>
3.8131585121

> <CNNaffinity_variance>
0.1469574422

$$$$
[H]OC(n1c([H])c(C(=O)OC([H])([H])[H])c([H])c1N([H])c1nc([H])c([H])c(OC([H])([H])[C@]2([H])C([H])([H])O[C@]2([H])C([H])([H])O[H])n1)(C([H])([H])[H])C([H])([H])[H]


 31 33  0  0  0  0  0  0  0  0999 V2000
   33.0323   14.9661  -12.8868 N   0  0  0  0  0  0  0  0  0  0  0  0
   32.7644   15.7561  -13.6340 H   0  0  0  0  0  0  0  0  0  0  0  0
   32.1186   14.9965  -11.8224 C   0  0  0  0  0  0  0  0  0  0  0  0
   30.8582   14.6189  -11.8023 N   0  0  0  0  0  0  0  0  0  0  0  0
   30.0517   14.6757  -10.7674 C   0  0  0  0  0  0  0  0  0  0  0  0
   30.5021   15.1648   -9.5609 C   0  0  0  0  0  0  0  0  0  0  0  0
   31.8140   15.5757   -9.5203 C   0  0  0  0  0  0  0  0  0  0  0  0
   32.5596   15.4864  -10.6032 N   0  0  0  0  0  0  0  0  0  0  0  0
   32.2909   16.0753   -8.3065 O   0  0  0  0  0  0  0  0  0  0  0  0
   33.2593   15.4431   -7.5064 C   0  0  0  0  0  0  0  0  0  0  0  0
   32.7963   15.4462   -6.0772 C   0  0  0  0  0  0  0  0  0  0  0  0
   33.8474   15.0447   -5.0859 C   0  0  0  0  0  0  0  0  0  0  0  0
   33.4978   13.6900   -5.2148 O   0  0  0  0  0  0  0  0  0  0  0  0
   32.2341   14.1363   -5.5801 C   0  0  0  0  0  0  0  0  0  0  0  0
   31.4796   13.3059   -6.5589 C   0  0  0  0  0  0  0  0  0  0  0  0
   30.7712   12.3341   -5.8302 O   0  0  0  0  0  0  0  0  0  0  0  0
   31.2990   11.4967   -5.7373 H   0  0  0  0  0  0  0  0  0  0  0  0
   35.3990   12.8934  -14.5887 C   0  0  0  0  0  0  0  0  0  0  0  0
   34.1855   13.4751  -14.4212 C   0  0  0  0  0  0  0  0  0  0  0  0
   34.1704   14.2360  -13.1988 C   0  0  0  0  0  0  0  0  0  0  0  0
   35.3926   14.0757  -12.6896 N   0  0  0  0  0  0  0  0  0  0  0  0
   36.1444   13.2603  -13.5238 C   0  0  0  0  0  0  0  0  0  0  0  0
   36.0704   14.6310  -11.5416 C   0  0  0  0  0  0  0  0  0  0  0  0
   35.8954   16.1985  -11.6336 C   0  0  0  0  0  0  0  0  0  0  0  0
   37.5535   14.3558  -11.5262 C   0  0  0  0  0  0  0  0  0  0  0  0
   35.5200   14.3522  -10.3240 O   0  0  0  0  0  0  0  0  0  0  0  0
   36.2225   14.4587   -9.6346 H   0  0  0  0  0  0  0  0  0  0  0  0
   35.8240   12.0393  -15.6943 C   0  0  0  0  0  0  0  0  0  0  0  0
   37.0224   11.6720  -15.7509 O   0  0  0  0  0  0  0  0  0  0  0  0
   33.9319   10.6675  -16.4710 C   0  0  0  0  0  0  0  0  0  0  0  0
   34.9696   11.6060  -16.6961 O   0  0  0  0  0  0  0  0  0  0  0  0
 30 31  1  0  0  0
 31 28  1  0  0  0
 28 29  2  0  0  0
 28 18  1  0  0  0
 18 19  1  0  0  0
 19 20  2  0  0  0
 20  1  1  0  0  0
  1  3  1  0  0  0
  3  4  2  0  0  0
  4  5  1  0  0  0
  5  6  2  0  0  0
  6  7  1  0  0  0
  7  9  1  0  0  0
  9 10  1  0  0  0
 10 11  1  0  0  0
 11 12  1  0  0  0
 12 13  1  0  0  0
 13 14  1  0  0  0
 14 15  1  0  0  0
 15 16  1  0  0  0
  7  8  2  0  0  0
 20 21  1  0  0  0
 21 22  1  0  0  0
 21 23  1  0  0  0
 23 24  1  0  0  0
 23 25  1  0  0  0
 23 26  1  0  0  0
 22 18  2  0  0  0
  8  3  1  0  0  0
 14 11  1  0  0  0
  1  2  1  0  0  0
 16 17  1  0  0  0
 26 27  1  0  0  0
M  END
> <minimizedAffinity>
-7.46726

> <CNNscore>
0.2125229388

> <CNNaffinity>
5.3076972961

> <CNN_VS>
1.1280074120

> <CNNaffinity_variance>
0.4163253903

$$$$
[H]OC(n1c([H])c(C(=O)OC([H])([H])[H])c([H])c1N([H])c1nc([H])c([H])c(OC([H])([H])[C@]2([H])C([H])([H])O[C@]2([H])C([H])([H])O[H])n1)(C([H])([H])[H])C([H])([H])[H]


 31 33  0  0  0  0  0  0  0  0999 V2000
   37.9230   13.8553  -12.5542 N   0  0  0  0  0  0  0  0  0  0  0  0
   38.9553   13.5768  -12.2209 H   0  0  0  0  0  0  0  0  0  0  0  0
   37.3485   14.7320  -11.6214 C   0  0  0  0  0  0  0  0  0  0  0  0
   37.1956   16.0367  -11.6966 N   0  0  0  0  0  0  0  0  0  0  0  0
   36.6480   16.8039  -10.7821 C   0  0  0  0  0  0  0  0  0  0  0  0
   36.1685   16.2572   -9.6121 C   0  0  0  0  0  0  0  0  0  0  0  0
   36.3005   14.8950   -9.4759 C   0  0  0  0  0  0  0  0  0  0  0  0
   36.8623   14.1941  -10.4402 N   0  0  0  0  0  0  0  0  0  0  0  0
   35.8211   14.3202   -8.2968 O   0  0  0  0  0  0  0  0  0  0  0  0
   34.5763   14.6141   -7.7123 C   0  0  0  0  0  0  0  0  0  0  0  0
   34.7854   15.0017   -6.2760 C   0  0  0  0  0  0  0  0  0  0  0  0
   35.5796   14.0115   -5.4776 C   0  0  0  0  0  0  0  0  0  0  0  0
   34.4148   13.3039   -5.1356 O   0  0  0  0  0  0  0  0  0  0  0  0
   33.7341   14.5014   -5.3148 C   0  0  0  0  0  0  0  0  0  0  0  0
   32.3365   14.4164   -5.8210 C   0  0  0  0  0  0  0  0  0  0  0  0
   31.7449   13.2819   -5.2379 O   0  0  0  0  0  0  0  0  0  0  0  0
   31.8553   12.4802   -5.8154 H   0  0  0  0  0  0  0  0  0  0  0  0
   37.9250   12.1667  -15.7074 C   0  0  0  0  0  0  0  0  0  0  0  0
   38.5138   12.7970  -14.6609 C   0  0  0  0  0  0  0  0  0  0  0  0
   37.5105   13.2468  -13.7311 C   0  0  0  0  0  0  0  0  0  0  0  0
   36.3552   12.8546  -14.2696 N   0  0  0  0  0  0  0  0  0  0  0  0
   36.5957   12.2012  -15.4701 C   0  0  0  0  0  0  0  0  0  0  0  0
   34.9835   12.9028  -13.8203 C   0  0  0  0  0  0  0  0  0  0  0  0
   34.2429   11.6910  -14.5125 C   0  0  0  0  0  0  0  0  0  0  0  0
   34.2565   14.1569  -14.2378 C   0  0  0  0  0  0  0  0  0  0  0  0
   34.7742   12.6477  -12.4957 O   0  0  0  0  0  0  0  0  0  0  0  0
   33.9059   13.0465  -12.2367 H   0  0  0  0  0  0  0  0  0  0  0  0
   38.5862   11.5685  -16.8637 C   0  0  0  0  0  0  0  0  0  0  0  0
   37.9650   10.7166  -17.5440 O   0  0  0  0  0  0  0  0  0  0  0  0
   40.4642   11.3962  -18.4476 C   0  0  0  0  0  0  0  0  0  0  0  0
   39.8754   11.8914  -17.2574 O   0  0  0  0  0  0  0  0  0  0  0  0
 30 31  1  0  0  0
 31 28  1  0  0  0
 28 29  2  0  0  0
 28 18  1  0  0  0
 18 19  1  0  0  0
 19 20  2  0  0  0
 20  1  1  0  0  0
  1  3  1  0  0  0
  3  4  2  0  0  0
  4  5  1  0  0  0
  5  6  2  0  0  0
  6  7  1  0  0  0
  7  9  1  0  0  0
  9 10  1  0  0  0
 10 11  1  0  0  0
 11 12  1  0  0  0
 12 13  1  0  0  0
 13 14  1  0  0  0
 14 15  1  0  0  0
 15 16  1  0  0  0
  7  8  2  0  0  0
 20 21  1  0  0  0
 21 22  1  0  0  0
 21 23  1  0  0  0
 23 24  1  0  0  0
 23 25  1  0  0  0
 23 26  1  0  0  0
 22 18  2  0  0  0
  8  3  1  0  0  0
 14 11  1  0  0  0
  1  2  1  0  0  0
 16 17  1  0  0  0
 26 27  1  0  0  0
M  END
> <minimizedAffinity>
-7.69696

> <CNNscore>
0.1670223922

> <CNNaffinity>
5.3251857758

> <CNN_VS>
0.8894252777

> <CNNaffinity_variance>
0.2731040418

$$$$
[H]OC(n1c([H])c(C(=O)OC([H])([H])[H])c([H])c1N([H])c1nc([H])c([H])c(OC([H])([H])[C@]2([H])C([H])([H])O[C@]2([H])C([H])([H])O[H])n1)(C([H])([H])[H])C([H])([H])[H]


 31 33  0  0  0  0  0  0  0  0999 V2000
   40.4119   13.6662  -14.2768 N   0  0  0  0  0  0  0  0  0  0  0  0
   40.3851   14.4106  -13.4405 H   0  0  0  0  0  0  0  0  0  0  0  0
   41.7424   13.4345  -14.6575 C   0  0  0  0  0  0  0  0  0  0  0  0
   42.2043   12.8885  -15.7621 N   0  0  0  0  0  0  0  0  0  0  0  0
   43.4693   12.6974  -16.0582 C   0  0  0  0  0  0  0  0  0  0  0  0
   44.4556   13.0804  -15.1760 C   0  0  0  0  0  0  0  0  0  0  0  0
   44.0331   13.6583  -14.0016 C   0  0  0  0  0  0  0  0  0  0  0  0
   42.7440   13.8155  -13.7784 N   0  0  0  0  0  0  0  0  0  0  0  0
   45.0170   14.0539  -13.0928 O   0  0  0  0  0  0  0  0  0  0  0  0
   46.2053   14.7208  -13.4403 C   0  0  0  0  0  0  0  0  0  0  0  0
   46.2240   16.0705  -12.7808 C   0  0  0  0  0  0  0  0  0  0  0  0
   44.8879   16.7487  -12.7222 C   0  0  0  0  0  0  0  0  0  0  0  0
   45.0968   17.3404  -13.9794 O   0  0  0  0  0  0  0  0  0  0  0  0
   46.4556   17.2376  -13.7101 C   0  0  0  0  0  0  0  0  0  0  0  0
   47.3606   17.0126  -14.8706 C   0  0  0  0  0  0  0  0  0  0  0  0
   47.0608   17.9906  -15.8354 O   0  0  0  0  0  0  0  0  0  0  0  0
   46.3793   17.6637  -16.4811 H   0  0  0  0  0  0  0  0  0  0  0  0
   37.8098   12.0287  -16.1049 C   0  0  0  0  0  0  0  0  0  0  0  0
   39.0918   12.4147  -15.8887 C   0  0  0  0  0  0  0  0  0  0  0  0
   39.1657   13.2310  -14.7048 C   0  0  0  0  0  0  0  0  0  0  0  0
   37.9096   13.2909  -14.2606 N   0  0  0  0  0  0  0  0  0  0  0  0
   37.0791   12.5674  -15.1047 C   0  0  0  0  0  0  0  0  0  0  0  0
   37.2993   13.8631  -13.0833 C   0  0  0  0  0  0  0  0  0  0  0  0
   36.2857   12.7826  -12.5345 C   0  0  0  0  0  0  0  0  0  0  0  0
   36.4997   15.1108  -13.3653 C   0  0  0  0  0  0  0  0  0  0  0  0
   38.1220   14.0550  -12.0110 O   0  0  0  0  0  0  0  0  0  0  0  0
   37.7177   14.7472  -11.4302 H   0  0  0  0  0  0  0  0  0  0  0  0
   37.3096   11.1987  -17.1971 C   0  0  0  0  0  0  0  0  0  0  0  0
   38.1040   10.4243  -17.7832 O   0  0  0  0  0  0  0  0  0  0  0  0
   34.9413   10.5816  -16.9219 C   0  0  0  0  0  0  0  0  0  0  0  0
   35.9924   11.2175  -17.6285 O   0  0  0  0  0  0  0  0  0  0  0  0
 30 31  1  0  0  0
 31 28  1  0  0  0
 28 29  2  0  0  0
 28 18  1  0  0  0
 18 19  1  0  0  0
 19 20  2  0  0  0
 20  1  1  0  0  0
  1  3  1  0  0  0
  3  4  2  0  0  0
  4  5  1  0  0  0
  5  6  2  0  0  0
  6  7  1  0  0  0
  7  9  1  0  0  0
  9 10  1  0  0  0
 10 11  1  0  0  0
 11 12  1  0  0  0
 12 13  1  0  0  0
 13 14  1  0  0  0
 14 15  1  0  0  0
 15 16  1  0  0  0
  7  8  2  0  0  0
 20 21  1  0  0  0
 21 22  1  0  0  0
 21 23  1  0  0  0
 23 24  1  0  0  0
 23 25  1  0  0  0
 23 26  1  0  0  0
 22 18  2  0  0  0
  8  3  1  0  0  0
 14 11  1  0  0  0
  1  2  1  0  0  0
 16 17  1  0  0  0
 26 27  1  0  0  0
M  END
> <minimizedAffinity>
-6.91618

> <CNNscore>
0.1549452841

> <CNNaffinity>
5.6053133011

> <CNN_VS>
0.8685168624

> <CNNaffinity_variance>
0.1623906195

$$$$
[H]OC(n1c([H])c(C(=O)OC([H])([H])[H])c([H])c1N([H])c1nc([H])c([H])c(OC([H])([H])[C@]2([H])C([H])([H])O[C@]2([H])C([H])([H])O[H])n1)(C([H])([H])[H])C([H])([H])[H]


 31 33  0  0  0  0  0  0  0  0999 V2000
   41.6365   14.0235  -14.1605 N   0  0  0  0  0  0  0  0  0  0  0  0
   41.3742   15.0003  -13.6797 H   0  0  0  0  0  0  0  0  0  0  0  0
   40.4886   13.4612  -14.7394 C   0  0  0  0  0  0  0  0  0  0  0  0
   40.3980   12.6022  -15.7319 N   0  0  0  0  0  0  0  0  0  0  0  0
   39.2859   12.1135  -16.2309 C   0  0  0  0  0  0  0  0  0  0  0  0
   38.0664   12.4929  -15.7146 C   0  0  0  0  0  0  0  0  0  0  0  0
   38.0973   13.3907  -14.6731 C   0  0  0  0  0  0  0  0  0  0  0  0
   39.2555   13.8350  -14.2286 N   0  0  0  0  0  0  0  0  0  0  0  0
   36.8716   13.7890  -14.1349 O   0  0  0  0  0  0  0  0  0  0  0  0
   35.7399   14.1367  -14.8937 C   0  0  0  0  0  0  0  0  0  0  0  0
   34.5075   13.9482  -14.0555 C   0  0  0  0  0  0  0  0  0  0  0  0
   34.7740   13.4442  -12.6686 C   0  0  0  0  0  0  0  0  0  0  0  0
   34.7029   12.1104  -13.1047 O   0  0  0  0  0  0  0  0  0  0  0  0
   33.8847   12.5748  -14.1266 C   0  0  0  0  0  0  0  0  0  0  0  0
   33.9602   11.8616  -15.4313 C   0  0  0  0  0  0  0  0  0  0  0  0
   33.0706   10.7743  -15.3698 O   0  0  0  0  0  0  0  0  0  0  0  0
   33.5282    9.9511  -15.0514 H   0  0  0  0  0  0  0  0  0  0  0  0
   45.0030   13.0467  -14.8722 C   0  0  0  0  0  0  0  0  0  0  0  0
   43.7154   13.3162  -15.2021 C   0  0  0  0  0  0  0  0  0  0  0  0
   42.9644   13.6463  -14.0187 C   0  0  0  0  0  0  0  0  0  0  0  0
   43.8506   13.5628  -13.0256 N   0  0  0  0  0  0  0  0  0  0  0  0
   45.0894   13.1967  -13.5326 C   0  0  0  0  0  0  0  0  0  0  0  0
   43.7871   13.8506  -11.6117 C   0  0  0  0  0  0  0  0  0  0  0  0
   44.8610   14.9760  -11.3355 C   0  0  0  0  0  0  0  0  0  0  0  0
   44.1512   12.6741  -10.7405 C   0  0  0  0  0  0  0  0  0  0  0  0
   42.6371   14.4365  -11.1673 O   0  0  0  0  0  0  0  0  0  0  0  0
   42.5544   14.2599  -10.1967 H   0  0  0  0  0  0  0  0  0  0  0  0
   46.0856   12.6685  -15.7761 C   0  0  0  0  0  0  0  0  0  0  0  0
   45.8123   12.4006  -16.9711 O   0  0  0  0  0  0  0  0  0  0  0  0
   48.3240   13.6642  -15.5244 C   0  0  0  0  0  0  0  0  0  0  0  0
   47.4131   12.5875  -15.3853 O   0  0  0  0  0  0  0  0  0  0  0  0
 30 31  1  0  0  0
 31 28  1  0  0  0
 28 29  2  0  0  0
 28 18  1  0  0  0
 18 19  1  0  0  0
 19 20  2  0  0  0
 20  1  1  0  0  0
  1  3  1  0  0  0
  3  4  2  0  0  0
  4  5  1  0  0  0
  5  6  2  0  0  0
  6  7  1  0  0  0
  7  9  1  0  0  0
  9 10  1  0  0  0
 10 11  1  0  0  0
 11 12  1  0  0  0
 12 13  1  0  0  0
 13 14  1  0  0  0
 14 15  1  0  0  0
 15 16  1  0  0  0
  7  8  2  0  0  0
 20 21  1  0  0  0
 21 22  1  0  0  0
 21 23  1  0  0  0
 23 24  1  0  0  0
 23 25  1  0  0  0
 23 26  1  0  0  0
 22 18  2  0  0  0
  8  3  1  0  0  0
 14 11  1  0  0  0
  1  2  1  0  0  0
 16 17  1  0  0  0
 26 27  1  0  0  0
M  END
> <minimizedAffinity>
-6.78498

> <CNNscore>
0.1535816789

> <CNNaffinity>
5.6127266884

> <CNN_VS>
0.8620119691

> <CNNaffinity_variance>
0.0918684304

$$$$
[H]OC(n1c([H])c(C(=O)OC([H])([H])[H])c([H])c1N([H])c1nc([H])c([H])c(OC([H])([H])[C@]2([H])C([H])([H])O[C@]2([H])C([H])([H])O[H])n1)(C([H])([H])[H])C([H])([H])[H]


 31 33  0  0  0  0  0  0  0  0999 V2000
   37.8197   13.7987  -13.2068 N   0  0  0  0  0  0  0  0  0  0  0  0
   38.9061   13.6281  -12.9949 H   0  0  0  0  0  0  0  0  0  0  0  0
   37.2935   14.6993  -12.2683 C   0  0  0  0  0  0  0  0  0  0  0  0
   36.5560   15.7699  -12.4716 N   0  0  0  0  0  0  0  0  0  0  0  0
   36.0944   16.5768  -11.5440 C   0  0  0  0  0  0  0  0  0  0  0  0
   36.3701   16.3390  -10.2154 C   0  0  0  0  0  0  0  0  0  0  0  0
   37.1384   15.2319   -9.9402 C   0  0  0  0  0  0  0  0  0  0  0  0
   37.5639   14.4708  -10.9282 N   0  0  0  0  0  0  0  0  0  0  0  0
   37.4300   14.9725   -8.5992 O   0  0  0  0  0  0  0  0  0  0  0  0
   36.4698   14.6859   -7.6127 C   0  0  0  0  0  0  0  0  0  0  0  0
   36.9906   15.1279   -6.2746 C   0  0  0  0  0  0  0  0  0  0  0  0
   38.3828   14.6624   -5.9685 C   0  0  0  0  0  0  0  0  0  0  0  0
   37.8954   13.4710   -5.4051 O   0  0  0  0  0  0  0  0  0  0  0  0
   36.7280   14.1736   -5.1347 C   0  0  0  0  0  0  0  0  0  0  0  0
   35.4525   13.4065   -5.1712 C   0  0  0  0  0  0  0  0  0  0  0  0
   35.5592   12.3654   -4.2321 O   0  0  0  0  0  0  0  0  0  0  0  0
   35.9090   11.5349   -4.6520 H   0  0  0  0  0  0  0  0  0  0  0  0
   37.5749   11.7931  -16.1584 C   0  0  0  0  0  0  0  0  0  0  0  0
   38.2422   12.5323  -15.2378 C   0  0  0  0  0  0  0  0  0  0  0  0
   37.3164   13.0689  -14.2744 C   0  0  0  0  0  0  0  0  0  0  0  0
   36.1250   12.6152  -14.6662 N   0  0  0  0  0  0  0  0  0  0  0  0
   36.2708   11.8429  -15.8100 C   0  0  0  0  0  0  0  0  0  0  0  0
   34.7969   12.7003  -14.1053 C   0  0  0  0  0  0  0  0  0  0  0  0
   33.9495   11.5535  -14.7857 C   0  0  0  0  0  0  0  0  0  0  0  0
   34.0968   14.0015  -14.4090 C   0  0  0  0  0  0  0  0  0  0  0  0
   34.6819   12.3937  -12.7801 O   0  0  0  0  0  0  0  0  0  0  0  0
   33.8559   12.8163  -12.4348 H   0  0  0  0  0  0  0  0  0  0  0  0
   38.1427   11.0831  -17.3010 C   0  0  0  0  0  0  0  0  0  0  0  0
   37.3671   10.5927  -18.1567 O   0  0  0  0  0  0  0  0  0  0  0  0
   40.2718   11.7683  -18.3319 C   0  0  0  0  0  0  0  0  0  0  0  0
   39.5050   10.9180  -17.4968 O   0  0  0  0  0  0  0  0  0  0  0  0
 30 31  1  0  0  0
 31 28  1  0  0  0
 28 29  2  0  0  0
 28 18  1  0  0  0
 18 19  1  0  0  0
 19 20  2  0  0  0
 20  1  1  0  0  0
  1  3  1  0  0  0
  3  4  2  0  0  0
  4  5  1  0  0  0
  5  6  2  0  0  0
  6  7  1  0  0  0
  7  9  1  0  0  0
  9 10  1  0  0  0
 10 11  1  0  0  0
 11 12  1  0  0  0
 12 13  1  0  0  0
 13 14  1  0  0  0
 14 15  1  0  0  0
 15 16  1  0  0  0
  7  8  2  0  0  0
 20 21  1  0  0  0
 21 22  1  0  0  0
 21 23  1  0  0  0
 23 24  1  0  0  0
 23 25  1  0  0  0
 23 26  1  0  0  0
 22 18  2  0  0  0
  8  3  1  0  0  0
 14 11  1  0  0  0
  1  2  1  0  0  0
 16 17  1  0  0  0
 26 27  1  0  0  0
M  END
> <minimizedAffinity>
-7.52871

> <CNNscore>
0.1355397254

> <CNNaffinity>
5.1008358002

> <CNN_VS>
0.6913658977

> <CNNaffinity_variance>
0.3991680145

$$$$
[H]OC(n1c([H])c(C(=O)OC([H])([H])[H])c([H])c1N([H])c1nc([H])c([H])c(OC([H])([H])[C@]2([H])C([H])([H])O[C@]2([H])C([H])([H])O[H])n1)(C([H])([H])[H])C([H])([H])[H]


 31 33  0  0  0  0  0  0  0  0999 V2000
   32.8083   15.2480  -12.5474 N   0  0  0  0  0  0  0  0  0  0  0  0
   32.6484   16.2102  -13.0978 H   0  0  0  0  0  0  0  0  0  0  0  0
   31.8808   15.1461  -11.4995 C   0  0  0  0  0  0  0  0  0  0  0  0
   30.8079   14.3891  -11.4144 N   0  0  0  0  0  0  0  0  0  0  0  0
   29.9748   14.3420  -10.4003 C   0  0  0  0  0  0  0  0  0  0  0  0
   30.1842   15.1317   -9.2911 C   0  0  0  0  0  0  0  0  0  0  0  0
   31.2922   15.9459   -9.3220 C   0  0  0  0  0  0  0  0  0  0  0  0
   32.0805   15.9356  -10.3780 N   0  0  0  0  0  0  0  0  0  0  0  0
   31.5230   16.7552   -8.2074 O   0  0  0  0  0  0  0  0  0  0  0  0
   32.7324   16.8047   -7.4915 C   0  0  0  0  0  0  0  0  0  0  0  0
   32.4558   17.2618   -6.0874 C   0  0  0  0  0  0  0  0  0  0  0  0
   31.2464   18.1375   -5.9491 C   0  0  0  0  0  0  0  0  0  0  0  0
   32.0129   19.2898   -6.1922 O   0  0  0  0  0  0  0  0  0  0  0  0
   33.0959   18.5729   -5.6995 C   0  0  0  0  0  0  0  0  0  0  0  0
   34.4310   18.8761   -6.2846 C   0  0  0  0  0  0  0  0  0  0  0  0
   34.6738   20.2478   -6.0931 O   0  0  0  0  0  0  0  0  0  0  0  0
   34.3653   20.7813   -6.8732 H   0  0  0  0  0  0  0  0  0  0  0  0
   34.7472   12.8865  -14.4070 C   0  0  0  0  0  0  0  0  0  0  0  0
   33.5906   13.4794  -14.0195 C   0  0  0  0  0  0  0  0  0  0  0  0
   33.8626   14.4791  -13.0195 C   0  0  0  0  0  0  0  0  0  0  0  0
   35.1859   14.4399  -12.8582 N   0  0  0  0  0  0  0  0  0  0  0  0
   35.7313   13.4749  -13.6930 C   0  0  0  0  0  0  0  0  0  0  0  0
   36.1154   15.2293  -12.0844 C   0  0  0  0  0  0  0  0  0  0  0  0
   37.5404   15.0000  -12.7269 C   0  0  0  0  0  0  0  0  0  0  0  0
   36.2119   14.8028  -10.6407 C   0  0  0  0  0  0  0  0  0  0  0  0
   35.9753   16.5842  -12.1740 O   0  0  0  0  0  0  0  0  0  0  0  0
   36.3888   16.9922  -11.3723 H   0  0  0  0  0  0  0  0  0  0  0  0
   34.9068   11.8238  -15.3956 C   0  0  0  0  0  0  0  0  0  0  0  0
   36.0220   11.6747  -15.9510 O   0  0  0  0  0  0  0  0  0  0  0  0
   33.4280   10.8282  -17.0948 C   0  0  0  0  0  0  0  0  0  0  0  0
   33.8853   10.9605  -15.7599 O   0  0  0  0  0  0  0  0  0  0  0  0
 30 31  1  0  0  0
 31 28  1  0  0  0
 28 29  2  0  0  0
 28 18  1  0  0  0
 18 19  1  0  0  0
 19 20  2  0  0  0
 20  1  1  0  0  0
  1  3  1  0  0  0
  3  4  2  0  0  0
  4  5  1  0  0  0
  5  6  2  0  0  0
  6  7  1  0  0  0
  7  9  1  0  0  0
  9 10  1  0  0  0
 10 11  1  0  0  0
 11 12  1  0  0  0
 12 13  1  0  0  0
 13 14  1  0  0  0
 14 15  1  0  0  0
 15 16  1  0  0  0
  7  8  2  0  0  0
 20 21  1  0  0  0
 21 22  1  0  0  0
 21 23  1  0  0  0
 23 24  1  0  0  0
 23 25  1  0  0  0
 23 26  1  0  0  0
 22 18  2  0  0  0
  8  3  1  0  0  0
 14 11  1  0  0  0
  1  2  1  0  0  0
 16 17  1  0  0  0
 26 27  1  0  0  0
M  END
> <minimizedAffinity>
-6.79827

> <CNNscore>
0.1031082794

> <CNNaffinity>
5.1785078049

> <CNN_VS>
0.5339470506

> <CNNaffinity_variance>
0.3402842879

$$$$
[H]OC(n1c([H])c(C(=O)OC([H])([H])[H])c([H])c1N([H])c1nc([H])c([H])c(OC([H])([H])[C@]2([H])C([H])([H])O[C@]2([H])C([H])([H])O[H])n1)(C([H])([H])[H])C([H])([H])[H]


 31 33  0  0  0  0  0  0  0  0999 V2000
   42.2341   14.0108  -13.7113 N   0  0  0  0  0  0  0  0  0  0  0  0
   41.5358   14.7313  -13.2140 H   0  0  0  0  0  0  0  0  0  0  0  0
   41.5901   13.4097  -14.8034 C   0  0  0  0  0  0  0  0  0  0  0  0
   42.1147   12.9150  -15.9041 N   0  0  0  0  0  0  0  0  0  0  0  0
   41.4521   12.3645  -16.8954 C   0  0  0  0  0  0  0  0  0  0  0  0
   40.0793   12.2634  -16.8428 C   0  0  0  0  0  0  0  0  0  0  0  0
   39.4732   12.7642  -15.7143 C   0  0  0  0  0  0  0  0  0  0  0  0
   40.2089   13.3020  -14.7625 N   0  0  0  0  0  0  0  0  0  0  0  0
   38.0816   12.6719  -15.6408 O   0  0  0  0  0  0  0  0  0  0  0  0
   37.3745   12.0703  -14.5846 C   0  0  0  0  0  0  0  0  0  0  0  0
   36.4083   13.0657  -14.0079 C   0  0  0  0  0  0  0  0  0  0  0  0
   36.0776   12.8408  -12.5627 C   0  0  0  0  0  0  0  0  0  0  0  0
   35.0179   11.9839  -12.9050 O   0  0  0  0  0  0  0  0  0  0  0  0
   34.9520   12.6799  -14.1053 C   0  0  0  0  0  0  0  0  0  0  0  0
   34.5317   11.9130  -15.3103 C   0  0  0  0  0  0  0  0  0  0  0  0
   33.2811   11.3356  -15.0279 O   0  0  0  0  0  0  0  0  0  0  0  0
   33.3824   10.4208  -14.6521 H   0  0  0  0  0  0  0  0  0  0  0  0
   44.8514   13.1785  -11.4197 C   0  0  0  0  0  0  0  0  0  0  0  0
   43.5566   13.2632  -11.8141 C   0  0  0  0  0  0  0  0  0  0  0  0
   43.4770   13.8966  -13.1048 C   0  0  0  0  0  0  0  0  0  0  0  0
   44.7441   14.1591  -13.4275 N   0  0  0  0  0  0  0  0  0  0  0  0
   45.5852   13.7301  -12.4105 C   0  0  0  0  0  0  0  0  0  0  0  0
   45.3764   14.6970  -14.6093 C   0  0  0  0  0  0  0  0  0  0  0  0
   46.7008   13.8634  -14.8271 C   0  0  0  0  0  0  0  0  0  0  0  0
   45.7862   16.1419  -14.4686 C   0  0  0  0  0  0  0  0  0  0  0  0
   44.7168   14.5000  -15.7881 O   0  0  0  0  0  0  0  0  0  0  0  0
   45.0260   15.1834  -16.4342 H   0  0  0  0  0  0  0  0  0  0  0  0
   45.3601   12.6083  -10.1754 C   0  0  0  0  0  0  0  0  0  0  0  0
   45.9595   11.5066  -10.2136 O   0  0  0  0  0  0  0  0  0  0  0  0
   45.2994   14.6249   -8.7631 C   0  0  0  0  0  0  0  0  0  0  0  0
   45.2173   13.2213   -8.9404 O   0  0  0  0  0  0  0  0  0  0  0  0
 30 31  1  0  0  0
 31 28  1  0  0  0
 28 29  2  0  0  0
 28 18  1  0  0  0
 18 19  1  0  0  0
 19 20  2  0  0  0
 20  1  1  0  0  0
  1  3  1  0  0  0
  3  4  2  0  0  0
  4  5  1  0  0  0
  5  6  2  0  0  0
  6  7  1  0  0  0
  7  9  1  0  0  0
  9 10  1  0  0  0
 10 11  1  0  0  0
 11 12  1  0  0  0
 12 13  1  0  0  0
 13 14  1  0  0  0
 14 15  1  0  0  0
 15 16  1  0  0  0
  7  8  2  0  0  0
 20 21  1  0  0  0
 21 22  1  0  0  0
 21 23  1  0  0  0
 23 24  1  0  0  0
 23 25  1  0  0  0
 23 26  1  0  0  0
 22 18  2  0  0  0
  8  3  1  0  0  0
 14 11  1  0  0  0
  1  2  1  0  0  0
 16 17  1  0  0  0
 26 27  1  0  0  0
M  END
> <minimizedAffinity>
-6.35252

> <CNNscore>
0.0894406661

> <CNNaffinity>
5.3871293068

> <CNN_VS>
0.4818284214

> <CNNaffinity_variance>
0.1103373319

$$$$
[H]OC(n1c([H])c(C(=O)OC([H])([H])[H])c([H])c1N([H])c1nc([H])c([H])c(OC([H])([H])[C@]2([H])C([H])([H])O[C@]2([H])C([H])([H])O[H])n1)(C([H])([H])[H])C([H])([H])[H]


 31 33  0  0  0  0  0  0  0  0999 V2000
   33.3672   14.8674  -13.4694 N   0  0  0  0  0  0  0  0  0  0  0  0
   32.7174   15.4695  -14.1546 H   0  0  0  0  0  0  0  0  0  0  0  0
   33.9626   13.8189  -14.1871 C   0  0  0  0  0  0  0  0  0  0  0  0
   33.4025   12.7449  -14.7012 N   0  0  0  0  0  0  0  0  0  0  0  0
   34.0202   11.7943  -15.3641 C   0  0  0  0  0  0  0  0  0  0  0  0
   35.3794   11.8654  -15.5770 C   0  0  0  0  0  0  0  0  0  0  0  0
   36.0211   12.9675  -15.0621 C   0  0  0  0  0  0  0  0  0  0  0  0
   35.3296   13.8789  -14.4080 N   0  0  0  0  0  0  0  0  0  0  0  0
   37.3996   13.0592  -15.2665 O   0  0  0  0  0  0  0  0  0  0  0  0
   38.1375   12.2282  -16.1281 C   0  0  0  0  0  0  0  0  0  0  0  0
   39.5742   12.2144  -15.6891 C   0  0  0  0  0  0  0  0  0  0  0  0
   40.0013   13.4365  -14.9325 C   0  0  0  0  0  0  0  0  0  0  0  0
   40.3534   14.0913  -16.1249 O   0  0  0  0  0  0  0  0  0  0  0  0
   40.5509   12.8265  -16.6641 C   0  0  0  0  0  0  0  0  0  0  0  0
   40.2600   12.6559  -18.1143 C   0  0  0  0  0  0  0  0  0  0  0  0
   41.2451   11.8044  -18.6449 O   0  0  0  0  0  0  0  0  0  0  0  0
   42.0151   12.3219  -19.0024 H   0  0  0  0  0  0  0  0  0  0  0  0
   32.3386   15.6524  -10.1348 C   0  0  0  0  0  0  0  0  0  0  0  0
   32.1260   15.2747  -11.4198 C   0  0  0  0  0  0  0  0  0  0  0  0
   33.3677   15.2935  -12.1488 C   0  0  0  0  0  0  0  0  0  0  0  0
   34.2761   15.6811  -11.2526 N   0  0  0  0  0  0  0  0  0  0  0  0
   33.6614   15.9044  -10.0287 C   0  0  0  0  0  0  0  0  0  0  0  0
   35.7131   15.8204  -11.2923 C   0  0  0  0  0  0  0  0  0  0  0  0
   36.3097   14.3823  -11.0241 C   0  0  0  0  0  0  0  0  0  0  0  0
   36.2601   16.7288  -10.2194 C   0  0  0  0  0  0  0  0  0  0  0  0
   36.2547   16.1337  -12.5055 O   0  0  0  0  0  0  0  0  0  0  0  0
   37.1424   16.5442  -12.3519 H   0  0  0  0  0  0  0  0  0  0  0  0
   31.3438   15.7678   -9.0721 C   0  0  0  0  0  0  0  0  0  0  0  0
   30.8299   16.8890   -8.8417 O   0  0  0  0  0  0  0  0  0  0  0  0
   29.9508   13.7671   -8.7230 C   0  0  0  0  0  0  0  0  0  0  0  0
   30.9301   14.6976   -8.2944 O   0  0  0  0  0  0  0  0  0  0  0  0
 30 31  1  0  0  0
 31 28  1  0  0  0
 28 29  2  0  0  0
 28 18  1  0  0  0
 18 19  1  0  0  0
 19 20  2  0  0  0
 20  1  1  0  0  0
  1  3  1  0  0  0
  3  4  2  0  0  0
  4  5  1  0  0  0
  5  6  2  0  0  0
  6  7  1  0  0  0
  7  9  1  0  0  0
  9 10  1  0  0  0
 10 11  1  0  0  0
 11 12  1  0  0  0
 12 13  1  0  0  0
 13 14  1  0  0  0
 14 15  1  0  0  0
 15 16  1  0  0  0
  7  8  2  0  0  0
 20 21  1  0  0  0
 21 22  1  0  0  0
 21 23  1  0  0  0
 23 24  1  0  0  0
 23 25  1  0  0  0
 23 26  1  0  0  0
 22 18  2  0  0  0
  8  3  1  0  0  0
 14 11  1  0  0  0
  1  2  1  0  0  0
 16 17  1  0  0  0
 26 27  1  0  0  0
M  END
> <minimizedAffinity>
-7.81739

> <CNNscore>
0.0792740956

> <CNNaffinity>
5.5025219917

> <CNN_VS>
0.4362074435

> <CNNaffinity_variance>
0.2071358711

$$$$
[H]c1c([H])c(C(=O)N([H])c2nnc(C([H])(n3nnnc3[H])C3([H])C([H])([H])C([H])([H])C([H])([H])C([H])([H])C3([H])[H])s2)c([H])c([H])c1F


 28 31  0  0  0  0  0  0  0  0999 V2000
   37.5448   14.8122  -12.4963 C   0  0  0  0  0  0  0  0  0  0  0  0
   37.7575   13.5534  -12.1223 N   0  0  0  0  0  0  0  0  0  0  0  0
   37.7097   12.6235  -12.9728 N   0  0  0  0  0  0  0  0  0  0  0  0
   37.4464   12.8991  -14.2454 C   0  0  0  0  0  0  0  0  0  0  0  0
   37.2642   14.5975  -14.1737 S   0  0  0  0  0  0  0  0  0  0  0  0
   36.9403   16.0544  -10.4242 C   0  0  0  0  0  0  0  0  0  0  0  0
   36.3634   15.0040   -9.9624 O   0  0  0  0  0  0  0  0  0  0  0  0
   37.5521   16.0049  -11.7033 N   0  0  0  0  0  0  0  0  0  0  0  0
   38.0183   16.8415  -12.0846 H   0  0  0  0  0  0  0  0  0  0  0  0
   36.8987   20.6077   -7.2261 F   0  0  0  0  0  0  0  0  0  0  0  0
   36.9219   19.5049   -8.0132 C   0  0  0  0  0  0  0  0  0  0  0  0
   37.8599   19.3745   -9.0106 C   0  0  0  0  0  0  0  0  0  0  0  0
   37.8400   18.2305   -9.7846 C   0  0  0  0  0  0  0  0  0  0  0  0
   36.9229   17.2290   -9.5925 C   0  0  0  0  0  0  0  0  0  0  0  0
   35.9924   17.3711   -8.5942 C   0  0  0  0  0  0  0  0  0  0  0  0
   35.9782   18.5157   -7.7867 C   0  0  0  0  0  0  0  0  0  0  0  0
   37.3505   11.9412  -15.3854 C   0  0  0  0  0  0  0  0  0  0  0  0
   36.0619   12.2330  -16.1418 C   0  0  0  0  0  0  0  0  0  0  0  0
   35.9099   11.3169  -17.3322 C   0  0  0  0  0  0  0  0  0  0  0  0
   35.1998   10.0233  -16.9148 C   0  0  0  0  0  0  0  0  0  0  0  0
   33.7666   10.4124  -16.6212 C   0  0  0  0  0  0  0  0  0  0  0  0
   33.6434   11.6524  -15.8009 C   0  0  0  0  0  0  0  0  0  0  0  0
   34.9324   12.0922  -15.1597 C   0  0  0  0  0  0  0  0  0  0  0  0
   38.5149   12.0015  -16.2454 N   0  0  0  0  0  0  0  0  0  0  0  0
   38.8905   11.0555  -17.1090 C   0  0  0  0  0  0  0  0  0  0  0  0
   40.0035   11.4774  -17.7101 N   0  0  0  0  0  0  0  0  0  0  0  0
   40.3195   12.6636  -17.2333 N   0  0  0  0  0  0  0  0  0  0  0  0
   39.4041   12.9881  -16.3313 N   0  0  0  0  0  0  0  0  0  0  0  0
 10 11  1  0  0  0
 11 12  2  0  0  0
 12 13  1  0  0  0
 13 14  2  0  0  0
 14 15  1  0  0  0
 15 16  2  0  0  0
 14  6  1  0  0  0
  6  7  2  0  0  0
  6  8  1  0  0  0
  8  1  1  0  0  0
  1  2  2  0  0  0
  2  3  1  0  0  0
  3  4  2  0  0  0
  4  5  1  0  0  0
  4 17  1  0  0  0
 17 18  1  0  0  0
 18 19  1  0  0  0
 19 20  1  0  0  0
 20 21  1  0  0  0
 21 22  1  0  0  0
 22 23  1  0  0  0
 17 24  1  0  0  0
 24 25  1  0  0  0
 25 26  2  0  0  0
 26 27  1  0  0  0
 27 28  2  0  0  0
 16 11  1  0  0  0
  5  1  1  0  0  0
 23 18  1  0  0  0
 28 24  1  0  0  0
  8  9  1  0  0  0
M  END
> <minimizedAffinity>
-7.96919

> <CNNscore>
0.3018968105

> <CNNaffinity>
6.4125061035

> <CNN_VS>
1.9359151125

> <CNNaffinity_variance>
0.7372723818

$$$$
[H]c1c([H])c(C(=O)N([H])c2nnc(C([H])(n3nnnc3[H])C3([H])C([H])([H])C([H])([H])C([H])([H])C([H])([H])C3([H])[H])s2)c([H])c([H])c1F


 28 31  0  0  0  0  0  0  0  0999 V2000
   41.6703   15.3327  -13.1538 C   0  0  0  0  0  0  0  0  0  0  0  0
   40.4298   15.7950  -13.2847 N   0  0  0  0  0  0  0  0  0  0  0  0
   39.5390   15.0766  -13.8143 N   0  0  0  0  0  0  0  0  0  0  0  0
   39.8375   13.8552  -14.2432 C   0  0  0  0  0  0  0  0  0  0  0  0
   41.4982   13.7736  -13.8451 S   0  0  0  0  0  0  0  0  0  0  0  0
   43.0715   15.9591  -11.1925 C   0  0  0  0  0  0  0  0  0  0  0  0
   42.2491   15.3560  -10.4119 O   0  0  0  0  0  0  0  0  0  0  0  0
   42.8196   15.9740  -12.5887 N   0  0  0  0  0  0  0  0  0  0  0  0
   43.4725   16.4548  -13.2253 H   0  0  0  0  0  0  0  0  0  0  0  0
   47.4942   18.3965   -8.8556 F   0  0  0  0  0  0  0  0  0  0  0  0
   46.4244   17.8041   -9.4396 C   0  0  0  0  0  0  0  0  0  0  0  0
   46.3959   17.5901  -10.7979 C   0  0  0  0  0  0  0  0  0  0  0  0
   45.2816   16.9823  -11.3431 C   0  0  0  0  0  0  0  0  0  0  0  0
   44.2118   16.5888  -10.5803 C   0  0  0  0  0  0  0  0  0  0  0  0
   44.2526   16.8079   -9.2265 C   0  0  0  0  0  0  0  0  0  0  0  0
   45.3639   17.4212   -8.6339 C   0  0  0  0  0  0  0  0  0  0  0  0
   38.9253   12.8667  -14.8889 C   0  0  0  0  0  0  0  0  0  0  0  0
   37.5324   13.4781  -14.9511 C   0  0  0  0  0  0  0  0  0  0  0  0
   36.6991   12.8260  -16.0280 C   0  0  0  0  0  0  0  0  0  0  0  0
   35.9754   11.5975  -15.4633 C   0  0  0  0  0  0  0  0  0  0  0  0
   34.9208   12.1344  -14.5191 C   0  0  0  0  0  0  0  0  0  0  0  0
   35.4240   13.2093  -13.6152 C   0  0  0  0  0  0  0  0  0  0  0  0
   36.9242   13.3299  -13.5843 C   0  0  0  0  0  0  0  0  0  0  0  0
   39.4023   12.4592  -16.1948 N   0  0  0  0  0  0  0  0  0  0  0  0
   39.2861   11.2355  -16.7153 C   0  0  0  0  0  0  0  0  0  0  0  0
   39.8439   11.2580  -17.9263 N   0  0  0  0  0  0  0  0  0  0  0  0
   40.3005   12.4708  -18.1605 N   0  0  0  0  0  0  0  0  0  0  0  0
   40.0296   13.2120  -17.0956 N   0  0  0  0  0  0  0  0  0  0  0  0
 10 11  1  0  0  0
 11 12  2  0  0  0
 12 13  1  0  0  0
 13 14  2  0  0  0
 14 15  1  0  0  0
 15 16  2  0  0  0
 14  6  1  0  0  0
  6  7  2  0  0  0
  6  8  1  0  0  0
  8  1  1  0  0  0
  1  2  2  0  0  0
  2  3  1  0  0  0
  3  4  2  0  0  0
  4  5  1  0  0  0
  4 17  1  0  0  0
 17 18  1  0  0  0
 18 19  1  0  0  0
 19 20  1  0  0  0
 20 21  1  0  0  0
 21 22  1  0  0  0
 22 23  1  0  0  0
 17 24  1  0  0  0
 24 25  1  0  0  0
 25 26  2  0  0  0
 26 27  1  0  0  0
 27 28  2  0  0  0
 16 11  1  0  0  0
  5  1  1  0  0  0
 23 18  1  0  0  0
 28 24  1  0  0  0
  8  9  1  0  0  0
M  END
> <minimizedAffinity>
-6.56808

> <CNNscore>
0.2786600888

> <CNNaffinity>
6.2947139740

> <CNN_VS>
1.7540855408

> <CNNaffinity_variance>
0.6519859433

$$$$
[H]c1c([H])c(C(=O)N([H])c2nnc(C([H])(n3nnnc3[H])C3([H])C([H])([H])C([H])([H])C([H])([H])C([H])([H])C3([H])[H])s2)c([H])c([H])c1F


 28 31  0  0  0  0  0  0  0  0999 V2000
   37.5708   14.8225  -13.8978 C   0  0  0  0  0  0  0  0  0  0  0  0
   38.6873   15.5357  -13.7776 N   0  0  0  0  0  0  0  0  0  0  0  0
   39.7322   15.1839  -14.3897 N   0  0  0  0  0  0  0  0  0  0  0  0
   39.7205   14.0992  -15.1565 C   0  0  0  0  0  0  0  0  0  0  0  0
   38.1014   13.5863  -14.9602 S   0  0  0  0  0  0  0  0  0  0  0  0
   36.1338   15.1703  -11.8937 C   0  0  0  0  0  0  0  0  0  0  0  0
   37.1684   15.0884  -11.1372 O   0  0  0  0  0  0  0  0  0  0  0  0
   36.2886   15.0416  -13.2981 N   0  0  0  0  0  0  0  0  0  0  0  0
   35.4656   15.1056  -13.9156 H   0  0  0  0  0  0  0  0  0  0  0  0
   31.2206   16.0144   -9.4217 F   0  0  0  0  0  0  0  0  0  0  0  0
   32.4092   15.8044  -10.0376 C   0  0  0  0  0  0  0  0  0  0  0  0
   32.4565   15.3724  -11.3426 C   0  0  0  0  0  0  0  0  0  0  0  0
   33.6939   15.1736  -11.9236 C   0  0  0  0  0  0  0  0  0  0  0  0
   34.8669   15.3912  -11.2471 C   0  0  0  0  0  0  0  0  0  0  0  0
   34.8063   15.8221   -9.9459 C   0  0  0  0  0  0  0  0  0  0  0  0
   33.5717   16.0358   -9.3195 C   0  0  0  0  0  0  0  0  0  0  0  0
   40.8483   13.5321  -15.9520 C   0  0  0  0  0  0  0  0  0  0  0  0
   41.8359   12.8940  -14.9850 C   0  0  0  0  0  0  0  0  0  0  0  0
   43.1214   12.5238  -15.6848 C   0  0  0  0  0  0  0  0  0  0  0  0
   44.0930   13.7101  -15.6651 C   0  0  0  0  0  0  0  0  0  0  0  0
   44.5393   13.8576  -14.2260 C   0  0  0  0  0  0  0  0  0  0  0  0
   43.4194   13.7687  -13.2443 C   0  0  0  0  0  0  0  0  0  0  0  0
   42.0521   13.8735  -13.8651 C   0  0  0  0  0  0  0  0  0  0  0  0
   40.3873   12.5975  -16.9586 N   0  0  0  0  0  0  0  0  0  0  0  0
   40.5522   12.7337  -18.2762 C   0  0  0  0  0  0  0  0  0  0  0  0
   39.9933   11.6751  -18.8638 N   0  0  0  0  0  0  0  0  0  0  0  0
   39.4883   10.8912  -17.9339 N   0  0  0  0  0  0  0  0  0  0  0  0
   39.7298   11.4574  -16.7601 N   0  0  0  0  0  0  0  0  0  0  0  0
 10 11  1  0  0  0
 11 12  2  0  0  0
 12 13  1  0  0  0
 13 14  2  0  0  0
 14 15  1  0  0  0
 15 16  2  0  0  0
 14  6  1  0  0  0
  6  7  2  0  0  0
  6  8  1  0  0  0
  8  1  1  0  0  0
  1  2  2  0  0  0
  2  3  1  0  0  0
  3  4  2  0  0  0
  4  5  1  0  0  0
  4 17  1  0  0  0
 17 18  1  0  0  0
 18 19  1  0  0  0
 19 20  1  0  0  0
 20 21  1  0  0  0
 21 22  1  0  0  0
 22 23  1  0  0  0
 17 24  1  0  0  0
 24 25  1  0  0  0
 25 26  2  0  0  0
 26 27  1  0  0  0
 27 28  2  0  0  0
 16 11  1  0  0  0
  5  1  1  0  0  0
 23 18  1  0  0  0
 28 24  1  0  0  0
  8  9  1  0  0  0
M  END
> <minimizedAffinity>
-7.30244

> <CNNscore>
0.2559162378

> <CNNaffinity>
6.2438097000

> <CNN_VS>
1.5978922844

> <CNNaffinity_variance>
0.3718215227

$$$$
[H]c1c([H])c(C(=O)N([H])c2nnc(C([H])(n3nnnc3[H])C3([H])C([H])([H])C([H])([H])C([H])([H])C([H])([H])C3([H])[H])s2)c([H])c([H])c1F


 28 31  0  0  0  0  0  0  0  0999 V2000
   44.4133   12.5128  -16.3363 C   0  0  0  0  0  0  0  0  0  0  0  0
   45.6776   12.2402  -16.6475 N   0  0  0  0  0  0  0  0  0  0  0  0
   46.6183   12.7641  -15.9911 N   0  0  0  0  0  0  0  0  0  0  0  0
   46.3487   13.5903  -14.9864 C   0  0  0  0  0  0  0  0  0  0  0  0
   44.6393   13.5872  -15.0199 S   0  0  0  0  0  0  0  0  0  0  0  0
   41.9283   12.4236  -16.4738 C   0  0  0  0  0  0  0  0  0  0  0  0
   41.8439   13.2293  -15.4772 O   0  0  0  0  0  0  0  0  0  0  0  0
   43.2085   12.0324  -16.9439 N   0  0  0  0  0  0  0  0  0  0  0  0
   43.2891   11.3862  -17.7430 H   0  0  0  0  0  0  0  0  0  0  0  0
   37.1325   10.6657  -18.6813 F   0  0  0  0  0  0  0  0  0  0  0  0
   38.2928   11.0963  -18.1292 C   0  0  0  0  0  0  0  0  0  0  0  0
   38.3371   11.4996  -16.8150 C   0  0  0  0  0  0  0  0  0  0  0  0
   39.5450   11.9297  -16.3010 C   0  0  0  0  0  0  0  0  0  0  0  0
   40.6918   11.9673  -17.0522 C   0  0  0  0  0  0  0  0  0  0  0  0
   40.6344   11.5624  -18.3619 C   0  0  0  0  0  0  0  0  0  0  0  0
   39.4292   11.1191  -18.9218 C   0  0  0  0  0  0  0  0  0  0  0  0
   47.3195   14.2986  -14.1020 C   0  0  0  0  0  0  0  0  0  0  0  0
   48.2925   13.2681  -13.5460 C   0  0  0  0  0  0  0  0  0  0  0  0
   49.2564   13.8999  -12.5708 C   0  0  0  0  0  0  0  0  0  0  0  0
   48.6616   13.8858  -11.1573 C   0  0  0  0  0  0  0  0  0  0  0  0
   48.6633   12.4363  -10.7204 C   0  0  0  0  0  0  0  0  0  0  0  0
   48.1669   11.4987  -11.7694 C   0  0  0  0  0  0  0  0  0  0  0  0
   47.4692   12.1787  -12.9169 C   0  0  0  0  0  0  0  0  0  0  0  0
   47.9995   15.3750  -14.7936 N   0  0  0  0  0  0  0  0  0  0  0  0
   47.7172   16.6741  -14.6730 C   0  0  0  0  0  0  0  0  0  0  0  0
   48.5564   17.3439  -15.4636 N   0  0  0  0  0  0  0  0  0  0  0  0
   49.3487   16.4827  -16.0677 N   0  0  0  0  0  0  0  0  0  0  0  0
   49.0074   15.2698  -15.6565 N   0  0  0  0  0  0  0  0  0  0  0  0
 10 11  1  0  0  0
 11 12  2  0  0  0
 12 13  1  0  0  0
 13 14  2  0  0  0
 14 15  1  0  0  0
 15 16  2  0  0  0
 14  6  1  0  0  0
  6  7  2  0  0  0
  6  8  1  0  0  0
  8  1  1  0  0  0
  1  2  2  0  0  0
  2  3  1  0  0  0
  3  4  2  0  0  0
  4  5  1  0  0  0
  4 17  1  0  0  0
 17 18  1  0  0  0
 18 19  1  0  0  0
 19 20  1  0  0  0
 20 21  1  0  0  0
 21 22  1  0  0  0
 22 23  1  0  0  0
 17 24  1  0  0  0
 24 25  1  0  0  0
 25 26  2  0  0  0
 26 27  1  0  0  0
 27 28  2  0  0  0
 16 11  1  0  0  0
  5  1  1  0  0  0
 23 18  1  0  0  0
 28 24  1  0  0  0
  8  9  1  0  0  0
M  END
> <minimizedAffinity>
-7.14927

> <CNNscore>
0.2382910848

> <CNNaffinity>
5.6939091682

> <CNN_VS>
1.3568078279

> <CNNaffinity_variance>
0.1395740956

$$$$
[H]c1c([H])c(C(=O)N([H])c2nnc(C([H])(n3nnnc3[H])C3([H])C([H])([H])C([H])([H])C([H])([H])C([H])([H])C3([H])[H])s2)c([H])c([H])c1F


 28 31  0  0  0  0  0  0  0  0999 V2000
   42.0438   13.3441  -15.2666 C   0  0  0  0  0  0  0  0  0  0  0  0
   42.9380   13.6348  -16.2076 N   0  0  0  0  0  0  0  0  0  0  0  0
   44.1085   13.9759  -15.8850 N   0  0  0  0  0  0  0  0  0  0  0  0
   44.4515   14.0459  -14.6036 C   0  0  0  0  0  0  0  0  0  0  0  0
   42.9842   13.5889  -13.8544 S   0  0  0  0  0  0  0  0  0  0  0  0
   40.2256   12.2324  -16.5552 C   0  0  0  0  0  0  0  0  0  0  0  0
   41.0612   11.9458  -17.4875 O   0  0  0  0  0  0  0  0  0  0  0  0
   40.6774   12.9397  -15.4113 N   0  0  0  0  0  0  0  0  0  0  0  0
   40.0162   13.1755  -14.6564 H   0  0  0  0  0  0  0  0  0  0  0  0
   34.9519   10.6030  -17.2591 F   0  0  0  0  0  0  0  0  0  0  0  0
   36.2315   11.0092  -17.0748 C   0  0  0  0  0  0  0  0  0  0  0  0
   36.5504   11.8871  -16.0652 C   0  0  0  0  0  0  0  0  0  0  0  0
   37.8699   12.2694  -15.9204 C   0  0  0  0  0  0  0  0  0  0  0  0
   38.8639   11.8059  -16.7438 C   0  0  0  0  0  0  0  0  0  0  0  0
   38.5329   10.9306  -17.7471 C   0  0  0  0  0  0  0  0  0  0  0  0
   37.2066   10.5177  -17.9281 C   0  0  0  0  0  0  0  0  0  0  0  0
   45.7770   14.4255  -14.0334 C   0  0  0  0  0  0  0  0  0  0  0  0
   45.5337   15.3021  -12.8126 C   0  0  0  0  0  0  0  0  0  0  0  0
   46.8224   15.5821  -12.0777 C   0  0  0  0  0  0  0  0  0  0  0  0
   47.4994   16.8302  -12.6573 C   0  0  0  0  0  0  0  0  0  0  0  0
   46.6323   18.0014  -12.2471 C   0  0  0  0  0  0  0  0  0  0  0  0
   45.1736   17.7594  -12.4460 C   0  0  0  0  0  0  0  0  0  0  0  0
   44.8636   16.5574  -13.2975 C   0  0  0  0  0  0  0  0  0  0  0  0
   46.5866   13.2654  -13.7207 N   0  0  0  0  0  0  0  0  0  0  0  0
   47.7853   12.9936  -14.2414 C   0  0  0  0  0  0  0  0  0  0  0  0
   48.2056   11.8460  -13.7080 N   0  0  0  0  0  0  0  0  0  0  0  0
   47.2894   11.4071  -12.8701 N   0  0  0  0  0  0  0  0  0  0  0  0
   46.2917   12.2796  -12.8765 N   0  0  0  0  0  0  0  0  0  0  0  0
 10 11  1  0  0  0
 11 12  2  0  0  0
 12 13  1  0  0  0
 13 14  2  0  0  0
 14 15  1  0  0  0
 15 16  2  0  0  0
 14  6  1  0  0  0
  6  7  2  0  0  0
  6  8  1  0  0  0
  8  1  1  0  0  0
  1  2  2  0  0  0
  2  3  1  0  0  0
  3  4  2  0  0  0
  4  5  1  0  0  0
  4 17  1  0  0  0
 17 18  1  0  0  0
 18 19  1  0  0  0
 19 20  1  0  0  0
 20 21  1  0  0  0
 21 22  1  0  0  0
 22 23  1  0  0  0
 17 24  1  0  0  0
 24 25  1  0  0  0
 25 26  2  0  0  0
 26 27  1  0  0  0
 27 28  2  0  0  0
 16 11  1  0  0  0
  5  1  1  0  0  0
 23 18  1  0  0  0
 28 24  1  0  0  0
  8  9  1  0  0  0
M  END
> <minimizedAffinity>
-7.81043

> <CNNscore>
0.2373129129

> <CNNaffinity>
5.9852170944

> <CNN_VS>
1.4203692675

> <CNNaffinity_variance>
0.0497969724

$$$$
[H]c1c([H])c(C(=O)N([H])c2nnc(C([H])(n3nnnc3[H])C3([H])C([H])([H])C([H])([H])C([H])([H])C([H])([H])C3([H])[H])s2)c([H])c([H])c1F


 28 31  0  0  0  0  0  0  0  0999 V2000
   43.0103   13.0792  -15.5629 C   0  0  0  0  0  0  0  0  0  0  0  0
   43.2634   13.7051  -14.4167 N   0  0  0  0  0  0  0  0  0  0  0  0
   44.4360   14.0828  -14.1471 N   0  0  0  0  0  0  0  0  0  0  0  0
   45.4222   13.8562  -15.0078 C   0  0  0  0  0  0  0  0  0  0  0  0
   44.5765   13.0550  -16.2592 S   0  0  0  0  0  0  0  0  0  0  0  0
   40.5383   12.8253  -15.3982 C   0  0  0  0  0  0  0  0  0  0  0  0
   40.5378   13.5263  -14.3220 O   0  0  0  0  0  0  0  0  0  0  0  0
   41.7668   12.5725  -16.0614 N   0  0  0  0  0  0  0  0  0  0  0  0
   41.7800   12.0113  -16.9260 H   0  0  0  0  0  0  0  0  0  0  0  0
   35.6345   10.9214  -17.2119 F   0  0  0  0  0  0  0  0  0  0  0  0
   36.8364   11.3761  -16.7818 C   0  0  0  0  0  0  0  0  0  0  0  0
   38.0004   10.9612  -17.3858 C   0  0  0  0  0  0  0  0  0  0  0  0
   39.1992   11.4548  -16.9089 C   0  0  0  0  0  0  0  0  0  0  0  0
   39.2659   12.3377  -15.8615 C   0  0  0  0  0  0  0  0  0  0  0  0
   38.0976   12.7439  -15.2676 C   0  0  0  0  0  0  0  0  0  0  0  0
   36.8608   12.2672  -15.7208 C   0  0  0  0  0  0  0  0  0  0  0  0
   46.8605   14.2267  -14.8654 C   0  0  0  0  0  0  0  0  0  0  0  0
   46.9567   15.3790  -13.8751 C   0  0  0  0  0  0  0  0  0  0  0  0
   48.3958   15.7509  -13.6105 C   0  0  0  0  0  0  0  0  0  0  0  0
   48.8702   16.7864  -14.6375 C   0  0  0  0  0  0  0  0  0  0  0  0
   48.1382   18.0686  -14.3029 C   0  0  0  0  0  0  0  0  0  0  0  0
   46.6848   17.8698  -14.0313 C   0  0  0  0  0  0  0  0  0  0  0  0
   46.1637   16.5204  -14.4480 C   0  0  0  0  0  0  0  0  0  0  0  0
   47.6763   13.0966  -14.4702 N   0  0  0  0  0  0  0  0  0  0  0  0
   47.6069   12.4631  -13.2972 C   0  0  0  0  0  0  0  0  0  0  0  0
   48.5121   11.4841  -13.3137 N   0  0  0  0  0  0  0  0  0  0  0  0
   49.1364   11.5032  -14.4731 N   0  0  0  0  0  0  0  0  0  0  0  0
   48.6233   12.4953  -15.1866 N   0  0  0  0  0  0  0  0  0  0  0  0
 10 11  1  0  0  0
 11 12  2  0  0  0
 12 13  1  0  0  0
 13 14  2  0  0  0
 14 15  1  0  0  0
 15 16  2  0  0  0
 14  6  1  0  0  0
  6  7  2  0  0  0
  6  8  1  0  0  0
  8  1  1  0  0  0
  1  2  2  0  0  0
  2  3  1  0  0  0
  3  4  2  0  0  0
  4  5  1  0  0  0
  4 17  1  0  0  0
 17 18  1  0  0  0
 18 19  1  0  0  0
 19 20  1  0  0  0
 20 21  1  0  0  0
 21 22  1  0  0  0
 22 23  1  0  0  0
 17 24  1  0  0  0
 24 25  1  0  0  0
 25 26  2  0  0  0
 26 27  1  0  0  0
 27 28  2  0  0  0
 16 11  1  0  0  0
  5  1  1  0  0  0
 23 18  1  0  0  0
 28 24  1  0  0  0
  8  9  1  0  0  0
M  END
> <minimizedAffinity>
-7.53559

> <CNNscore>
0.1527015269

> <CNNaffinity>
5.7975363731

> <CNN_VS>
0.8852926493

> <CNNaffinity_variance>
0.1385915130

$$$$
[H]c1c([H])c(C(=O)N([H])c2nnc(C([H])(n3nnnc3[H])C3([H])C([H])([H])C([H])([H])C([H])([H])C([H])([H])C3([H])[H])s2)c([H])c([H])c1F


 28 31  0  0  0  0  0  0  0  0999 V2000
   36.1499   14.2300  -11.8546 C   0  0  0  0  0  0  0  0  0  0  0  0
   36.2325   15.1156  -12.8438 N   0  0  0  0  0  0  0  0  0  0  0  0
   36.5670   14.7428  -14.0012 N   0  0  0  0  0  0  0  0  0  0  0  0
   36.8379   13.4636  -14.2355 C   0  0  0  0  0  0  0  0  0  0  0  0
   36.5866   12.7939  -12.6825 S   0  0  0  0  0  0  0  0  0  0  0  0
   36.7588   14.7909   -9.5058 C   0  0  0  0  0  0  0  0  0  0  0  0
   37.9863   14.9302   -9.8570 O   0  0  0  0  0  0  0  0  0  0  0  0
   35.7931   14.4367  -10.4830 N   0  0  0  0  0  0  0  0  0  0  0  0
   34.8047   14.3220  -10.2133 H   0  0  0  0  0  0  0  0  0  0  0  0
   35.5361   15.6600   -4.1474 F   0  0  0  0  0  0  0  0  0  0  0  0
   35.8254   15.4621   -5.4564 C   0  0  0  0  0  0  0  0  0  0  0  0
   35.3686   16.3354   -6.4157 C   0  0  0  0  0  0  0  0  0  0  0  0
   35.6918   16.0879   -7.7358 C   0  0  0  0  0  0  0  0  0  0  0  0
   36.4471   15.0087   -8.1176 C   0  0  0  0  0  0  0  0  0  0  0  0
   36.8968   14.1449   -7.1511 C   0  0  0  0  0  0  0  0  0  0  0  0
   36.5914   14.3598   -5.8010 C   0  0  0  0  0  0  0  0  0  0  0  0
   37.2451   12.8391  -15.5279 C   0  0  0  0  0  0  0  0  0  0  0  0
   38.6011   12.1768  -15.3272 C   0  0  0  0  0  0  0  0  0  0  0  0
   39.0277   11.4236  -16.5642 C   0  0  0  0  0  0  0  0  0  0  0  0
   39.7877   12.3571  -17.5142 C   0  0  0  0  0  0  0  0  0  0  0  0
   41.1117   12.6476  -16.8400 C   0  0  0  0  0  0  0  0  0  0  0  0
   40.9816   12.9717  -15.3896 C   0  0  0  0  0  0  0  0  0  0  0  0
   39.5710   13.2625  -14.9519 C   0  0  0  0  0  0  0  0  0  0  0  0
   36.2494   11.9083  -16.0193 N   0  0  0  0  0  0  0  0  0  0  0  0
   34.9748   11.8578  -15.6260 C   0  0  0  0  0  0  0  0  0  0  0  0
   34.3827   10.8738  -16.3039 N   0  0  0  0  0  0  0  0  0  0  0  0
   35.2677   10.3186  -17.1056 N   0  0  0  0  0  0  0  0  0  0  0  0
   36.4178   10.9541  -16.9318 N   0  0  0  0  0  0  0  0  0  0  0  0
 10 11  1  0  0  0
 11 12  2  0  0  0
 12 13  1  0  0  0
 13 14  2  0  0  0
 14 15  1  0  0  0
 15 16  2  0  0  0
 14  6  1  0  0  0
  6  7  2  0  0  0
  6  8  1  0  0  0
  8  1  1  0  0  0
  1  2  2  0  0  0
  2  3  1  0  0  0
  3  4  2  0  0  0
  4  5  1  0  0  0
  4 17  1  0  0  0
 17 18  1  0  0  0
 18 19  1  0  0  0
 19 20  1  0  0  0
 20 21  1  0  0  0
 21 22  1  0  0  0
 22 23  1  0  0  0
 17 24  1  0  0  0
 24 25  1  0  0  0
 25 26  2  0  0  0
 26 27  1  0  0  0
 27 28  2  0  0  0
 16 11  1  0  0  0
  5  1  1  0  0  0
 23 18  1  0  0  0
 28 24  1  0  0  0
  8  9  1  0  0  0
M  END
> <minimizedAffinity>
-8.00705

> <CNNscore>
0.1473886371

> <CNNaffinity>
6.0495424271

> <CNN_VS>
0.8916338086

> <CNNaffinity_variance>
0.4941910803

$$$$
[H]c1c([H])c(C(=O)N([H])c2nnc(C([H])(n3nnnc3[H])C3([H])C([H])([H])C([H])([H])C([H])([H])C([H])([H])C3([H])[H])s2)c([H])c([H])c1F


 28 31  0  0  0  0  0  0  0  0999 V2000
   37.6765   15.0039  -12.3523 C   0  0  0  0  0  0  0  0  0  0  0  0
   37.3612   13.7133  -12.2851 N   0  0  0  0  0  0  0  0  0  0  0  0
   37.8791   12.8922  -13.0900 N   0  0  0  0  0  0  0  0  0  0  0  0
   38.7415   13.3146  -14.0079 C   0  0  0  0  0  0  0  0  0  0  0  0
   38.7830   14.9883  -13.6615 S   0  0  0  0  0  0  0  0  0  0  0  0
   37.8514   16.4477  -10.3307 C   0  0  0  0  0  0  0  0  0  0  0  0
   38.8759   15.7784   -9.9409 O   0  0  0  0  0  0  0  0  0  0  0  0
   37.2108   16.0920  -11.5456 N   0  0  0  0  0  0  0  0  0  0  0  0
   36.3878   16.6217  -11.8689 H   0  0  0  0  0  0  0  0  0  0  0  0
   36.1596   20.6202   -7.0610 F   0  0  0  0  0  0  0  0  0  0  0  0
   36.5597   19.5944   -7.8509 C   0  0  0  0  0  0  0  0  0  0  0  0
   35.9223   18.3768   -7.7961 C   0  0  0  0  0  0  0  0  0  0  0  0
   36.3696   17.3642   -8.6224 C   0  0  0  0  0  0  0  0  0  0  0  0
   37.4198   17.5321   -9.4884 C   0  0  0  0  0  0  0  0  0  0  0  0
   38.0472   18.7515   -9.5336 C   0  0  0  0  0  0  0  0  0  0  0  0
   37.6247   19.8047   -8.7123 C   0  0  0  0  0  0  0  0  0  0  0  0
   39.4517   12.4993  -15.0362 C   0  0  0  0  0  0  0  0  0  0  0  0
   38.6855   12.6180  -16.3463 C   0  0  0  0  0  0  0  0  0  0  0  0
   39.3567   11.8271  -17.4433 C   0  0  0  0  0  0  0  0  0  0  0  0
   38.8421   10.3824  -17.4423 C   0  0  0  0  0  0  0  0  0  0  0  0
   37.4087   10.4518  -17.9245 C   0  0  0  0  0  0  0  0  0  0  0  0
   36.6197   11.5461  -17.2877 C   0  0  0  0  0  0  0  0  0  0  0  0
   37.2808   12.1535  -16.0794 C   0  0  0  0  0  0  0  0  0  0  0  0
   40.8394   12.8912  -15.1770 N   0  0  0  0  0  0  0  0  0  0  0  0
   41.5261   12.9136  -16.3215 C   0  0  0  0  0  0  0  0  0  0  0  0
   42.7624   13.3276  -16.0417 N   0  0  0  0  0  0  0  0  0  0  0  0
   42.8493   13.5600  -14.7484 N   0  0  0  0  0  0  0  0  0  0  0  0
   41.6663   13.2919  -14.2141 N   0  0  0  0  0  0  0  0  0  0  0  0
 10 11  1  0  0  0
 11 12  2  0  0  0
 12 13  1  0  0  0
 13 14  2  0  0  0
 14 15  1  0  0  0
 15 16  2  0  0  0
 14  6  1  0  0  0
  6  7  2  0  0  0
  6  8  1  0  0  0
  8  1  1  0  0  0
  1  2  2  0  0  0
  2  3  1  0  0  0
  3  4  2  0  0  0
  4  5  1  0  0  0
  4 17  1  0  0  0
 17 18  1  0  0  0
 18 19  1  0  0  0
 19 20  1  0  0  0
 20 21  1  0  0  0
 21 22  1  0  0  0
 22 23  1  0  0  0
 17 24  1  0  0  0
 24 25  1  0  0  0
 25 26  2  0  0  0
 26 27  1  0  0  0
 27 28  2  0  0  0
 16 11  1  0  0  0
  5  1  1  0  0  0
 23 18  1  0  0  0
 28 24  1  0  0  0
  8  9  1  0  0  0
M  END
> <minimizedAffinity>
-7.51284

> <CNNscore>
0.1349521428

> <CNNaffinity>
5.9494156837

> <CNN_VS>
0.8028863668

> <CNNaffinity_variance>
0.4236172736

$$$$
[H]c1c([H])c(C(=O)N([H])c2nnc(C([H])(n3nnnc3[H])C3([H])C([H])([H])C([H])([H])C([H])([H])C([H])([H])C3([H])[H])s2)c([H])c([H])c1F


 28 31  0  0  0  0  0  0  0  0999 V2000
   42.5880   13.2244  -15.3596 C   0  0  0  0  0  0  0  0  0  0  0  0
   43.5908   13.7484  -16.0592 N   0  0  0  0  0  0  0  0  0  0  0  0
   44.5362   14.3367  -15.4674 N   0  0  0  0  0  0  0  0  0  0  0  0
   44.5329   14.4349  -14.1426 C   0  0  0  0  0  0  0  0  0  0  0  0
   43.0751   13.6249  -13.7656 S   0  0  0  0  0  0  0  0  0  0  0  0
   40.1210   13.0411  -15.6469 C   0  0  0  0  0  0  0  0  0  0  0  0
   39.9675   14.1687  -15.0516 O   0  0  0  0  0  0  0  0  0  0  0  0
   41.4295   12.5227  -15.8256 N   0  0  0  0  0  0  0  0  0  0  0  0
   41.5655   11.6187  -16.3020 H   0  0  0  0  0  0  0  0  0  0  0  0
   35.4949   10.4724  -17.3686 F   0  0  0  0  0  0  0  0  0  0  0  0
   36.6127   11.1058  -16.9376 C   0  0  0  0  0  0  0  0  0  0  0  0
   36.5556   11.9938  -15.8889 C   0  0  0  0  0  0  0  0  0  0  0  0
   37.7240   12.6127  -15.4887 C   0  0  0  0  0  0  0  0  0  0  0  0
   38.9289   12.3724  -16.0981 C   0  0  0  0  0  0  0  0  0  0  0  0
   38.9726   11.4844  -17.1431 C   0  0  0  0  0  0  0  0  0  0  0  0
   37.8105   10.8354  -17.5800 C   0  0  0  0  0  0  0  0  0  0  0  0
   45.5555   15.0870  -13.2735 C   0  0  0  0  0  0  0  0  0  0  0  0
   46.7880   14.1940  -13.2409 C   0  0  0  0  0  0  0  0  0  0  0  0
   47.7490   14.6314  -12.1618 C   0  0  0  0  0  0  0  0  0  0  0  0
   47.3984   13.9478  -10.8346 C   0  0  0  0  0  0  0  0  0  0  0  0
   47.7554   12.4874  -11.0127 C   0  0  0  0  0  0  0  0  0  0  0  0
   47.2957   11.9174  -12.3125 C   0  0  0  0  0  0  0  0  0  0  0  0
   46.3058   12.7837  -13.0444 C   0  0  0  0  0  0  0  0  0  0  0  0
   45.8661   16.4316  -13.7149 N   0  0  0  0  0  0  0  0  0  0  0  0
   45.2926   17.5483  -13.2610 C   0  0  0  0  0  0  0  0  0  0  0  0
   45.8438   18.5759  -13.9078 N   0  0  0  0  0  0  0  0  0  0  0  0
   46.7443   18.1133  -14.7499 N   0  0  0  0  0  0  0  0  0  0  0  0
   46.7596   16.7931  -14.6327 N   0  0  0  0  0  0  0  0  0  0  0  0
 10 11  1  0  0  0
 11 12  2  0  0  0
 12 13  1  0  0  0
 13 14  2  0  0  0
 14 15  1  0  0  0
 15 16  2  0  0  0
 14  6  1  0  0  0
  6  7  2  0  0  0
  6  8  1  0  0  0
  8  1  1  0  0  0
  1  2  2  0  0  0
  2  3  1  0  0  0
  3  4  2  0  0  0
  4  5  1  0  0  0
  4 17  1  0  0  0
 17 18  1  0  0  0
 18 19  1  0  0  0
 19 20  1  0  0  0
 20 21  1  0  0  0
 21 22  1  0  0  0
 22 23  1  0  0  0
 17 24  1  0  0  0
 24 25  1  0  0  0
 25 26  2  0  0  0
 26 27  1  0  0  0
 27 28  2  0  0  0
 16 11  1  0  0  0
  5  1  1  0  0  0
 23 18  1  0  0  0
 28 24  1  0  0  0
  8  9  1  0  0  0
M  END
> <minimizedAffinity>
-7.60009

> <CNNscore>
0.1335973740

> <CNNaffinity>
5.7128648758

> <CNN_VS>
0.7632237673

> <CNNaffinity_variance>
0.1258737743

$$$$
[H]OC(=O)[C@]1([H])O[C@@]([H])(n2c([H])nc3c(N([H])[H])nc([H])nc32)[C@@]([H])(O[H])[C@@]1([H])O[H]


 25 27  0  0  0  0  0  0  0  0999 V2000
   37.9572   12.6521  -13.9485 C   0  0  0  0  0  0  0  0  0  0  0  0
   36.6564   12.9525  -13.6468 O   0  0  0  0  0  0  0  0  0  0  0  0
   36.6011   14.1555  -12.9960 C   0  0  0  0  0  0  0  0  0  0  0  0
   38.0054   14.3808  -12.4202 C   0  0  0  0  0  0  0  0  0  0  0  0
   38.2565   15.6947  -12.1453 O   0  0  0  0  0  0  0  0  0  0  0  0
   38.8023   13.8692  -13.6305 C   0  0  0  0  0  0  0  0  0  0  0  0
   38.6593   14.8086  -14.6496 O   0  0  0  0  0  0  0  0  0  0  0  0
   38.5946   15.7393  -11.1952 H   0  0  0  0  0  0  0  0  0  0  0  0
   37.9817   14.5523  -15.3136 H   0  0  0  0  0  0  0  0  0  0  0  0
   39.5006   10.8675  -19.5306 N   0  0  0  0  0  0  0  0  0  0  0  0
   39.8812   11.4516  -18.2911 C   0  0  0  0  0  0  0  0  0  0  0  0
   41.1267   11.8793  -18.0252 N   0  0  0  0  0  0  0  0  0  0  0  0
   41.4140   12.4223  -16.8287 C   0  0  0  0  0  0  0  0  0  0  0  0
   40.4798   12.5622  -15.8516 N   0  0  0  0  0  0  0  0  0  0  0  0
   39.2302   12.1546  -16.0636 C   0  0  0  0  0  0  0  0  0  0  0  0
   38.1500   12.1762  -15.2920 N   0  0  0  0  0  0  0  0  0  0  0  0
   37.1390   11.6272  -16.0235 C   0  0  0  0  0  0  0  0  0  0  0  0
   37.6149   11.2788  -17.2291 N   0  0  0  0  0  0  0  0  0  0  0  0
   38.9205   11.5952  -17.2872 C   0  0  0  0  0  0  0  0  0  0  0  0
   39.4836    9.8305  -19.6416 H   0  0  0  0  0  0  0  0  0  0  0  0
   39.2399   11.4886  -20.3237 H   0  0  0  0  0  0  0  0  0  0  0  0
   35.5683   14.2469  -11.9660 C   0  0  0  0  0  0  0  0  0  0  0  0
   35.8814   13.9855  -10.6520 O   0  0  0  0  0  0  0  0  0  0  0  0
   34.3980   14.5654  -12.2938 O   0  0  0  0  0  0  0  0  0  0  0  0
   35.5921   13.0657  -10.2902 H   0  0  0  0  0  0  0  0  0  0  0  0
 10 11  1  0  0  0
 11 12  2  0  0  0
 12 13  1  0  0  0
 13 14  2  0  0  0
 14 15  1  0  0  0
 15 16  1  0  0  0
 16 17  1  0  0  0
 17 18  2  0  0  0
 18 19  1  0  0  0
 16  1  1  0  0  0
  1  2  1  0  0  0
  2  3  1  0  0  0
  3  4  1  0  0  0
  4  5  1  0  0  0
  4  6  1  0  0  0
  6  7  1  0  0  0
  3 22  1  0  0  0
 22 23  1  0  0  0
 22 24  2  0  0  0
 19 11  1  0  0  0
  6  1  1  0  0  0
 19 15  2  0  0  0
 10 20  1  0  0  0
 10 21  1  0  0  0
  5  8  1  0  0  0
  7  9  1  0  0  0
 23 25  1  0  0  0
M  END
> <minimizedAffinity>
-7.35036

> <CNNscore>
0.7726088762

> <CNNaffinity>
5.2212705612

> <CNN_VS>
4.0339999199

> <CNNaffinity_variance>
0.3064146340

$$$$
[H]OC(=O)[C@]1([H])O[C@@]([H])(n2c([H])nc3c(N([H])[H])nc([H])nc32)[C@@]([H])(O[H])[C@@]1([H])O[H]


 25 27  0  0  0  0  0  0  0  0999 V2000
   36.6006   12.2989  -14.4354 C   0  0  0  0  0  0  0  0  0  0  0  0
   35.9164   11.6792  -15.4459 O   0  0  0  0  0  0  0  0  0  0  0  0
   34.6724   12.2368  -15.5686 C   0  0  0  0  0  0  0  0  0  0  0  0
   34.3866   12.9146  -14.2221 C   0  0  0  0  0  0  0  0  0  0  0  0
   33.4254   13.8803  -14.3128 O   0  0  0  0  0  0  0  0  0  0  0  0
   35.7890   13.4990  -13.9907 C   0  0  0  0  0  0  0  0  0  0  0  0
   35.9628   14.5368  -14.9039 O   0  0  0  0  0  0  0  0  0  0  0  0
   32.7430   13.6877  -13.5944 H   0  0  0  0  0  0  0  0  0  0  0  0
   36.4857   14.2694  -15.6918 H   0  0  0  0  0  0  0  0  0  0  0  0
   42.2185   13.2966  -16.4779 N   0  0  0  0  0  0  0  0  0  0  0  0
   40.9520   12.6743  -16.6549 C   0  0  0  0  0  0  0  0  0  0  0  0
   40.6498   11.8960  -17.7072 N   0  0  0  0  0  0  0  0  0  0  0  0
   39.4293   11.3396  -17.8083 C   0  0  0  0  0  0  0  0  0  0  0  0
   38.4635   11.5329  -16.8720 N   0  0  0  0  0  0  0  0  0  0  0  0
   38.7111   12.2957  -15.8092 C   0  0  0  0  0  0  0  0  0  0  0  0
   37.9574   12.6380  -14.7713 N   0  0  0  0  0  0  0  0  0  0  0  0
   38.7255   13.4409  -13.9814 C   0  0  0  0  0  0  0  0  0  0  0  0
   39.9351   13.5775  -14.5467 N   0  0  0  0  0  0  0  0  0  0  0  0
   39.9596   12.8733  -15.6921 C   0  0  0  0  0  0  0  0  0  0  0  0
   42.3680   14.2834  -16.7811 H   0  0  0  0  0  0  0  0  0  0  0  0
   42.9922   12.7540  -16.0424 H   0  0  0  0  0  0  0  0  0  0  0  0
   33.6157   11.2988  -15.9422 C   0  0  0  0  0  0  0  0  0  0  0  0
   32.9042   10.6393  -14.9665 O   0  0  0  0  0  0  0  0  0  0  0  0
   33.3666   11.1038  -17.1580 O   0  0  0  0  0  0  0  0  0  0  0  0
   33.1628    9.6562  -14.8017 H   0  0  0  0  0  0  0  0  0  0  0  0
 10 11  1  0  0  0
 11 12  2  0  0  0
 12 13  1  0  0  0
 13 14  2  0  0  0
 14 15  1  0  0  0
 15 16  1  0  0  0
 16 17  1  0  0  0
 17 18  2  0  0  0
 18 19  1  0  0  0
 16  1  1  0  0  0
  1  2  1  0  0  0
  2  3  1  0  0  0
  3  4  1  0  0  0
  4  5  1  0  0  0
  4  6  1  0  0  0
  6  7  1  0  0  0
  3 22  1  0  0  0
 22 23  1  0  0  0
 22 24  2  0  0  0
 19 11  1  0  0  0
  6  1  1  0  0  0
 19 15  2  0  0  0
 10 20  1  0  0  0
 10 21  1  0  0  0
  5  8  1  0  0  0
  7  9  1  0  0  0
 23 25  1  0  0  0
M  END
> <minimizedAffinity>
-7.78901

> <CNNscore>
0.7545358539

> <CNNaffinity>
5.4426870346

> <CNN_VS>
4.1067023277

> <CNNaffinity_variance>
0.1999317706

$$$$
[H]OC(=O)[C@]1([H])O[C@@]([H])(n2c([H])nc3c(N([H])[H])nc([H])nc32)[C@@]([H])(O[H])[C@@]1([H])O[H]


 25 27  0  0  0  0  0  0  0  0999 V2000
   37.5465   13.6966  -14.6494 C   0  0  0  0  0  0  0  0  0  0  0  0
   37.3603   14.6871  -13.7234 O   0  0  0  0  0  0  0  0  0  0  0  0
   36.4730   14.2651  -12.7704 C   0  0  0  0  0  0  0  0  0  0  0  0
   35.6815   13.1211  -13.4178 C   0  0  0  0  0  0  0  0  0  0  0  0
   35.0926   12.3022  -12.4973 O   0  0  0  0  0  0  0  0  0  0  0  0
   36.8589   12.4463  -14.1390 C   0  0  0  0  0  0  0  0  0  0  0  0
   37.6551   11.8476  -13.1648 O   0  0  0  0  0  0  0  0  0  0  0  0
   34.1200   12.2186  -12.7544 H   0  0  0  0  0  0  0  0  0  0  0  0
   38.4427   12.3864  -12.9304 H   0  0  0  0  0  0  0  0  0  0  0  0
   43.0864   12.3606  -16.7116 N   0  0  0  0  0  0  0  0  0  0  0  0
   41.6756   12.2639  -16.8629 C   0  0  0  0  0  0  0  0  0  0  0  0
   41.0824   11.6101  -17.8754 N   0  0  0  0  0  0  0  0  0  0  0  0
   39.7405   11.5603  -17.9541 C   0  0  0  0  0  0  0  0  0  0  0  0
   38.9367   12.1553  -17.0338 N   0  0  0  0  0  0  0  0  0  0  0  0
   39.4737   12.8161  -16.0104 C   0  0  0  0  0  0  0  0  0  0  0  0
   38.9245   13.4723  -14.9953 N   0  0  0  0  0  0  0  0  0  0  0  0
   39.9535   13.9570  -14.2437 C   0  0  0  0  0  0  0  0  0  0  0  0
   41.1143   13.5910  -14.8091 N   0  0  0  0  0  0  0  0  0  0  0  0
   40.8499   12.8757  -15.9167 C   0  0  0  0  0  0  0  0  0  0  0  0
   43.5983   13.1982  -17.0643 H   0  0  0  0  0  0  0  0  0  0  0  0
   43.5994   11.5850  -16.2449 H   0  0  0  0  0  0  0  0  0  0  0  0
   35.5938   15.3091  -12.2479 C   0  0  0  0  0  0  0  0  0  0  0  0
   36.0634   16.5938  -12.0993 O   0  0  0  0  0  0  0  0  0  0  0  0
   34.4110   15.0204  -11.9383 O   0  0  0  0  0  0  0  0  0  0  0  0
   36.3061   16.8809  -11.1405 H   0  0  0  0  0  0  0  0  0  0  0  0
 10 11  1  0  0  0
 11 12  2  0  0  0
 12 13  1  0  0  0
 13 14  2  0  0  0
 14 15  1  0  0  0
 15 16  1  0  0  0
 16 17  1  0  0  0
 17 18  2  0  0  0
 18 19  1  0  0  0
 16  1  1  0  0  0
  1  2  1  0  0  0
  2  3  1  0  0  0
  3  4  1  0  0  0
  4  5  1  0  0  0
  4  6  1  0  0  0
  6  7  1  0  0  0
  3 22  1  0  0  0
 22 23  1  0  0  0
 22 24  2  0  0  0
 19 11  1  0  0  0
  6  1  1  0  0  0
 19 15  2  0  0  0
 10 20  1  0  0  0
 10 21  1  0  0  0
  5  8  1  0  0  0
  7  9  1  0  0  0
 23 25  1  0  0  0
M  END
> <minimizedAffinity>
-7.40936

> <CNNscore>
0.4177933633

> <CNNaffinity>
4.5768923759

> <CNN_VS>
1.9121952057

> <CNNaffinity_variance>
0.5579006076

$$$$
[H]OC(=O)[C@]1([H])O[C@@]([H])(n2c([H])nc3c(N([H])[H])nc([H])nc32)[C@@]([H])(O[H])[C@@]1([H])O[H]


 25 27  0  0  0  0  0  0  0  0999 V2000
   36.9956   13.0140  -13.7480 C   0  0  0  0  0  0  0  0  0  0  0  0
   35.6912   13.0774  -14.1576 O   0  0  0  0  0  0  0  0  0  0  0  0
   35.1179   14.2296  -13.6910 C   0  0  0  0  0  0  0  0  0  0  0  0
   35.9812   14.6706  -12.5016 C   0  0  0  0  0  0  0  0  0  0  0  0
   35.8391   15.9974  -12.2119 O   0  0  0  0  0  0  0  0  0  0  0  0
   37.3512   14.3454  -13.1174 C   0  0  0  0  0  0  0  0  0  0  0  0
   37.5887   15.2820  -14.1213 O   0  0  0  0  0  0  0  0  0  0  0  0
   35.6396   16.0654  -11.2247 H   0  0  0  0  0  0  0  0  0  0  0  0
   37.3910   14.9376  -15.0202 H   0  0  0  0  0  0  0  0  0  0  0  0
   40.2649   11.0500  -18.4578 N   0  0  0  0  0  0  0  0  0  0  0  0
   39.0040   11.1448  -17.8068 C   0  0  0  0  0  0  0  0  0  0  0  0
   37.8730   10.6159  -18.3024 N   0  0  0  0  0  0  0  0  0  0  0  0
   36.7151   10.7452  -17.6303 C   0  0  0  0  0  0  0  0  0  0  0  0
   36.6339   11.4024  -16.4435 N   0  0  0  0  0  0  0  0  0  0  0  0
   37.7254   11.9452  -15.9083 C   0  0  0  0  0  0  0  0  0  0  0  0
   37.9146   12.6257  -14.7841 N   0  0  0  0  0  0  0  0  0  0  0  0
   39.2402   12.9408  -14.7390 C   0  0  0  0  0  0  0  0  0  0  0  0
   39.8409   12.4494  -15.8340 N   0  0  0  0  0  0  0  0  0  0  0  0
   38.9213   11.8204  -16.5869 C   0  0  0  0  0  0  0  0  0  0  0  0
   40.6045   11.8272  -19.0650 H   0  0  0  0  0  0  0  0  0  0  0  0
   40.8425   10.1957  -18.3197 H   0  0  0  0  0  0  0  0  0  0  0  0
   33.7081   14.1071  -13.3258 C   0  0  0  0  0  0  0  0  0  0  0  0
   32.8582   13.3556  -14.1041 O   0  0  0  0  0  0  0  0  0  0  0  0
   33.2848   14.6931  -12.2983 O   0  0  0  0  0  0  0  0  0  0  0  0
   32.2333   13.8807  -14.7321 H   0  0  0  0  0  0  0  0  0  0  0  0
 10 11  1  0  0  0
 11 12  2  0  0  0
 12 13  1  0  0  0
 13 14  2  0  0  0
 14 15  1  0  0  0
 15 16  1  0  0  0
 16 17  1  0  0  0
 17 18  2  0  0  0
 18 19  1  0  0  0
 16  1  1  0  0  0
  1  2  1  0  0  0
  2  3  1  0  0  0
  3  4  1  0  0  0
  4  5  1  0  0  0
  4  6  1  0  0  0
  6  7  1  0  0  0
  3 22  1  0  0  0
 22 23  1  0  0  0
 22 24  2  0  0  0
 19 11  1  0  0  0
  6  1  1  0  0  0
 19 15  2  0  0  0
 10 20  1  0  0  0
 10 21  1  0  0  0
  5  8  1  0  0  0
  7  9  1  0  0  0
 23 25  1  0  0  0
M  END
> <minimizedAffinity>
-7.48111

> <CNNscore>
0.4123637974

> <CNNaffinity>
4.9597320557

> <CNN_VS>
2.0452139378

> <CNNaffinity_variance>
0.4061886668

$$$$
[H]OC(=O)[C@]1([H])O[C@@]([H])(n2c([H])nc3c(N([H])[H])nc([H])nc32)[C@@]([H])(O[H])[C@@]1([H])O[H]


 25 27  0  0  0  0  0  0  0  0999 V2000
   38.4757   13.2506  -13.8097 C   0  0  0  0  0  0  0  0  0  0  0  0
   37.2682   13.8547  -13.5862 O   0  0  0  0  0  0  0  0  0  0  0  0
   37.4681   15.0976  -13.0486 C   0  0  0  0  0  0  0  0  0  0  0  0
   38.8771   15.0658  -12.4421 C   0  0  0  0  0  0  0  0  0  0  0  0
   39.4070   16.3135  -12.2770 O   0  0  0  0  0  0  0  0  0  0  0  0
   39.5628   14.2791  -13.5702 C   0  0  0  0  0  0  0  0  0  0  0  0
   39.6483   15.1247  -14.6743 O   0  0  0  0  0  0  0  0  0  0  0  0
   39.7298   16.3744  -11.3226 H   0  0  0  0  0  0  0  0  0  0  0  0
   38.9426   14.9597  -15.3380 H   0  0  0  0  0  0  0  0  0  0  0  0
   38.1767   10.4257  -19.1630 N   0  0  0  0  0  0  0  0  0  0  0  0
   37.5199   10.8645  -17.9803 C   0  0  0  0  0  0  0  0  0  0  0  0
   36.2156   10.6553  -17.7364 N   0  0  0  0  0  0  0  0  0  0  0  0
   35.6616   11.0997  -16.5941 C   0  0  0  0  0  0  0  0  0  0  0  0
   36.3779   11.7672  -15.6515 N   0  0  0  0  0  0  0  0  0  0  0  0
   37.6744   12.0009  -15.8438 C   0  0  0  0  0  0  0  0  0  0  0  0
   38.5824   12.6173  -15.0966 N   0  0  0  0  0  0  0  0  0  0  0  0
   39.7561   12.5632  -15.7880 C   0  0  0  0  0  0  0  0  0  0  0  0
   39.5490   11.9160  -16.9454 N   0  0  0  0  0  0  0  0  0  0  0  0
   38.2567   11.5505  -17.0119 C   0  0  0  0  0  0  0  0  0  0  0  0
   38.3005   11.0756  -19.9694 H   0  0  0  0  0  0  0  0  0  0  0  0
   38.5311    9.4486  -19.2119 H   0  0  0  0  0  0  0  0  0  0  0  0
   36.4629   15.5104  -12.0712 C   0  0  0  0  0  0  0  0  0  0  0  0
   36.1861   16.8460  -11.8906 O   0  0  0  0  0  0  0  0  0  0  0  0
   35.8584   14.6355  -11.4023 O   0  0  0  0  0  0  0  0  0  0  0  0
   36.5955   17.2859  -11.0544 H   0  0  0  0  0  0  0  0  0  0  0  0
 10 11  1  0  0  0
 11 12  2  0  0  0
 12 13  1  0  0  0
 13 14  2  0  0  0
 14 15  1  0  0  0
 15 16  1  0  0  0
 16 17  1  0  0  0
 17 18  2  0  0  0
 18 19  1  0  0  0
 16  1  1  0  0  0
  1  2  1  0  0  0
  2  3  1  0  0  0
  3  4  1  0  0  0
  4  5  1  0  0  0
  4  6  1  0  0  0
  6  7  1  0  0  0
  3 22  1  0  0  0
 22 23  1  0  0  0
 22 24  2  0  0  0
 19 11  1  0  0  0
  6  1  1  0  0  0
 19 15  2  0  0  0
 10 20  1  0  0  0
 10 21  1  0  0  0
  5  8  1  0  0  0
  7  9  1  0  0  0
 23 25  1  0  0  0
M  END
> <minimizedAffinity>
-7.23284

> <CNNscore>
0.3580150306

> <CNNaffinity>
4.7899274826

> <CNN_VS>
1.7148660421

> <CNNaffinity_variance>
0.2467074692

$$$$
[H]OC(=O)[C@]1([H])O[C@@]([H])(n2c([H])nc3c(N([H])[H])nc([H])nc32)[C@@]([H])(O[H])[C@@]1([H])O[H]


 25 27  0  0  0  0  0  0  0  0999 V2000
   36.3162   14.1969  -13.5960 C   0  0  0  0  0  0  0  0  0  0  0  0
   37.5340   14.5369  -13.0721 O   0  0  0  0  0  0  0  0  0  0  0  0
   37.4706   14.5097  -11.7051 C   0  0  0  0  0  0  0  0  0  0  0  0
   35.9822   14.6406  -11.3559 C   0  0  0  0  0  0  0  0  0  0  0  0
   35.6941   14.1839  -10.1016 O   0  0  0  0  0  0  0  0  0  0  0  0
   35.4364   13.7193  -12.4582 C   0  0  0  0  0  0  0  0  0  0  0  0
   35.7877   12.4139  -12.1208 O   0  0  0  0  0  0  0  0  0  0  0  0
   35.1746   14.9118   -9.6334 H   0  0  0  0  0  0  0  0  0  0  0  0
   36.5812   12.0941  -12.6045 H   0  0  0  0  0  0  0  0  0  0  0  0
   37.3855   10.3055  -18.1173 N   0  0  0  0  0  0  0  0  0  0  0  0
   37.8941   11.2044  -17.1396 C   0  0  0  0  0  0  0  0  0  0  0  0
   39.2036   11.4533  -16.9722 N   0  0  0  0  0  0  0  0  0  0  0  0
   39.6120   12.3171  -16.0255 C   0  0  0  0  0  0  0  0  0  0  0  0
   38.7399   12.9663  -15.2100 N   0  0  0  0  0  0  0  0  0  0  0  0
   37.4312   12.7555  -15.3341 C   0  0  0  0  0  0  0  0  0  0  0  0
   36.3893   13.2517  -14.6777 N   0  0  0  0  0  0  0  0  0  0  0  0
   35.2780   12.6834  -15.2261 C   0  0  0  0  0  0  0  0  0  0  0  0
   35.6559   11.8498  -16.2077 N   0  0  0  0  0  0  0  0  0  0  0  0
   36.9972   11.8714  -16.3017 C   0  0  0  0  0  0  0  0  0  0  0  0
   37.1629    9.3191  -17.8615 H   0  0  0  0  0  0  0  0  0  0  0  0
   37.2390   10.6457  -19.0896 H   0  0  0  0  0  0  0  0  0  0  0  0
   38.2794   15.5258  -11.0347 C   0  0  0  0  0  0  0  0  0  0  0  0
   39.3950   15.1560  -10.3195 O   0  0  0  0  0  0  0  0  0  0  0  0
   37.9450   16.7338  -11.1194 O   0  0  0  0  0  0  0  0  0  0  0  0
   39.2931   15.1392   -9.2949 H   0  0  0  0  0  0  0  0  0  0  0  0
 10 11  1  0  0  0
 11 12  2  0  0  0
 12 13  1  0  0  0
 13 14  2  0  0  0
 14 15  1  0  0  0
 15 16  1  0  0  0
 16 17  1  0  0  0
 17 18  2  0  0  0
 18 19  1  0  0  0
 16  1  1  0  0  0
  1  2  1  0  0  0
  2  3  1  0  0  0
  3  4  1  0  0  0
  4  5  1  0  0  0
  4  6  1  0  0  0
  6  7  1  0  0  0
  3 22  1  0  0  0
 22 23  1  0  0  0
 22 24  2  0  0  0
 19 11  1  0  0  0
  6  1  1  0  0  0
 19 15  2  0  0  0
 10 20  1  0  0  0
 10 21  1  0  0  0
  5  8  1  0  0  0
  7  9  1  0  0  0
 23 25  1  0  0  0
M  END
> <minimizedAffinity>
-7.65918

> <CNNscore>
0.3535715342

> <CNNaffinity>
4.7225556374

> <CNN_VS>
1.6697613001

> <CNNaffinity_variance>
0.5181353092

$$$$
[H]OC(=O)[C@]1([H])O[C@@]([H])(n2c([H])nc3c(N([H])[H])nc([H])nc32)[C@@]([H])(O[H])[C@@]1([H])O[H]


 25 27  0  0  0  0  0  0  0  0999 V2000
   35.1055   12.8920  -13.5030 C   0  0  0  0  0  0  0  0  0  0  0  0
   33.7884   13.2614  -13.4588 O   0  0  0  0  0  0  0  0  0  0  0  0
   33.6820   14.5254  -12.9444 C   0  0  0  0  0  0  0  0  0  0  0  0
   34.9790   14.7650  -12.1604 C   0  0  0  0  0  0  0  0  0  0  0  0
   35.2428   16.0916  -11.9727 O   0  0  0  0  0  0  0  0  0  0  0  0
   35.9423   14.1086  -13.1619 C   0  0  0  0  0  0  0  0  0  0  0  0
   36.0170   14.9433  -14.2750 O   0  0  0  0  0  0  0  0  0  0  0  0
   35.4186   16.2222  -10.9873 H   0  0  0  0  0  0  0  0  0  0  0  0
   35.4489   14.6417  -15.0180 H   0  0  0  0  0  0  0  0  0  0  0  0
   37.4813   10.4539  -18.5168 N   0  0  0  0  0  0  0  0  0  0  0  0
   37.6800   11.1131  -17.2724 C   0  0  0  0  0  0  0  0  0  0  0  0
   38.8911   11.4440  -16.7947 N   0  0  0  0  0  0  0  0  0  0  0  0
   39.0026   12.0672  -15.6079 C   0  0  0  0  0  0  0  0  0  0  0  0
   37.9200   12.3859  -14.8506 N   0  0  0  0  0  0  0  0  0  0  0  0
   36.6967   12.0802  -15.2780 C   0  0  0  0  0  0  0  0  0  0  0  0
   35.4979   12.2761  -14.7421 N   0  0  0  0  0  0  0  0  0  0  0  0
   34.5911   11.7590  -15.6190 C   0  0  0  0  0  0  0  0  0  0  0  0
   35.2473   11.2556  -16.6760 N   0  0  0  0  0  0  0  0  0  0  0  0
   36.5668   11.4403  -16.4945 C   0  0  0  0  0  0  0  0  0  0  0  0
   37.3706    9.4173  -18.5527 H   0  0  0  0  0  0  0  0  0  0  0  0
   37.4480   11.0198  -19.3894 H   0  0  0  0  0  0  0  0  0  0  0  0
   32.4967   14.7529  -12.1203 C   0  0  0  0  0  0  0  0  0  0  0  0
   31.2940   14.1849  -12.4726 O   0  0  0  0  0  0  0  0  0  0  0  0
   32.5894   15.4691  -11.0924 O   0  0  0  0  0  0  0  0  0  0  0  0
   30.6088   14.8112  -12.9183 H   0  0  0  0  0  0  0  0  0  0  0  0
 10 11  1  0  0  0
 11 12  2  0  0  0
 12 13  1  0  0  0
 13 14  2  0  0  0
 14 15  1  0  0  0
 15 16  1  0  0  0
 16 17  1  0  0  0
 17 18  2  0  0  0
 18 19  1  0  0  0
 16  1  1  0  0  0
  1  2  1  0  0  0
  2  3  1  0  0  0
  3  4  1  0  0  0
  4  5  1  0  0  0
  4  6  1  0  0  0
  6  7  1  0  0  0
  3 22  1  0  0  0
 22 23  1  0  0  0
 22 24  2  0  0  0
 19 11  1  0  0  0
  6  1  1  0  0  0
 19 15  2  0  0  0
 10 20  1  0  0  0
 10 21  1  0  0  0
  5  8  1  0  0  0
  7  9  1  0  0  0
 23 25  1  0  0  0
M  END
> <minimizedAffinity>
-7.89280

> <CNNscore>
0.3178483248

> <CNNaffinity>
4.8661775589

> <CNN_VS>
1.5467064381

> <CNNaffinity_variance>
0.5777223110

$$$$
[H]OC(=O)[C@]1([H])O[C@@]([H])(n2c([H])nc3c(N([H])[H])nc([H])nc32)[C@@]([H])(O[H])[C@@]1([H])O[H]


 25 27  0  0  0  0  0  0  0  0999 V2000
   37.1876   14.0781  -14.1935 C   0  0  0  0  0  0  0  0  0  0  0  0
   37.8837   14.9800  -13.4352 O   0  0  0  0  0  0  0  0  0  0  0  0
   37.4651   14.9070  -12.1339 C   0  0  0  0  0  0  0  0  0  0  0  0
   36.0730   14.2636  -12.1811 C   0  0  0  0  0  0  0  0  0  0  0  0
   35.7096   13.7080  -10.9879 O   0  0  0  0  0  0  0  0  0  0  0  0
   36.3773   13.2070  -13.2548 C   0  0  0  0  0  0  0  0  0  0  0  0
   37.2119   12.2537  -12.6751 O   0  0  0  0  0  0  0  0  0  0  0  0
   34.7944   14.0677  -10.7600 H   0  0  0  0  0  0  0  0  0  0  0  0
   38.1587   12.3848  -12.9034 H   0  0  0  0  0  0  0  0  0  0  0  0
   39.9976   10.5550  -18.2456 N   0  0  0  0  0  0  0  0  0  0  0  0
   38.7827   11.0012  -17.6562 C   0  0  0  0  0  0  0  0  0  0  0  0
   37.5713   10.5561  -18.0290 N   0  0  0  0  0  0  0  0  0  0  0  0
   36.4639   11.0240  -17.4257 C   0  0  0  0  0  0  0  0  0  0  0  0
   36.5146   11.9492  -16.4316 N   0  0  0  0  0  0  0  0  0  0  0  0
   37.6900   12.4234  -16.0242 C   0  0  0  0  0  0  0  0  0  0  0  0
   38.0099   13.3132  -15.0922 N   0  0  0  0  0  0  0  0  0  0  0  0
   39.3693   13.4152  -15.1027 C   0  0  0  0  0  0  0  0  0  0  0  0
   39.8598   12.5882  -16.0390 N   0  0  0  0  0  0  0  0  0  0  0  0
   38.8354   11.9522  -16.6344 C   0  0  0  0  0  0  0  0  0  0  0  0
   40.4418   11.1010  -19.0154 H   0  0  0  0  0  0  0  0  0  0  0  0
   40.4359    9.6775  -17.8984 H   0  0  0  0  0  0  0  0  0  0  0  0
   37.4519   16.1839  -11.4230 C   0  0  0  0  0  0  0  0  0  0  0  0
   38.6148   16.6834  -10.8833 O   0  0  0  0  0  0  0  0  0  0  0  0
   36.3718   16.8157  -11.3116 O   0  0  0  0  0  0  0  0  0  0  0  0
   38.7254   16.5775   -9.8649 H   0  0  0  0  0  0  0  0  0  0  0  0
 10 11  1  0  0  0
 11 12  2  0  0  0
 12 13  1  0  0  0
 13 14  2  0  0  0
 14 15  1  0  0  0
 15 16  1  0  0  0
 16 17  1  0  0  0
 17 18  2  0  0  0
 18 19  1  0  0  0
 16  1  1  0  0  0
  1  2  1  0  0  0
  2  3  1  0  0  0
  3  4  1  0  0  0
  4  5  1  0  0  0
  4  6  1  0  0  0
  6  7  1  0  0  0
  3 22  1  0  0  0
 22 23  1  0  0  0
 22 24  2  0  0  0
 19 11  1  0  0  0
  6  1  1  0  0  0
 19 15  2  0  0  0
 10 20  1  0  0  0
 10 21  1  0  0  0
  5  8  1  0  0  0
  7  9  1  0  0  0
 23 25  1  0  0  0
M  END
> <minimizedAffinity>
-7.09373

> <CNNscore>
0.3152285814

> <CNNaffinity>
4.5409288406

> <CNN_VS>
1.4314305782

> <CNNaffinity_variance>
0.2983401418

$$$$
[H]OC(=O)[C@]1([H])O[C@@]([H])(n2c([H])nc3c(N([H])[H])nc([H])nc32)[C@@]([H])(O[H])[C@@]1([H])O[H]


 25 27  0  0  0  0  0  0  0  0999 V2000
   36.9843   13.0039  -13.8684 C   0  0  0  0  0  0  0  0  0  0  0  0
   35.6815   13.0709  -14.2823 O   0  0  0  0  0  0  0  0  0  0  0  0
   35.0910   14.1915  -13.7633 C   0  0  0  0  0  0  0  0  0  0  0  0
   35.9420   14.5844  -12.5485 C   0  0  0  0  0  0  0  0  0  0  0  0
   35.7812   15.8935  -12.1949 O   0  0  0  0  0  0  0  0  0  0  0  0
   37.3194   14.3071  -13.1711 C   0  0  0  0  0  0  0  0  0  0  0  0
   37.5503   15.2947  -14.1264 O   0  0  0  0  0  0  0  0  0  0  0  0
   35.5754   15.9105  -11.2068 H   0  0  0  0  0  0  0  0  0  0  0  0
   37.3620   14.9924  -15.0423 H   0  0  0  0  0  0  0  0  0  0  0  0
   41.4333   11.9797  -17.8540 N   0  0  0  0  0  0  0  0  0  0  0  0
   41.0170   12.5267  -16.6089 C   0  0  0  0  0  0  0  0  0  0  0  0
   41.8475   13.1582  -15.7627 N   0  0  0  0  0  0  0  0  0  0  0  0
   41.3824   13.6508  -14.6007 C   0  0  0  0  0  0  0  0  0  0  0  0
   40.0789   13.5367  -14.2336 N   0  0  0  0  0  0  0  0  0  0  0  0
   39.2140   12.9198  -15.0360 C   0  0  0  0  0  0  0  0  0  0  0  0
   37.9139   12.6784  -14.9166 N   0  0  0  0  0  0  0  0  0  0  0  0
   37.5381   12.0083  -16.0427 C   0  0  0  0  0  0  0  0  0  0  0  0
   38.6116   11.8500  -16.8325 N   0  0  0  0  0  0  0  0  0  0  0  0
   39.6771   12.4091  -16.2322 C   0  0  0  0  0  0  0  0  0  0  0  0
   41.6828   10.9697  -17.9291 H   0  0  0  0  0  0  0  0  0  0  0  0
   41.4852   12.6007  -18.6873 H   0  0  0  0  0  0  0  0  0  0  0  0
   33.6808   14.0336  -13.4132 C   0  0  0  0  0  0  0  0  0  0  0  0
   32.8492   13.2945  -14.2225 O   0  0  0  0  0  0  0  0  0  0  0  0
   33.2405   14.5779  -12.3700 O   0  0  0  0  0  0  0  0  0  0  0  0
   32.2200   13.8298  -14.8375 H   0  0  0  0  0  0  0  0  0  0  0  0
 10 11  1  0  0  0
 11 12  2  0  0  0
 12 13  1  0  0  0
 13 14  2  0  0  0
 14 15  1  0  0  0
 15 16  1  0  0  0
 16 17  1  0  0  0
 17 18  2  0  0  0
 18 19  1  0  0  0
 16  1  1  0  0  0
  1  2  1  0  0  0
  2  3  1  0  0  0
  3  4  1  0  0  0
  4  5  1  0  0  0
  4  6  1  0  0  0
  6  7  1  0  0  0
  3 22  1  0  0  0
 22 23  1  0  0  0
 22 24  2  0  0  0
 19 11  1  0  0  0
  6  1  1  0  0  0
 19 15  2  0  0  0
 10 20  1  0  0  0
 10 21  1  0  0  0
  5  8  1  0  0  0
  7  9  1  0  0  0
 23 25  1  0  0  0
M  END
> <minimizedAffinity>
-7.30062

> <CNNscore>
0.3151215613

> <CNNaffinity>
4.5435438156

> <CNN_VS>
1.4317686558

> <CNNaffinity_variance>
0.3002466261

$$$$
[H]/C(C(=O)O[C@@]1([H])C([H])([H])[C@]([H])(Oc2c([H])c([H])c(C(C([H])([H])[H])(C([H])([H])[H])C([H])([H])[H])c([H])c2[H])[C@@]([H])(N([H])C(=O)c2c([H])c([H])c(N([H])S(=O)(=O)C([H])([H])C([H])([H])[H])c([H])c2[H])C1([H])[H])=C(/[H])c1c([H])c([H])c(Cl)c([H])c1[H]


 45 48  0  0  0  0  0  0  0  0999 V2000
   37.8841   16.4351   -9.9274 C   0  0  0  0  0  0  0  0  0  0  0  0
   38.2362   15.4038   -8.8731 C   0  0  0  0  0  0  0  0  0  0  0  0
   39.7430   15.1236   -9.0304 C   0  0  0  0  0  0  0  0  0  0  0  0
   40.1970   16.1920   -9.9301 C   0  0  0  0  0  0  0  0  0  0  0  0
   39.0318   16.3549  -10.9026 C   0  0  0  0  0  0  0  0  0  0  0  0
   41.3938   15.7953  -10.6485 N   0  0  0  0  0  0  0  0  0  0  0  0
   41.5743   16.1098  -12.0234 C   0  0  0  0  0  0  0  0  0  0  0  0
   40.6706   16.7519  -12.6003 O   0  0  0  0  0  0  0  0  0  0  0  0
   42.1051   15.2742  -10.0979 H   0  0  0  0  0  0  0  0  0  0  0  0
   42.7457   15.7101  -12.7422 C   0  0  0  0  0  0  0  0  0  0  0  0
   42.7531   14.5595  -13.4871 C   0  0  0  0  0  0  0  0  0  0  0  0
   43.8944   14.1417  -14.1715 C   0  0  0  0  0  0  0  0  0  0  0  0
   45.0636   14.9012  -14.1064 C   0  0  0  0  0  0  0  0  0  0  0  0
   45.0505   16.0543  -13.3564 C   0  0  0  0  0  0  0  0  0  0  0  0
   43.8945   16.4542  -12.6788 C   0  0  0  0  0  0  0  0  0  0  0  0
   46.2313   14.5084  -14.8003 N   0  0  0  0  0  0  0  0  0  0  0  0
   47.0148   15.2062  -14.9863 H   0  0  0  0  0  0  0  0  0  0  0  0
   46.4425   12.9195  -15.3696 S   0  0  0  0  0  0  0  0  0  0  0  0
   45.9609   11.9419  -14.3036 O   0  0  0  0  0  0  0  0  0  0  0  0
   47.8887   12.6978  -15.6914 O   0  0  0  0  0  0  0  0  0  0  0  0
   45.4727   12.5504  -16.8136 C   0  0  0  0  0  0  0  0  0  0  0  0
   44.3327   11.6421  -16.4478 C   0  0  0  0  0  0  0  0  0  0  0  0
   36.6343   16.1493  -10.5243 O   0  0  0  0  0  0  0  0  0  0  0  0
   36.4771   14.9004  -11.1151 C   0  0  0  0  0  0  0  0  0  0  0  0
   35.7983   14.0024  -10.5403 O   0  0  0  0  0  0  0  0  0  0  0  0
   37.5091   13.4225  -12.7161 C   0  0  0  0  0  0  0  0  0  0  0  0
   37.1084   14.6282  -12.4168 C   0  0  0  0  0  0  0  0  0  0  0  0
   40.0188   11.7599  -17.9024 Cl  0  0  0  0  0  0  0  0  0  0  0  0
   39.2781   12.2418  -16.3973 C   0  0  0  0  0  0  0  0  0  0  0  0
   39.9347   13.0857  -15.5504 C   0  0  0  0  0  0  0  0  0  0  0  0
   39.3743   13.4936  -14.3345 C   0  0  0  0  0  0  0  0  0  0  0  0
   38.1344   13.0516  -13.9543 C   0  0  0  0  0  0  0  0  0  0  0  0
   37.4807   12.1920  -14.8309 C   0  0  0  0  0  0  0  0  0  0  0  0
   38.0213   11.7858  -16.0257 C   0  0  0  0  0  0  0  0  0  0  0  0
   40.3597   15.2378   -7.7608 O   0  0  0  0  0  0  0  0  0  0  0  0
   40.9919   14.2298   -7.1058 C   0  0  0  0  0  0  0  0  0  0  0  0
   40.6545   12.9244   -7.3524 C   0  0  0  0  0  0  0  0  0  0  0  0
   41.3062   11.9140   -6.6697 C   0  0  0  0  0  0  0  0  0  0  0  0
   42.2788   12.1868   -5.7554 C   0  0  0  0  0  0  0  0  0  0  0  0
   42.6239   13.4915   -5.5031 C   0  0  0  0  0  0  0  0  0  0  0  0
   41.9684   14.5005   -6.1885 C   0  0  0  0  0  0  0  0  0  0  0  0
   42.9786   11.0943   -4.9981 C   0  0  0  0  0  0  0  0  0  0  0  0
   43.5926   10.1741   -6.0182 C   0  0  0  0  0  0  0  0  0  0  0  0
   41.9299   10.4035   -4.1531 C   0  0  0  0  0  0  0  0  0  0  0  0
   44.0062   11.7903   -4.1345 C   0  0  0  0  0  0  0  0  0  0  0  0
 28 29  1  0  0  0
 29 30  2  0  0  0
 30 31  1  0  0  0
 31 32  2  0  0  0
 32 26  1  0  0  0
 26 27  2  0  0  0
 27 24  1  0  0  0
 24 25  2  0  0  0
 24 23  1  0  0  0
 23  1  1  0  0  0
  1  2  1  0  0  0
  2  3  1  0  0  0
  3 35  1  0  0  0
 35 36  1  0  0  0
 36 37  2  0  0  0
 37 38  1  0  0  0
 38 39  2  0  0  0
 39 42  1  0  0  0
 42 43  1  0  0  0
 42 44  1  0  0  0
 42 45  1  0  0  0
 39 40  1  0  0  0
 40 41  2  0  0  0
  3  4  1  0  0  0
  4  6  1  0  0  0
  6  7  1  0  0  0
  7 10  1  0  0  0
 10 11  2  0  0  0
 11 12  1  0  0  0
 12 13  2  0  0  0
 13 16  1  0  0  0
 16 18  1  0  0  0
 18 21  1  0  0  0
 21 22  1  0  0  0
 18 19  2  0  0  0
 18 20  2  0  0  0
 13 14  1  0  0  0
 14 15  2  0  0  0
  7  8  2  0  0  0
  4  5  1  0  0  0
 32 33  1  0  0  0
 33 34  2  0  0  0
 34 29  1  0  0  0
  5  1  1  0  0  0
 41 36  1  0  0  0
 15 10  1  0  0  0
  6  9  1  0  0  0
 16 17  1  0  0  0
M  END
> <minimizedAffinity>
-8.97500

> <CNNscore>
0.2713476419

> <CNNaffinity>
6.7711038589

> <CNN_VS>
1.8373230696

> <CNNaffinity_variance>
0.7099398375

$$$$
[H]/C(C(=O)O[C@@]1([H])C([H])([H])[C@]([H])(Oc2c([H])c([H])c(C(C([H])([H])[H])(C([H])([H])[H])C([H])([H])[H])c([H])c2[H])[C@@]([H])(N([H])C(=O)c2c([H])c([H])c(N([H])S(=O)(=O)C([H])([H])C([H])([H])[H])c([H])c2[H])C1([H])[H])=C(/[H])c1c([H])c([H])c(Cl)c([H])c1[H]


 45 48  0  0  0  0  0  0  0  0999 V2000
   36.0234   14.5814  -11.9880 C   0  0  0  0  0  0  0  0  0  0  0  0
   36.2306   14.6740  -10.4889 C   0  0  0  0  0  0  0  0  0  0  0  0
   37.7159   15.0258  -10.2799 C   0  0  0  0  0  0  0  0  0  0  0  0
   38.1729   15.3923  -11.6267 C   0  0  0  0  0  0  0  0  0  0  0  0
   37.4207   14.4207  -12.5323 C   0  0  0  0  0  0  0  0  0  0  0  0
   39.6040   15.1947  -11.7635 N   0  0  0  0  0  0  0  0  0  0  0  0
   40.2319   15.1650  -13.0389 C   0  0  0  0  0  0  0  0  0  0  0  0
   39.5134   15.3251  -14.0488 O   0  0  0  0  0  0  0  0  0  0  0  0
   40.1358   15.0803  -10.8777 H   0  0  0  0  0  0  0  0  0  0  0  0
   41.6407   14.9568  -13.1826 C   0  0  0  0  0  0  0  0  0  0  0  0
   42.5390   15.8421  -12.6459 C   0  0  0  0  0  0  0  0  0  0  0  0
   43.9143   15.6684  -12.8000 C   0  0  0  0  0  0  0  0  0  0  0  0
   44.4031   14.5734  -13.5143 C   0  0  0  0  0  0  0  0  0  0  0  0
   43.4969   13.6890  -14.0516 C   0  0  0  0  0  0  0  0  0  0  0  0
   42.1222   13.8827  -13.8841 C   0  0  0  0  0  0  0  0  0  0  0  0
   45.7924   14.3656  -13.6754 N   0  0  0  0  0  0  0  0  0  0  0  0
   46.3553   14.9554  -14.3616 H   0  0  0  0  0  0  0  0  0  0  0  0
   46.6277   13.1749  -12.7935 S   0  0  0  0  0  0  0  0  0  0  0  0
   48.0862   13.5947  -12.6504 O   0  0  0  0  0  0  0  0  0  0  0  0
   46.5116   11.8610  -13.5037 O   0  0  0  0  0  0  0  0  0  0  0  0
   46.0329   12.9793  -11.1292 C   0  0  0  0  0  0  0  0  0  0  0  0
   45.0025   11.8865  -11.0775 C   0  0  0  0  0  0  0  0  0  0  0  0
   35.1758   13.4993  -12.3208 O   0  0  0  0  0  0  0  0  0  0  0  0
   34.5882   13.5098  -13.5809 C   0  0  0  0  0  0  0  0  0  0  0  0
   33.3650   13.7994  -13.7133 O   0  0  0  0  0  0  0  0  0  0  0  0
   36.3195   12.2553  -14.6951 C   0  0  0  0  0  0  0  0  0  0  0  0
   35.4002   13.1794  -14.7636 C   0  0  0  0  0  0  0  0  0  0  0  0
   39.9511   10.6924  -19.2039 Cl  0  0  0  0  0  0  0  0  0  0  0  0
   38.9030   11.1476  -17.8846 C   0  0  0  0  0  0  0  0  0  0  0  0
   37.5786   10.8225  -17.9187 C   0  0  0  0  0  0  0  0  0  0  0  0
   36.7068   11.1711  -16.8809 C   0  0  0  0  0  0  0  0  0  0  0  0
   37.1634   11.8578  -15.7867 C   0  0  0  0  0  0  0  0  0  0  0  0
   38.5163   12.1802  -15.7701 C   0  0  0  0  0  0  0  0  0  0  0  0
   39.3800   11.8430  -16.7827 C   0  0  0  0  0  0  0  0  0  0  0  0
   37.7996   16.1328   -9.4006 O   0  0  0  0  0  0  0  0  0  0  0  0
   37.7416   16.0604   -8.0456 C   0  0  0  0  0  0  0  0  0  0  0  0
   37.1012   17.0356   -7.3264 C   0  0  0  0  0  0  0  0  0  0  0  0
   37.0595   16.9457   -5.9473 C   0  0  0  0  0  0  0  0  0  0  0  0
   37.6418   15.9070   -5.2852 C   0  0  0  0  0  0  0  0  0  0  0  0
   38.2843   14.9251   -5.9978 C   0  0  0  0  0  0  0  0  0  0  0  0
   38.3242   15.0191   -7.3788 C   0  0  0  0  0  0  0  0  0  0  0  0
   37.6147   15.8125   -3.7862 C   0  0  0  0  0  0  0  0  0  0  0  0
   38.8893   16.4333   -3.2820 C   0  0  0  0  0  0  0  0  0  0  0  0
   37.5110   14.3426   -3.4399 C   0  0  0  0  0  0  0  0  0  0  0  0
   36.3774   16.5656   -3.3523 C   0  0  0  0  0  0  0  0  0  0  0  0
 28 29  1  0  0  0
 29 30  2  0  0  0
 30 31  1  0  0  0
 31 32  2  0  0  0
 32 26  1  0  0  0
 26 27  2  0  0  0
 27 24  1  0  0  0
 24 25  2  0  0  0
 24 23  1  0  0  0
 23  1  1  0  0  0
  1  2  1  0  0  0
  2  3  1  0  0  0
  3 35  1  0  0  0
 35 36  1  0  0  0
 36 37  2  0  0  0
 37 38  1  0  0  0
 38 39  2  0  0  0
 39 42  1  0  0  0
 42 43  1  0  0  0
 42 44  1  0  0  0
 42 45  1  0  0  0
 39 40  1  0  0  0
 40 41  2  0  0  0
  3  4  1  0  0  0
  4  6  1  0  0  0
  6  7  1  0  0  0
  7 10  1  0  0  0
 10 11  2  0  0  0
 11 12  1  0  0  0
 12 13  2  0  0  0
 13 16  1  0  0  0
 16 18  1  0  0  0
 18 21  1  0  0  0
 21 22  1  0  0  0
 18 19  2  0  0  0
 18 20  2  0  0  0
 13 14  1  0  0  0
 14 15  2  0  0  0
  7  8  2  0  0  0
  4  5  1  0  0  0
 32 33  1  0  0  0
 33 34  2  0  0  0
 34 29  1  0  0  0
  5  1  1  0  0  0
 41 36  1  0  0  0
 15 10  1  0  0  0
  6  9  1  0  0  0
 16 17  1  0  0  0
M  END
> <minimizedAffinity>
-8.90781

> <CNNscore>
0.1982012242

> <CNNaffinity>
6.8384842873

> <CNN_VS>
1.3553959131

> <CNNaffinity_variance>
0.2469022721

$$$$
[H]/C(C(=O)O[C@@]1([H])C([H])([H])[C@]([H])(Oc2c([H])c([H])c(C(C([H])([H])[H])(C([H])([H])[H])C([H])([H])[H])c([H])c2[H])[C@@]([H])(N([H])C(=O)c2c([H])c([H])c(N([H])S(=O)(=O)C([H])([H])C([H])([H])[H])c([H])c2[H])C1([H])[H])=C(/[H])c1c([H])c([H])c(Cl)c([H])c1[H]


 45 48  0  0  0  0  0  0  0  0999 V2000
   35.7475   15.4463  -12.1327 C   0  0  0  0  0  0  0  0  0  0  0  0
   36.0726   14.7639  -10.8184 C   0  0  0  0  0  0  0  0  0  0  0  0
   37.5893   14.4941  -10.8363 C   0  0  0  0  0  0  0  0  0  0  0  0
   38.0623   15.2788  -11.9841 C   0  0  0  0  0  0  0  0  0  0  0  0
   36.9367   15.1281  -13.0040 C   0  0  0  0  0  0  0  0  0  0  0  0
   39.2952   14.7305  -12.5182 N   0  0  0  0  0  0  0  0  0  0  0  0
   40.4560   15.5348  -12.6846 C   0  0  0  0  0  0  0  0  0  0  0  0
   40.3890   16.7359  -12.3464 O   0  0  0  0  0  0  0  0  0  0  0  0
   39.2763   13.7211  -12.7659 H   0  0  0  0  0  0  0  0  0  0  0  0
   41.6713   15.0045  -13.2234 C   0  0  0  0  0  0  0  0  0  0  0  0
   42.8795   15.5812  -12.9293 C   0  0  0  0  0  0  0  0  0  0  0  0
   44.0702   15.0935  -13.4676 C   0  0  0  0  0  0  0  0  0  0  0  0
   44.0480   13.9940  -14.3271 C   0  0  0  0  0  0  0  0  0  0  0  0
   42.8326   13.4202  -14.6196 C   0  0  0  0  0  0  0  0  0  0  0  0
   41.6512   13.9256  -14.0679 C   0  0  0  0  0  0  0  0  0  0  0  0
   45.2409   13.4707  -14.8772 N   0  0  0  0  0  0  0  0  0  0  0  0
   45.3530   13.3633  -15.9315 H   0  0  0  0  0  0  0  0  0  0  0  0
   46.5435   12.9888  -13.8954 S   0  0  0  0  0  0  0  0  0  0  0  0
   47.5185   12.1679  -14.7318 O   0  0  0  0  0  0  0  0  0  0  0  0
   46.0224   12.1930  -12.7381 O   0  0  0  0  0  0  0  0  0  0  0  0
   47.4988   14.3511  -13.2682 C   0  0  0  0  0  0  0  0  0  0  0  0
   47.6745   15.3908  -14.3390 C   0  0  0  0  0  0  0  0  0  0  0  0
   34.5292   14.9684  -12.6689 O   0  0  0  0  0  0  0  0  0  0  0  0
   34.5589   13.7519  -13.3417 C   0  0  0  0  0  0  0  0  0  0  0  0
   33.6611   12.8862  -13.1366 O   0  0  0  0  0  0  0  0  0  0  0  0
   35.7550   12.2983  -14.8481 C   0  0  0  0  0  0  0  0  0  0  0  0
   35.6455   13.4760  -14.2958 C   0  0  0  0  0  0  0  0  0  0  0  0
   40.1035   10.8567  -18.7175 Cl  0  0  0  0  0  0  0  0  0  0  0  0
   38.8456   11.2778  -17.5832 C   0  0  0  0  0  0  0  0  0  0  0  0
   37.5729   10.8252  -17.7730 C   0  0  0  0  0  0  0  0  0  0  0  0
   36.5374   11.1425  -16.8864 C   0  0  0  0  0  0  0  0  0  0  0  0
   36.7746   11.9269  -15.7884 C   0  0  0  0  0  0  0  0  0  0  0  0
   38.0782   12.3787  -15.6119 C   0  0  0  0  0  0  0  0  0  0  0  0
   39.1010   12.0733  -16.4754 C   0  0  0  0  0  0  0  0  0  0  0  0
   38.1497   14.9785   -9.6293 O   0  0  0  0  0  0  0  0  0  0  0  0
   37.8259   16.1560   -9.0350 C   0  0  0  0  0  0  0  0  0  0  0  0
   37.2327   16.1685   -7.7994 C   0  0  0  0  0  0  0  0  0  0  0  0
   36.9055   17.3782   -7.2153 C   0  0  0  0  0  0  0  0  0  0  0  0
   37.1601   18.5613   -7.8413 C   0  0  0  0  0  0  0  0  0  0  0  0
   37.7551   18.5582   -9.0785 C   0  0  0  0  0  0  0  0  0  0  0  0
   38.0807   17.3444   -9.6603 C   0  0  0  0  0  0  0  0  0  0  0  0
   36.7916   19.8782   -7.2194 C   0  0  0  0  0  0  0  0  0  0  0  0
   35.2946   20.0036   -7.3068 C   0  0  0  0  0  0  0  0  0  0  0  0
   37.5089   20.9529   -8.0077 C   0  0  0  0  0  0  0  0  0  0  0  0
   37.2980   19.8131   -5.7962 C   0  0  0  0  0  0  0  0  0  0  0  0
 28 29  1  0  0  0
 29 30  2  0  0  0
 30 31  1  0  0  0
 31 32  2  0  0  0
 32 26  1  0  0  0
 26 27  2  0  0  0
 27 24  1  0  0  0
 24 25  2  0  0  0
 24 23  1  0  0  0
 23  1  1  0  0  0
  1  2  1  0  0  0
  2  3  1  0  0  0
  3 35  1  0  0  0
 35 36  1  0  0  0
 36 37  2  0  0  0
 37 38  1  0  0  0
 38 39  2  0  0  0
 39 42  1  0  0  0
 42 43  1  0  0  0
 42 44  1  0  0  0
 42 45  1  0  0  0
 39 40  1  0  0  0
 40 41  2  0  0  0
  3  4  1  0  0  0
  4  6  1  0  0  0
  6  7  1  0  0  0
  7 10  1  0  0  0
 10 11  2  0  0  0
 11 12  1  0  0  0
 12 13  2  0  0  0
 13 16  1  0  0  0
 16 18  1  0  0  0
 18 21  1  0  0  0
 21 22  1  0  0  0
 18 19  2  0  0  0
 18 20  2  0  0  0
 13 14  1  0  0  0
 14 15  2  0  0  0
  7  8  2  0  0  0
  4  5  1  0  0  0
 32 33  1  0  0  0
 33 34  2  0  0  0
 34 29  1  0  0  0
  5  1  1  0  0  0
 41 36  1  0  0  0
 15 10  1  0  0  0
  6  9  1  0  0  0
 16 17  1  0  0  0
M  END
> <minimizedAffinity>
-9.24159

> <CNNscore>
0.1573614180

> <CNNaffinity>
6.6136832237

> <CNN_VS>
1.0407385826

> <CNNaffinity_variance>
0.5570759177

$$$$
[H]/C(C(=O)O[C@@]1([H])C([H])([H])[C@]([H])(Oc2c([H])c([H])c(C(C([H])([H])[H])(C([H])([H])[H])C([H])([H])[H])c([H])c2[H])[C@@]([H])(N([H])C(=O)c2c([H])c([H])c(N([H])S(=O)(=O)C([H])([H])C([H])([H])[H])c([H])c2[H])C1([H])[H])=C(/[H])c1c([H])c([H])c(Cl)c([H])c1[H]


 45 48  0  0  0  0  0  0  0  0999 V2000
   36.0027   15.3261  -12.5607 C   0  0  0  0  0  0  0  0  0  0  0  0
   36.3463   15.2547  -11.0858 C   0  0  0  0  0  0  0  0  0  0  0  0
   37.8662   15.0145  -11.0083 C   0  0  0  0  0  0  0  0  0  0  0  0
   38.3205   15.2549  -12.3841 C   0  0  0  0  0  0  0  0  0  0  0  0
   37.1892   14.6843  -13.2353 C   0  0  0  0  0  0  0  0  0  0  0  0
   39.5561   14.5444  -12.6568 N   0  0  0  0  0  0  0  0  0  0  0  0
   40.7577   15.2364  -12.9718 C   0  0  0  0  0  0  0  0  0  0  0  0
   40.7240   16.4853  -12.9984 O   0  0  0  0  0  0  0  0  0  0  0  0
   39.5075   13.5074  -12.6045 H   0  0  0  0  0  0  0  0  0  0  0  0
   41.9769   14.5423  -13.2555 C   0  0  0  0  0  0  0  0  0  0  0  0
   42.0997   13.7719  -14.3825 C   0  0  0  0  0  0  0  0  0  0  0  0
   43.2712   13.0676  -14.6597 C   0  0  0  0  0  0  0  0  0  0  0  0
   44.3522   13.1383  -13.7795 C   0  0  0  0  0  0  0  0  0  0  0  0
   44.2227   13.9120  -12.6496 C   0  0  0  0  0  0  0  0  0  0  0  0
   43.0387   14.6101  -12.3921 C   0  0  0  0  0  0  0  0  0  0  0  0
   45.5563   12.4450  -14.0418 N   0  0  0  0  0  0  0  0  0  0  0  0
   45.7415   11.4908  -13.6049 H   0  0  0  0  0  0  0  0  0  0  0  0
   46.7593   13.0920  -15.0554 S   0  0  0  0  0  0  0  0  0  0  0  0
   46.3256   12.9286  -16.5077 O   0  0  0  0  0  0  0  0  0  0  0  0
   48.0555   12.3870  -14.7967 O   0  0  0  0  0  0  0  0  0  0  0  0
   47.0054   14.8393  -14.8355 C   0  0  0  0  0  0  0  0  0  0  0  0
   48.4456   15.1899  -15.0833 C   0  0  0  0  0  0  0  0  0  0  0  0
   34.7865   14.6584  -12.8350 O   0  0  0  0  0  0  0  0  0  0  0  0
   34.8639   13.4110  -13.4445 C   0  0  0  0  0  0  0  0  0  0  0  0
   34.0086   12.5179  -13.1830 O   0  0  0  0  0  0  0  0  0  0  0  0
   35.8936   12.0907  -15.1791 C   0  0  0  0  0  0  0  0  0  0  0  0
   35.9512   13.1347  -14.3977 C   0  0  0  0  0  0  0  0  0  0  0  0
   40.1789   10.6993  -19.1364 Cl  0  0  0  0  0  0  0  0  0  0  0  0
   38.9395   11.1054  -17.9766 C   0  0  0  0  0  0  0  0  0  0  0  0
   37.6582   10.6776  -18.1656 C   0  0  0  0  0  0  0  0  0  0  0  0
   36.6371   10.9839  -17.2589 C   0  0  0  0  0  0  0  0  0  0  0  0
   36.8976   11.7320  -16.1410 C   0  0  0  0  0  0  0  0  0  0  0  0
   38.2096   12.1590  -15.9656 C   0  0  0  0  0  0  0  0  0  0  0  0
   39.2186   11.8640  -16.8488 C   0  0  0  0  0  0  0  0  0  0  0  0
   38.4295   15.9616  -10.1188 O   0  0  0  0  0  0  0  0  0  0  0  0
   39.4420   15.7106   -9.2490 C   0  0  0  0  0  0  0  0  0  0  0  0
   39.2064   15.0095   -8.0951 C   0  0  0  0  0  0  0  0  0  0  0  0
   40.2502   14.7707   -7.2204 C   0  0  0  0  0  0  0  0  0  0  0  0
   41.5109   15.2174   -7.4799 C   0  0  0  0  0  0  0  0  0  0  0  0
   41.7561   15.9195   -8.6340 C   0  0  0  0  0  0  0  0  0  0  0  0
   40.7079   16.1569   -9.5071 C   0  0  0  0  0  0  0  0  0  0  0  0
   42.6456   14.9759   -6.5255 C   0  0  0  0  0  0  0  0  0  0  0  0
   43.5132   16.2052   -6.5518 C   0  0  0  0  0  0  0  0  0  0  0  0
   43.3754   13.7426   -7.0127 C   0  0  0  0  0  0  0  0  0  0  0  0
   42.0016   14.7347   -5.1789 C   0  0  0  0  0  0  0  0  0  0  0  0
 28 29  1  0  0  0
 29 30  2  0  0  0
 30 31  1  0  0  0
 31 32  2  0  0  0
 32 26  1  0  0  0
 26 27  2  0  0  0
 27 24  1  0  0  0
 24 25  2  0  0  0
 24 23  1  0  0  0
 23  1  1  0  0  0
  1  2  1  0  0  0
  2  3  1  0  0  0
  3 35  1  0  0  0
 35 36  1  0  0  0
 36 37  2  0  0  0
 37 38  1  0  0  0
 38 39  2  0  0  0
 39 42  1  0  0  0
 42 43  1  0  0  0
 42 44  1  0  0  0
 42 45  1  0  0  0
 39 40  1  0  0  0
 40 41  2  0  0  0
  3  4  1  0  0  0
  4  6  1  0  0  0
  6  7  1  0  0  0
  7 10  1  0  0  0
 10 11  2  0  0  0
 11 12  1  0  0  0
 12 13  2  0  0  0
 13 16  1  0  0  0
 16 18  1  0  0  0
 18 21  1  0  0  0
 21 22  1  0  0  0
 18 19  2  0  0  0
 18 20  2  0  0  0
 13 14  1  0  0  0
 14 15  2  0  0  0
  7  8  2  0  0  0
  4  5  1  0  0  0
 32 33  1  0  0  0
 33 34  2  0  0  0
 34 29  1  0  0  0
  5  1  1  0  0  0
 41 36  1  0  0  0
 15 10  1  0  0  0
  6  9  1  0  0  0
 16 17  1  0  0  0
M  END
> <minimizedAffinity>
-8.75719

> <CNNscore>
0.1521070451

> <CNNaffinity>
6.8847098351

> <CNN_VS>
1.0472128391

> <CNNaffinity_variance>
0.3069511056

$$$$
[H]/C(C(=O)O[C@@]1([H])C([H])([H])[C@]([H])(Oc2c([H])c([H])c(C(C([H])([H])[H])(C([H])([H])[H])C([H])([H])[H])c([H])c2[H])[C@@]([H])(N([H])C(=O)c2c([H])c([H])c(N([H])S(=O)(=O)C([H])([H])C([H])([H])[H])c([H])c2[H])C1([H])[H])=C(/[H])c1c([H])c([H])c(Cl)c([H])c1[H]


 45 48  0  0  0  0  0  0  0  0999 V2000
   36.2582   15.1992  -12.0357 C   0  0  0  0  0  0  0  0  0  0  0  0
   36.1600   16.1029  -10.8222 C   0  0  0  0  0  0  0  0  0  0  0  0
   37.6076   16.3861  -10.3773 C   0  0  0  0  0  0  0  0  0  0  0  0
   38.4134   15.8902  -11.5006 C   0  0  0  0  0  0  0  0  0  0  0  0
   37.6582   14.6439  -11.9550 C   0  0  0  0  0  0  0  0  0  0  0  0
   39.7503   15.5314  -11.0650 N   0  0  0  0  0  0  0  0  0  0  0  0
   40.9060   16.0043  -11.7451 C   0  0  0  0  0  0  0  0  0  0  0  0
   40.7389   16.7526  -12.7319 O   0  0  0  0  0  0  0  0  0  0  0  0
   39.8083   14.9149  -10.2300 H   0  0  0  0  0  0  0  0  0  0  0  0
   42.2274   15.6437  -11.3297 C   0  0  0  0  0  0  0  0  0  0  0  0
   43.0171   14.8464  -12.1169 C   0  0  0  0  0  0  0  0  0  0  0  0
   44.2966   14.4636  -11.7146 C   0  0  0  0  0  0  0  0  0  0  0  0
   44.7988   14.8936  -10.4854 C   0  0  0  0  0  0  0  0  0  0  0  0
   44.0013   15.6925   -9.6992 C   0  0  0  0  0  0  0  0  0  0  0  0
   42.7217   16.0644  -10.1230 C   0  0  0  0  0  0  0  0  0  0  0  0
   46.0970   14.5314  -10.0579 N   0  0  0  0  0  0  0  0  0  0  0  0
   46.9051   15.2230  -10.1250 H   0  0  0  0  0  0  0  0  0  0  0  0
   46.4331   12.9895   -9.4235 S   0  0  0  0  0  0  0  0  0  0  0  0
   45.1908   12.4630   -8.7139 O   0  0  0  0  0  0  0  0  0  0  0  0
   47.5934   13.0847   -8.4808 O   0  0  0  0  0  0  0  0  0  0  0  0
   46.8075   11.7777  -10.6698 C   0  0  0  0  0  0  0  0  0  0  0  0
   45.6132   10.8957  -10.9033 C   0  0  0  0  0  0  0  0  0  0  0  0
   35.2650   14.1929  -12.0051 O   0  0  0  0  0  0  0  0  0  0  0  0
   34.8082   13.7064  -13.2249 C   0  0  0  0  0  0  0  0  0  0  0  0
   33.5771   13.4816  -13.4028 O   0  0  0  0  0  0  0  0  0  0  0  0
   36.0971   12.2292  -14.6282 C   0  0  0  0  0  0  0  0  0  0  0  0
   35.7689   13.4521  -14.3110 C   0  0  0  0  0  0  0  0  0  0  0  0
   40.0595   10.8379  -18.9089 Cl  0  0  0  0  0  0  0  0  0  0  0  0
   38.9145   11.2428  -17.6554 C   0  0  0  0  0  0  0  0  0  0  0  0
   37.5968   10.9224  -17.8021 C   0  0  0  0  0  0  0  0  0  0  0  0
   36.6489   11.2316  -16.8199 C   0  0  0  0  0  0  0  0  0  0  0  0
   37.0212   11.8733  -15.6680 C   0  0  0  0  0  0  0  0  0  0  0  0
   38.3688   12.1917  -15.5367 C   0  0  0  0  0  0  0  0  0  0  0  0
   39.3066   11.8930  -16.4939 C   0  0  0  0  0  0  0  0  0  0  0  0
   37.7678   17.7844  -10.2207 O   0  0  0  0  0  0  0  0  0  0  0  0
   37.2867   18.5143   -9.1813 C   0  0  0  0  0  0  0  0  0  0  0  0
   37.7722   19.7721   -8.9344 C   0  0  0  0  0  0  0  0  0  0  0  0
   37.2730   20.4954   -7.8671 C   0  0  0  0  0  0  0  0  0  0  0  0
   36.3067   19.9853   -7.0531 C   0  0  0  0  0  0  0  0  0  0  0  0
   35.8137   18.7268   -7.2939 C   0  0  0  0  0  0  0  0  0  0  0  0
   36.3168   18.0055   -8.3636 C   0  0  0  0  0  0  0  0  0  0  0  0
   35.7723   20.7594   -5.8818 C   0  0  0  0  0  0  0  0  0  0  0  0
   36.2633   22.1744   -6.0273 C   0  0  0  0  0  0  0  0  0  0  0  0
   36.3025   20.0890   -4.6327 C   0  0  0  0  0  0  0  0  0  0  0  0
   34.2672   20.6433   -5.9686 C   0  0  0  0  0  0  0  0  0  0  0  0
 28 29  1  0  0  0
 29 30  2  0  0  0
 30 31  1  0  0  0
 31 32  2  0  0  0
 32 26  1  0  0  0
 26 27  2  0  0  0
 27 24  1  0  0  0
 24 25  2  0  0  0
 24 23  1  0  0  0
 23  1  1  0  0  0
  1  2  1  0  0  0
  2  3  1  0  0  0
  3 35  1  0  0  0
 35 36  1  0  0  0
 36 37  2  0  0  0
 37 38  1  0  0  0
 38 39  2  0  0  0
 39 42  1  0  0  0
 42 43  1  0  0  0
 42 44  1  0  0  0
 42 45  1  0  0  0
 39 40  1  0  0  0
 40 41  2  0  0  0
  3  4  1  0  0  0
  4  6  1  0  0  0
  6  7  1  0  0  0
  7 10  1  0  0  0
 10 11  2  0  0  0
 11 12  1  0  0  0
 12 13  2  0  0  0
 13 16  1  0  0  0
 16 18  1  0  0  0
 18 21  1  0  0  0
 21 22  1  0  0  0
 18 19  2  0  0  0
 18 20  2  0  0  0
 13 14  1  0  0  0
 14 15  2  0  0  0
  7  8  2  0  0  0
  4  5  1  0  0  0
 32 33  1  0  0  0
 33 34  2  0  0  0
 34 29  1  0  0  0
  5  1  1  0  0  0
 41 36  1  0  0  0
 15 10  1  0  0  0
  6  9  1  0  0  0
 16 17  1  0  0  0
M  END
> <minimizedAffinity>
-8.60966

> <CNNscore>
0.1422348917

> <CNNaffinity>
6.3422613144

> <CNN_VS>
0.9020908475

> <CNNaffinity_variance>
0.2770759463

$$$$
[H]/C(C(=O)O[C@@]1([H])C([H])([H])[C@]([H])(Oc2c([H])c([H])c(C(C([H])([H])[H])(C([H])([H])[H])C([H])([H])[H])c([H])c2[H])[C@@]([H])(N([H])C(=O)c2c([H])c([H])c(N([H])S(=O)(=O)C([H])([H])C([H])([H])[H])c([H])c2[H])C1([H])[H])=C(/[H])c1c([H])c([H])c(Cl)c([H])c1[H]


 45 48  0  0  0  0  0  0  0  0999 V2000
   41.1309   14.7281  -13.5074 C   0  0  0  0  0  0  0  0  0  0  0  0
   39.8304   14.9671  -12.7655 C   0  0  0  0  0  0  0  0  0  0  0  0
   40.2036   15.7143  -11.4708 C   0  0  0  0  0  0  0  0  0  0  0  0
   41.6024   16.1034  -11.6922 C   0  0  0  0  0  0  0  0  0  0  0  0
   42.1864   14.9113  -12.4457 C   0  0  0  0  0  0  0  0  0  0  0  0
   42.2985   16.2857  -10.4320 N   0  0  0  0  0  0  0  0  0  0  0  0
   43.6476   16.7324  -10.3856 C   0  0  0  0  0  0  0  0  0  0  0  0
   44.2210   16.9759  -11.4690 O   0  0  0  0  0  0  0  0  0  0  0  0
   41.7518   16.0738   -9.5736 H   0  0  0  0  0  0  0  0  0  0  0  0
   44.3452   16.9015   -9.1473 C   0  0  0  0  0  0  0  0  0  0  0  0
   43.7770   16.5099   -7.9629 C   0  0  0  0  0  0  0  0  0  0  0  0
   44.4319   16.6923   -6.7450 C   0  0  0  0  0  0  0  0  0  0  0  0
   45.6949   17.2855   -6.7145 C   0  0  0  0  0  0  0  0  0  0  0  0
   46.2596   17.6776   -7.9060 C   0  0  0  0  0  0  0  0  0  0  0  0
   45.5849   17.4843   -9.1155 C   0  0  0  0  0  0  0  0  0  0  0  0
   46.3872   17.4712   -5.4956 N   0  0  0  0  0  0  0  0  0  0  0  0
   46.6258   18.4501   -5.1486 H   0  0  0  0  0  0  0  0  0  0  0  0
   46.8715   16.1561   -4.5318 S   0  0  0  0  0  0  0  0  0  0  0  0
   48.1383   16.5361   -3.7736 O   0  0  0  0  0  0  0  0  0  0  0  0
   47.1034   14.9616   -5.4055 O   0  0  0  0  0  0  0  0  0  0  0  0
   45.6881   15.7248   -3.2766 C   0  0  0  0  0  0  0  0  0  0  0  0
   44.8637   14.5527   -3.7295 C   0  0  0  0  0  0  0  0  0  0  0  0
   41.1566   13.4406  -14.0919 O   0  0  0  0  0  0  0  0  0  0  0  0
   40.9920   13.3594  -15.4702 C   0  0  0  0  0  0  0  0  0  0  0  0
   41.9387   13.6734  -16.2465 O   0  0  0  0  0  0  0  0  0  0  0  0
   38.7277   12.5682  -15.2254 C   0  0  0  0  0  0  0  0  0  0  0  0
   39.7049   12.9057  -16.0223 C   0  0  0  0  0  0  0  0  0  0  0  0
   33.3951   10.6433  -17.1794 Cl  0  0  0  0  0  0  0  0  0  0  0  0
   34.9522   11.1952  -16.6164 C   0  0  0  0  0  0  0  0  0  0  0  0
   35.0484   11.9051  -15.4556 C   0  0  0  0  0  0  0  0  0  0  0  0
   36.2786   12.3657  -14.9726 C   0  0  0  0  0  0  0  0  0  0  0  0
   37.4367   12.1141  -15.6601 C   0  0  0  0  0  0  0  0  0  0  0  0
   37.3184   11.3891  -16.8411 C   0  0  0  0  0  0  0  0  0  0  0  0
   36.1168   10.9327  -17.3237 C   0  0  0  0  0  0  0  0  0  0  0  0
   39.3753   16.8568  -11.3527 O   0  0  0  0  0  0  0  0  0  0  0  0
   38.4666   17.0643  -10.3647 C   0  0  0  0  0  0  0  0  0  0  0  0
   37.7234   16.0212   -9.8767 C   0  0  0  0  0  0  0  0  0  0  0  0
   36.7993   16.2556   -8.8754 C   0  0  0  0  0  0  0  0  0  0  0  0
   36.6103   17.5031   -8.3611 C   0  0  0  0  0  0  0  0  0  0  0  0
   37.3513   18.5535   -8.8431 C   0  0  0  0  0  0  0  0  0  0  0  0
   38.2754   18.3145   -9.8464 C   0  0  0  0  0  0  0  0  0  0  0  0
   35.5959   17.7674   -7.2850 C   0  0  0  0  0  0  0  0  0  0  0  0
   34.3360   17.0454   -7.6796 C   0  0  0  0  0  0  0  0  0  0  0  0
   35.4059   19.2676   -7.2185 C   0  0  0  0  0  0  0  0  0  0  0  0
   36.2075   17.2359   -6.0084 C   0  0  0  0  0  0  0  0  0  0  0  0
 28 29  1  0  0  0
 29 30  2  0  0  0
 30 31  1  0  0  0
 31 32  2  0  0  0
 32 26  1  0  0  0
 26 27  2  0  0  0
 27 24  1  0  0  0
 24 25  2  0  0  0
 24 23  1  0  0  0
 23  1  1  0  0  0
  1  2  1  0  0  0
  2  3  1  0  0  0
  3 35  1  0  0  0
 35 36  1  0  0  0
 36 37  2  0  0  0
 37 38  1  0  0  0
 38 39  2  0  0  0
 39 42  1  0  0  0
 42 43  1  0  0  0
 42 44  1  0  0  0
 42 45  1  0  0  0
 39 40  1  0  0  0
 40 41  2  0  0  0
  3  4  1  0  0  0
  4  6  1  0  0  0
  6  7  1  0  0  0
  7 10  1  0  0  0
 10 11  2  0  0  0
 11 12  1  0  0  0
 12 13  2  0  0  0
 13 16  1  0  0  0
 16 18  1  0  0  0
 18 21  1  0  0  0
 21 22  1  0  0  0
 18 19  2  0  0  0
 18 20  2  0  0  0
 13 14  1  0  0  0
 14 15  2  0  0  0
  7  8  2  0  0  0
  4  5  1  0  0  0
 32 33  1  0  0  0
 33 34  2  0  0  0
 34 29  1  0  0  0
  5  1  1  0  0  0
 41 36  1  0  0  0
 15 10  1  0  0  0
  6  9  1  0  0  0
 16 17  1  0  0  0
M  END
> <minimizedAffinity>
-6.91948

> <CNNscore>
0.1327355653

> <CNNaffinity>
6.3982133865

> <CNN_VS>
0.8492704630

> <CNNaffinity_variance>
0.6929643154

$$$$
[H]/C(C(=O)O[C@@]1([H])C([H])([H])[C@]([H])(Oc2c([H])c([H])c(C(C([H])([H])[H])(C([H])([H])[H])C([H])([H])[H])c([H])c2[H])[C@@]([H])(N([H])C(=O)c2c([H])c([H])c(N([H])S(=O)(=O)C([H])([H])C([H])([H])[H])c([H])c2[H])C1([H])[H])=C(/[H])c1c([H])c([H])c(Cl)c([H])c1[H]


 45 48  0  0  0  0  0  0  0  0999 V2000
   42.1767   13.0178  -16.4009 C   0  0  0  0  0  0  0  0  0  0  0  0
   40.8318   13.4407  -15.8432 C   0  0  0  0  0  0  0  0  0  0  0  0
   41.0649   13.7655  -14.3553 C   0  0  0  0  0  0  0  0  0  0  0  0
   42.5286   13.7949  -14.2374 C   0  0  0  0  0  0  0  0  0  0  0  0
   42.9815   12.6762  -15.1720 C   0  0  0  0  0  0  0  0  0  0  0  0
   42.9480   13.5087  -12.8779 N   0  0  0  0  0  0  0  0  0  0  0  0
   43.5292   14.5102  -12.0527 C   0  0  0  0  0  0  0  0  0  0  0  0
   43.6618   15.6574  -12.5301 O   0  0  0  0  0  0  0  0  0  0  0  0
   42.7949   12.5347  -12.5484 H   0  0  0  0  0  0  0  0  0  0  0  0
   43.9580   14.2321  -10.7157 C   0  0  0  0  0  0  0  0  0  0  0  0
   44.1910   15.2500   -9.8278 C   0  0  0  0  0  0  0  0  0  0  0  0
   44.6351   14.9975   -8.5299 C   0  0  0  0  0  0  0  0  0  0  0  0
   44.8520   13.6841   -8.1103 C   0  0  0  0  0  0  0  0  0  0  0  0
   44.6176   12.6668   -9.0062 C   0  0  0  0  0  0  0  0  0  0  0  0
   44.1720   12.9434  -10.3025 C   0  0  0  0  0  0  0  0  0  0  0  0
   45.2898   13.3981   -6.7966 N   0  0  0  0  0  0  0  0  0  0  0  0
   44.5912   13.3128   -5.9964 H   0  0  0  0  0  0  0  0  0  0  0  0
   46.9361   13.1801   -6.4290 S   0  0  0  0  0  0  0  0  0  0  0  0
   47.7362   13.1608   -7.7265 O   0  0  0  0  0  0  0  0  0  0  0  0
   47.1080   11.9001   -5.6700 O   0  0  0  0  0  0  0  0  0  0  0  0
   47.6297   14.5091   -5.4727 C   0  0  0  0  0  0  0  0  0  0  0  0
   46.5856   15.5605   -5.2221 C   0  0  0  0  0  0  0  0  0  0  0  0
   42.0409   11.9265  -17.2902 O   0  0  0  0  0  0  0  0  0  0  0  0
   40.8132   11.7643  -17.9224 C   0  0  0  0  0  0  0  0  0  0  0  0
   40.7576   11.3352  -19.1100 O   0  0  0  0  0  0  0  0  0  0  0  0
   38.5545   11.2833  -17.2298 C   0  0  0  0  0  0  0  0  0  0  0  0
   39.5746   12.0972  -17.1997 C   0  0  0  0  0  0  0  0  0  0  0  0
   33.2605   12.2000  -14.5663 Cl  0  0  0  0  0  0  0  0  0  0  0  0
   34.7972   11.9240  -15.3465 C   0  0  0  0  0  0  0  0  0  0  0  0
   35.9439   12.4128  -14.7927 C   0  0  0  0  0  0  0  0  0  0  0  0
   37.1942   12.2132  -15.3891 C   0  0  0  0  0  0  0  0  0  0  0  0
   37.3045   11.5127  -16.5614 C   0  0  0  0  0  0  0  0  0  0  0  0
   36.1245   11.0223  -17.1106 C   0  0  0  0  0  0  0  0  0  0  0  0
   34.8931   11.2123  -16.5338 C   0  0  0  0  0  0  0  0  0  0  0  0
   40.5113   15.0391  -14.0777 O   0  0  0  0  0  0  0  0  0  0  0  0
   39.7160   15.3307  -13.0160 C   0  0  0  0  0  0  0  0  0  0  0  0
   38.4090   14.9187  -12.9955 C   0  0  0  0  0  0  0  0  0  0  0  0
   37.6152   15.2320  -11.9077 C   0  0  0  0  0  0  0  0  0  0  0  0
   38.1038   15.9425  -10.8528 C   0  0  0  0  0  0  0  0  0  0  0  0
   39.4122   16.3581  -10.8645 C   0  0  0  0  0  0  0  0  0  0  0  0
   40.2037   16.0427  -11.9561 C   0  0  0  0  0  0  0  0  0  0  0  0
   37.2418   16.3006   -9.6757 C   0  0  0  0  0  0  0  0  0  0  0  0
   37.6409   17.6851   -9.2418 C   0  0  0  0  0  0  0  0  0  0  0  0
   37.5035   15.2617   -8.6065 C   0  0  0  0  0  0  0  0  0  0  0  0
   35.8168   16.2247  -10.1756 C   0  0  0  0  0  0  0  0  0  0  0  0
 28 29  1  0  0  0
 29 30  2  0  0  0
 30 31  1  0  0  0
 31 32  2  0  0  0
 32 26  1  0  0  0
 26 27  2  0  0  0
 27 24  1  0  0  0
 24 25  2  0  0  0
 24 23  1  0  0  0
 23  1  1  0  0  0
  1  2  1  0  0  0
  2  3  1  0  0  0
  3 35  1  0  0  0
 35 36  1  0  0  0
 36 37  2  0  0  0
 37 38  1  0  0  0
 38 39  2  0  0  0
 39 42  1  0  0  0
 42 43  1  0  0  0
 42 44  1  0  0  0
 42 45  1  0  0  0
 39 40  1  0  0  0
 40 41  2  0  0  0
  3  4  1  0  0  0
  4  6  1  0  0  0
  6  7  1  0  0  0
  7 10  1  0  0  0
 10 11  2  0  0  0
 11 12  1  0  0  0
 12 13  2  0  0  0
 13 16  1  0  0  0
 16 18  1  0  0  0
 18 21  1  0  0  0
 21 22  1  0  0  0
 18 19  2  0  0  0
 18 20  2  0  0  0
 13 14  1  0  0  0
 14 15  2  0  0  0
  7  8  2  0  0  0
  4  5  1  0  0  0
 32 33  1  0  0  0
 33 34  2  0  0  0
 34 29  1  0  0  0
  5  1  1  0  0  0
 41 36  1  0  0  0
 15 10  1  0  0  0
  6  9  1  0  0  0
 16 17  1  0  0  0
M  END
> <minimizedAffinity>
-8.40316

> <CNNscore>
0.1264044195

> <CNNaffinity>
6.8614540100

> <CNN_VS>
0.8673180938

> <CNNaffinity_variance>
0.1542386413

$$$$
[H]/C(C(=O)O[C@@]1([H])C([H])([H])[C@]([H])(Oc2c([H])c([H])c(C(C([H])([H])[H])(C([H])([H])[H])C([H])([H])[H])c([H])c2[H])[C@@]([H])(N([H])C(=O)c2c([H])c([H])c(N([H])S(=O)(=O)C([H])([H])C([H])([H])[H])c([H])c2[H])C1([H])[H])=C(/[H])c1c([H])c([H])c(Cl)c([H])c1[H]


 45 48  0  0  0  0  0  0  0  0999 V2000
   37.4343   17.3106   -9.0399 C   0  0  0  0  0  0  0  0  0  0  0  0
   37.9636   16.4419   -7.9156 C   0  0  0  0  0  0  0  0  0  0  0  0
   39.1604   15.6655   -8.4975 C   0  0  0  0  0  0  0  0  0  0  0  0
   39.4134   16.3378   -9.7784 C   0  0  0  0  0  0  0  0  0  0  0  0
   38.0133   16.6797  -10.2814 C   0  0  0  0  0  0  0  0  0  0  0  0
   40.0747   15.4465  -10.7134 N   0  0  0  0  0  0  0  0  0  0  0  0
   40.5409   15.9060  -11.9757 C   0  0  0  0  0  0  0  0  0  0  0  0
   40.3734   17.1118  -12.2578 O   0  0  0  0  0  0  0  0  0  0  0  0
   40.1874   14.4609  -10.4027 H   0  0  0  0  0  0  0  0  0  0  0  0
   41.1818   15.0299  -12.9087 C   0  0  0  0  0  0  0  0  0  0  0  0
   40.4901   14.5098  -13.9716 C   0  0  0  0  0  0  0  0  0  0  0  0
   41.0921   13.6335  -14.8744 C   0  0  0  0  0  0  0  0  0  0  0  0
   42.4285   13.2679  -14.7056 C   0  0  0  0  0  0  0  0  0  0  0  0
   43.1173   13.7921  -13.6364 C   0  0  0  0  0  0  0  0  0  0  0  0
   42.4935   14.6695  -12.7440 C   0  0  0  0  0  0  0  0  0  0  0  0
   43.0679   12.3915  -15.6125 N   0  0  0  0  0  0  0  0  0  0  0  0
   42.5954   11.4876  -15.9211 H   0  0  0  0  0  0  0  0  0  0  0  0
   44.6084   12.7298  -16.2492 S   0  0  0  0  0  0  0  0  0  0  0  0
   44.6969   14.2173  -16.5712 O   0  0  0  0  0  0  0  0  0  0  0  0
   44.8303   11.8981  -17.4752 O   0  0  0  0  0  0  0  0  0  0  0  0
   45.9317   12.4212  -15.1022 C   0  0  0  0  0  0  0  0  0  0  0  0
   46.6649   13.6997  -14.8083 C   0  0  0  0  0  0  0  0  0  0  0  0
   36.0203   17.3356   -9.0440 O   0  0  0  0  0  0  0  0  0  0  0  0
   35.3590   16.1350   -9.2778 C   0  0  0  0  0  0  0  0  0  0  0  0
   34.7915   15.5226   -8.3289 O   0  0  0  0  0  0  0  0  0  0  0  0
   35.9221   14.4488  -10.9065 C   0  0  0  0  0  0  0  0  0  0  0  0
   35.3245   15.5783  -10.6403 C   0  0  0  0  0  0  0  0  0  0  0  0
   35.8811   11.8539  -16.3125 Cl  0  0  0  0  0  0  0  0  0  0  0  0
   35.8860   12.6171  -14.7429 C   0  0  0  0  0  0  0  0  0  0  0  0
   36.9466   12.4472  -13.9021 C   0  0  0  0  0  0  0  0  0  0  0  0
   36.9864   13.0416  -12.6357 C   0  0  0  0  0  0  0  0  0  0  0  0
   35.9483   13.8211  -12.1976 C   0  0  0  0  0  0  0  0  0  0  0  0
   34.8761   13.9826  -13.0688 C   0  0  0  0  0  0  0  0  0  0  0  0
   34.8271   13.4041  -14.3129 C   0  0  0  0  0  0  0  0  0  0  0  0
   40.2647   15.8142   -7.6235 O   0  0  0  0  0  0  0  0  0  0  0  0
   40.9186   14.7939   -7.0102 C   0  0  0  0  0  0  0  0  0  0  0  0
   42.2398   14.9232   -6.6693 C   0  0  0  0  0  0  0  0  0  0  0  0
   42.8881   13.8697   -6.0516 C   0  0  0  0  0  0  0  0  0  0  0  0
   42.2418   12.7031   -5.7728 C   0  0  0  0  0  0  0  0  0  0  0  0
   40.9180   12.5654   -6.1097 C   0  0  0  0  0  0  0  0  0  0  0  0
   40.2726   13.6227   -6.7287 C   0  0  0  0  0  0  0  0  0  0  0  0
   42.9450   11.5488   -5.1172 C   0  0  0  0  0  0  0  0  0  0  0  0
   43.6347   10.7753   -6.2082 C   0  0  0  0  0  0  0  0  0  0  0  0
   41.8846   10.7317   -4.4107 C   0  0  0  0  0  0  0  0  0  0  0  0
   43.9088   12.1662   -4.1293 C   0  0  0  0  0  0  0  0  0  0  0  0
 28 29  1  0  0  0
 29 30  2  0  0  0
 30 31  1  0  0  0
 31 32  2  0  0  0
 32 26  1  0  0  0
 26 27  2  0  0  0
 27 24  1  0  0  0
 24 25  2  0  0  0
 24 23  1  0  0  0
 23  1  1  0  0  0
  1  2  1  0  0  0
  2  3  1  0  0  0
  3 35  1  0  0  0
 35 36  1  0  0  0
 36 37  2  0  0  0
 37 38  1  0  0  0
 38 39  2  0  0  0
 39 42  1  0  0  0
 42 43  1  0  0  0
 42 44  1  0  0  0
 42 45  1  0  0  0
 39 40  1  0  0  0
 40 41  2  0  0  0
  3  4  1  0  0  0
  4  6  1  0  0  0
  6  7  1  0  0  0
  7 10  1  0  0  0
 10 11  2  0  0  0
 11 12  1  0  0  0
 12 13  2  0  0  0
 13 16  1  0  0  0
 16 18  1  0  0  0
 18 21  1  0  0  0
 21 22  1  0  0  0
 18 19  2  0  0  0
 18 20  2  0  0  0
 13 14  1  0  0  0
 14 15  2  0  0  0
  7  8  2  0  0  0
  4  5  1  0  0  0
 32 33  1  0  0  0
 33 34  2  0  0  0
 34 29  1  0  0  0
  5  1  1  0  0  0
 41 36  1  0  0  0
 15 10  1  0  0  0
  6  9  1  0  0  0
 16 17  1  0  0  0
M  END
> <minimizedAffinity>
-7.62730

> <CNNscore>
0.1244160309

> <CNNaffinity>
6.6059212685

> <CNN_VS>
0.8218824863

> <CNNaffinity_variance>
0.2732371390

$$$$
[H]/C(C(=O)O[C@@]1([H])C([H])([H])[C@]([H])(Oc2c([H])c([H])c(C(C([H])([H])[H])(C([H])([H])[H])C([H])([H])[H])c([H])c2[H])[C@@]([H])(N([H])C(=O)c2c([H])c([H])c(N([H])S(=O)(=O)C([H])([H])C([H])([H])[H])c([H])c2[H])C1([H])[H])=C(/[H])c1c([H])c([H])c(Cl)c([H])c1[H]


 45 48  0  0  0  0  0  0  0  0999 V2000
   36.0745   14.6987  -11.8148 C   0  0  0  0  0  0  0  0  0  0  0  0
   35.8658   14.9183  -10.3292 C   0  0  0  0  0  0  0  0  0  0  0  0
   37.2409   15.3077   -9.7535 C   0  0  0  0  0  0  0  0  0  0  0  0
   38.0510   15.5678  -10.9506 C   0  0  0  0  0  0  0  0  0  0  0  0
   37.5659   14.5137  -11.9423 C   0  0  0  0  0  0  0  0  0  0  0  0
   39.4634   15.3802  -10.6753 N   0  0  0  0  0  0  0  0  0  0  0  0
   40.4642   16.0380  -11.4419 C   0  0  0  0  0  0  0  0  0  0  0  0
   40.0918   16.7972  -12.3619 O   0  0  0  0  0  0  0  0  0  0  0  0
   39.6941   14.7426   -9.8873 H   0  0  0  0  0  0  0  0  0  0  0  0
   41.8593   15.8472  -11.1852 C   0  0  0  0  0  0  0  0  0  0  0  0
   42.7058   15.4342  -12.1810 C   0  0  0  0  0  0  0  0  0  0  0  0
   44.0626   15.2176  -11.9410 C   0  0  0  0  0  0  0  0  0  0  0  0
   44.5859   15.4214  -10.6632 C   0  0  0  0  0  0  0  0  0  0  0  0
   43.7314   15.8346   -9.6676 C   0  0  0  0  0  0  0  0  0  0  0  0
   42.3745   16.0462   -9.9312 C   0  0  0  0  0  0  0  0  0  0  0  0
   45.9596   15.2218  -10.3944 N   0  0  0  0  0  0  0  0  0  0  0  0
   46.6780   15.9667  -10.6485 H   0  0  0  0  0  0  0  0  0  0  0  0
   46.5307   13.7971   -9.6615 S   0  0  0  0  0  0  0  0  0  0  0  0
   46.7682   14.0620   -8.1791 O   0  0  0  0  0  0  0  0  0  0  0  0
   47.7931   13.3631  -10.3412 O   0  0  0  0  0  0  0  0  0  0  0  0
   45.3633   12.4568   -9.7148 C   0  0  0  0  0  0  0  0  0  0  0  0
   45.4054   11.7927  -11.0623 C   0  0  0  0  0  0  0  0  0  0  0  0
   35.3404   13.5806  -12.2741 O   0  0  0  0  0  0  0  0  0  0  0  0
   34.8064   13.6476  -13.5562 C   0  0  0  0  0  0  0  0  0  0  0  0
   33.5951   13.9653  -13.7282 O   0  0  0  0  0  0  0  0  0  0  0  0
   36.4416   12.2980  -14.7039 C   0  0  0  0  0  0  0  0  0  0  0  0
   35.6612   13.3443  -14.7157 C   0  0  0  0  0  0  0  0  0  0  0  0
   40.1770   10.7971  -19.1485 Cl  0  0  0  0  0  0  0  0  0  0  0  0
   39.0986   11.2349  -17.8478 C   0  0  0  0  0  0  0  0  0  0  0  0
   37.7931   10.8408  -17.8787 C   0  0  0  0  0  0  0  0  0  0  0  0
   36.8979   11.1733  -16.8555 C   0  0  0  0  0  0  0  0  0  0  0  0
   37.3117   11.9137  -15.7795 C   0  0  0  0  0  0  0  0  0  0  0  0
   38.6460   12.3062  -15.7659 C   0  0  0  0  0  0  0  0  0  0  0  0
   39.5322   11.9854  -16.7642 C   0  0  0  0  0  0  0  0  0  0  0  0
   37.0913   16.4849   -8.9806 O   0  0  0  0  0  0  0  0  0  0  0  0
   36.2910   16.6070   -7.8901 C   0  0  0  0  0  0  0  0  0  0  0  0
   36.4583   15.7780   -6.8115 C   0  0  0  0  0  0  0  0  0  0  0  0
   35.6284   15.9152   -5.7142 C   0  0  0  0  0  0  0  0  0  0  0  0
   34.6457   16.8583   -5.6803 C   0  0  0  0  0  0  0  0  0  0  0  0
   34.4718   17.6938   -6.7558 C   0  0  0  0  0  0  0  0  0  0  0  0
   35.3048   17.5527   -7.8530 C   0  0  0  0  0  0  0  0  0  0  0  0
   33.7298   17.0013   -4.4981 C   0  0  0  0  0  0  0  0  0  0  0  0
   34.0265   15.8552   -3.5692 C   0  0  0  0  0  0  0  0  0  0  0  0
   32.3138   16.9616   -5.0314 C   0  0  0  0  0  0  0  0  0  0  0  0
   34.0500   18.3502   -3.8948 C   0  0  0  0  0  0  0  0  0  0  0  0
 28 29  1  0  0  0
 29 30  2  0  0  0
 30 31  1  0  0  0
 31 32  2  0  0  0
 32 26  1  0  0  0
 26 27  2  0  0  0
 27 24  1  0  0  0
 24 25  2  0  0  0
 24 23  1  0  0  0
 23  1  1  0  0  0
  1  2  1  0  0  0
  2  3  1  0  0  0
  3 35  1  0  0  0
 35 36  1  0  0  0
 36 37  2  0  0  0
 37 38  1  0  0  0
 38 39  2  0  0  0
 39 42  1  0  0  0
 42 43  1  0  0  0
 42 44  1  0  0  0
 42 45  1  0  0  0
 39 40  1  0  0  0
 40 41  2  0  0  0
  3  4  1  0  0  0
  4  6  1  0  0  0
  6  7  1  0  0  0
  7 10  1  0  0  0
 10 11  2  0  0  0
 11 12  1  0  0  0
 12 13  2  0  0  0
 13 16  1  0  0  0
 16 18  1  0  0  0
 18 21  1  0  0  0
 21 22  1  0  0  0
 18 19  2  0  0  0
 18 20  2  0  0  0
 13 14  1  0  0  0
 14 15  2  0  0  0
  7  8  2  0  0  0
  4  5  1  0  0  0
 32 33  1  0  0  0
 33 34  2  0  0  0
 34 29  1  0  0  0
  5  1  1  0  0  0
 41 36  1  0  0  0
 15 10  1  0  0  0
  6  9  1  0  0  0
 16 17  1  0  0  0
M  END
> <minimizedAffinity>
-8.16700

> <CNNscore>
0.1225818619

> <CNNaffinity>
6.2063021660

> <CNN_VS>
0.7607800961

> <CNNaffinity_variance>
0.4240088463

$$$$
[H]c1nc(N([H])[H])c2nc([H])c(-c3c([H])c([H])c(N([H])C(=O)C(C([H])([H])[H])(C([H])([H])[H])C([H])([H])[H])c([H])c3[H])c([H])c2n1


 27 29  0  0  0  0  0  0  0  0999 V2000
   44.1361   14.2418  -13.9990 C   0  0  0  0  0  0  0  0  0  0  0  0
   44.3069   13.7285  -15.2887 C   0  0  0  0  0  0  0  0  0  0  0  0
   43.2595   13.1869  -15.9828 C   0  0  0  0  0  0  0  0  0  0  0  0
   41.9923   13.1106  -15.4725 C   0  0  0  0  0  0  0  0  0  0  0  0
   41.8059   13.6101  -14.2065 C   0  0  0  0  0  0  0  0  0  0  0  0
   42.8681   14.1616  -13.4975 C   0  0  0  0  0  0  0  0  0  0  0  0
   40.8778   12.5297  -16.2231 C   0  0  0  0  0  0  0  0  0  0  0  0
   41.0730   12.0561  -17.5122 C   0  0  0  0  0  0  0  0  0  0  0  0
   40.0907   11.5114  -18.2538 N   0  0  0  0  0  0  0  0  0  0  0  0
   38.8642   11.4064  -17.7603 C   0  0  0  0  0  0  0  0  0  0  0  0
   37.8764   10.8396  -18.5528 C   0  0  0  0  0  0  0  0  0  0  0  0
   38.1176   10.3693  -19.8610 N   0  0  0  0  0  0  0  0  0  0  0  0
   36.6469   10.7585  -17.9984 N   0  0  0  0  0  0  0  0  0  0  0  0
   36.3677   11.1925  -16.7560 C   0  0  0  0  0  0  0  0  0  0  0  0
   37.3601   11.7350  -16.0259 N   0  0  0  0  0  0  0  0  0  0  0  0
   38.6260   11.8652  -16.4813 C   0  0  0  0  0  0  0  0  0  0  0  0
   39.6090   12.4283  -15.6949 C   0  0  0  0  0  0  0  0  0  0  0  0
   37.7141    9.4705  -20.1719 H   0  0  0  0  0  0  0  0  0  0  0  0
   38.6977   10.9178  -20.5161 H   0  0  0  0  0  0  0  0  0  0  0  0
   45.7610   16.0750  -13.3778 C   0  0  0  0  0  0  0  0  0  0  0  0
   45.3480   16.9934  -14.1246 O   0  0  0  0  0  0  0  0  0  0  0  0
   45.2159   14.7922  -13.3022 N   0  0  0  0  0  0  0  0  0  0  0  0
   45.6958   14.1336  -12.6083 H   0  0  0  0  0  0  0  0  0  0  0  0
   47.8349   15.2486  -12.3835 C   0  0  0  0  0  0  0  0  0  0  0  0
   46.9442   16.4514  -12.5178 C   0  0  0  0  0  0  0  0  0  0  0  0
   47.6603   17.6098  -13.1577 C   0  0  0  0  0  0  0  0  0  0  0  0
   46.3964   16.8015  -11.1441 C   0  0  0  0  0  0  0  0  0  0  0  0
 24 25  1  0  0  0
 25 26  1  0  0  0
 25 27  1  0  0  0
 25 20  1  0  0  0
 20 21  2  0  0  0
 20 22  1  0  0  0
 22  1  1  0  0  0
  1  2  2  0  0  0
  2  3  1  0  0  0
  3  4  2  0  0  0
  4  5  1  0  0  0
  5  6  2  0  0  0
  4  7  1  0  0  0
  7  8  2  0  0  0
  8  9  1  0  0  0
  9 10  2  0  0  0
 10 11  1  0  0  0
 11 12  1  0  0  0
 11 13  2  0  0  0
 13 14  1  0  0  0
 14 15  2  0  0  0
 15 16  1  0  0  0
 16 17  2  0  0  0
  6  1  1  0  0  0
 17  7  1  0  0  0
 16 10  1  0  0  0
 22 23  1  0  0  0
 12 18  1  0  0  0
 12 19  1  0  0  0
M  END
> <minimizedAffinity>
-7.37371

> <CNNscore>
0.7995533347

> <CNNaffinity>
6.5123696327

> <CNN_VS>
5.2069869041

> <CNNaffinity_variance>
0.2120484114

$$$$
[H]c1nc(N([H])[H])c2nc([H])c(-c3c([H])c([H])c(N([H])C(=O)C(C([H])([H])[H])(C([H])([H])[H])C([H])([H])[H])c([H])c3[H])c([H])c2n1


 27 29  0  0  0  0  0  0  0  0999 V2000
   36.1976   14.8109  -10.9239 C   0  0  0  0  0  0  0  0  0  0  0  0
   35.5791   13.8777  -11.7621 C   0  0  0  0  0  0  0  0  0  0  0  0
   36.2199   13.3753  -12.8617 C   0  0  0  0  0  0  0  0  0  0  0  0
   37.4897   13.7444  -13.2130 C   0  0  0  0  0  0  0  0  0  0  0  0
   38.1129   14.6605  -12.4008 C   0  0  0  0  0  0  0  0  0  0  0  0
   37.4649   15.1736  -11.2819 C   0  0  0  0  0  0  0  0  0  0  0  0
   38.1673   13.2008  -14.3913 C   0  0  0  0  0  0  0  0  0  0  0  0
   39.5074   13.4775  -14.6184 C   0  0  0  0  0  0  0  0  0  0  0  0
   40.1869   13.0084  -15.6813 N   0  0  0  0  0  0  0  0  0  0  0  0
   39.5775   12.2414  -16.5753 C   0  0  0  0  0  0  0  0  0  0  0  0
   40.3087   11.7756  -17.6585 C   0  0  0  0  0  0  0  0  0  0  0  0
   41.6727   12.0808  -17.8522 N   0  0  0  0  0  0  0  0  0  0  0  0
   39.6366   10.9990  -18.5365 N   0  0  0  0  0  0  0  0  0  0  0  0
   38.3373   10.6802  -18.3951 C   0  0  0  0  0  0  0  0  0  0  0  0
   37.6705   11.1566  -17.3271 N   0  0  0  0  0  0  0  0  0  0  0  0
   38.2441   11.9413  -16.3879 C   0  0  0  0  0  0  0  0  0  0  0  0
   37.5187   12.4052  -15.3107 C   0  0  0  0  0  0  0  0  0  0  0  0
   42.3307   11.3452  -18.1573 H   0  0  0  0  0  0  0  0  0  0  0  0
   42.0229   13.0389  -17.6910 H   0  0  0  0  0  0  0  0  0  0  0  0
   35.5653   14.8798   -8.4780 C   0  0  0  0  0  0  0  0  0  0  0  0
   36.2386   13.9116   -8.0524 O   0  0  0  0  0  0  0  0  0  0  0  0
   35.5302   15.3153   -9.8038 N   0  0  0  0  0  0  0  0  0  0  0  0
   34.8992   16.1597   -9.9893 H   0  0  0  0  0  0  0  0  0  0  0  0
   33.5941   16.2728   -8.0952 C   0  0  0  0  0  0  0  0  0  0  0  0
   34.7501   15.5882   -7.4222 C   0  0  0  0  0  0  0  0  0  0  0  0
   34.2886   14.5782   -6.4067 C   0  0  0  0  0  0  0  0  0  0  0  0
   35.6492   16.6497   -6.8102 C   0  0  0  0  0  0  0  0  0  0  0  0
 24 25  1  0  0  0
 25 26  1  0  0  0
 25 27  1  0  0  0
 25 20  1  0  0  0
 20 21  2  0  0  0
 20 22  1  0  0  0
 22  1  1  0  0  0
  1  2  2  0  0  0
  2  3  1  0  0  0
  3  4  2  0  0  0
  4  5  1  0  0  0
  5  6  2  0  0  0
  4  7  1  0  0  0
  7  8  2  0  0  0
  8  9  1  0  0  0
  9 10  2  0  0  0
 10 11  1  0  0  0
 11 12  1  0  0  0
 11 13  2  0  0  0
 13 14  1  0  0  0
 14 15  2  0  0  0
 15 16  1  0  0  0
 16 17  2  0  0  0
  6  1  1  0  0  0
 17  7  1  0  0  0
 16 10  1  0  0  0
 22 23  1  0  0  0
 12 18  1  0  0  0
 12 19  1  0  0  0
M  END
> <minimizedAffinity>
-7.57832

> <CNNscore>
0.7299377918

> <CNNaffinity>
6.4051771164

> <CNN_VS>
4.6753807068

> <CNNaffinity_variance>
0.1708674133

$$$$
[H]c1nc(N([H])[H])c2nc([H])c(-c3c([H])c([H])c(N([H])C(=O)C(C([H])([H])[H])(C([H])([H])[H])C([H])([H])[H])c([H])c3[H])c([H])c2n1


 27 29  0  0  0  0  0  0  0  0999 V2000
   36.3669   14.1727  -11.2939 C   0  0  0  0  0  0  0  0  0  0  0  0
   37.5698   14.6295  -11.8419 C   0  0  0  0  0  0  0  0  0  0  0  0
   38.0462   14.1327  -13.0244 C   0  0  0  0  0  0  0  0  0  0  0  0
   37.3903   13.1699  -13.7421 C   0  0  0  0  0  0  0  0  0  0  0  0
   36.2066   12.7094  -13.2187 C   0  0  0  0  0  0  0  0  0  0  0  0
   35.7188   13.2119  -12.0168 C   0  0  0  0  0  0  0  0  0  0  0  0
   37.9079   12.6449  -15.0067 C   0  0  0  0  0  0  0  0  0  0  0  0
   37.0516   12.0467  -15.9195 C   0  0  0  0  0  0  0  0  0  0  0  0
   37.4646   11.5453  -17.0983 N   0  0  0  0  0  0  0  0  0  0  0  0
   38.7453   11.6087  -17.4366 C   0  0  0  0  0  0  0  0  0  0  0  0
   39.1355   11.0818  -18.6593 C   0  0  0  0  0  0  0  0  0  0  0  0
   38.2308   10.4811  -19.5602 N   0  0  0  0  0  0  0  0  0  0  0  0
   40.4516   11.1743  -18.9509 N   0  0  0  0  0  0  0  0  0  0  0  0
   41.3523   11.7376  -18.1254 C   0  0  0  0  0  0  0  0  0  0  0  0
   40.9246   12.2349  -16.9498 N   0  0  0  0  0  0  0  0  0  0  0  0
   39.6318   12.1957  -16.5576 C   0  0  0  0  0  0  0  0  0  0  0  0
   39.2423   12.7190  -15.3425 C   0  0  0  0  0  0  0  0  0  0  0  0
   38.2940   10.6835  -20.5713 H   0  0  0  0  0  0  0  0  0  0  0  0
   37.5004    9.8366  -19.2172 H   0  0  0  0  0  0  0  0  0  0  0  0
   34.7489   15.4488   -9.8306 C   0  0  0  0  0  0  0  0  0  0  0  0
   33.9144   15.8101  -10.6937 O   0  0  0  0  0  0  0  0  0  0  0  0
   35.8928   14.6901  -10.0847 N   0  0  0  0  0  0  0  0  0  0  0  0
   36.4949   14.4727   -9.2269 H   0  0  0  0  0  0  0  0  0  0  0  0
   34.8087   14.8017   -7.4747 C   0  0  0  0  0  0  0  0  0  0  0  0
   34.4334   15.9033   -8.4253 C   0  0  0  0  0  0  0  0  0  0  0  0
   35.1945   17.1703   -8.1427 C   0  0  0  0  0  0  0  0  0  0  0  0
   32.9292   16.1083   -8.3561 C   0  0  0  0  0  0  0  0  0  0  0  0
 24 25  1  0  0  0
 25 26  1  0  0  0
 25 27  1  0  0  0
 25 20  1  0  0  0
 20 21  2  0  0  0
 20 22  1  0  0  0
 22  1  1  0  0  0
  1  2  2  0  0  0
  2  3  1  0  0  0
  3  4  2  0  0  0
  4  5  1  0  0  0
  5  6  2  0  0  0
  4  7  1  0  0  0
  7  8  2  0  0  0
  8  9  1  0  0  0
  9 10  2  0  0  0
 10 11  1  0  0  0
 11 12  1  0  0  0
 11 13  2  0  0  0
 13 14  1  0  0  0
 14 15  2  0  0  0
 15 16  1  0  0  0
 16 17  2  0  0  0
  6  1  1  0  0  0
 17  7  1  0  0  0
 16 10  1  0  0  0
 22 23  1  0  0  0
 12 18  1  0  0  0
 12 19  1  0  0  0
M  END
> <minimizedAffinity>
-7.69622

> <CNNscore>
0.7261785269

> <CNNaffinity>
6.5241560936

> <CNN_VS>
4.7377018929

> <CNNaffinity_variance>
0.2063353360

$$$$
[H]c1nc(N([H])[H])c2nc([H])c(-c3c([H])c([H])c(N([H])C(=O)C(C([H])([H])[H])(C([H])([H])[H])C([H])([H])[H])c([H])c3[H])c([H])c2n1


 27 29  0  0  0  0  0  0  0  0999 V2000
   42.7666   15.0415  -12.5677 C   0  0  0  0  0  0  0  0  0  0  0  0
   43.3316   14.0397  -13.3635 C   0  0  0  0  0  0  0  0  0  0  0  0
   42.5947   13.3860  -14.3130 C   0  0  0  0  0  0  0  0  0  0  0  0
   41.2750   13.6616  -14.5469 C   0  0  0  0  0  0  0  0  0  0  0  0
   40.7034   14.6430  -13.7743 C   0  0  0  0  0  0  0  0  0  0  0  0
   41.4491   15.3102  -12.8080 C   0  0  0  0  0  0  0  0  0  0  0  0
   40.4949   12.9568  -15.5656 C   0  0  0  0  0  0  0  0  0  0  0  0
   41.0783   12.6013  -16.7728 C   0  0  0  0  0  0  0  0  0  0  0  0
   40.4160   11.9529  -17.7488 N   0  0  0  0  0  0  0  0  0  0  0  0
   39.1425   11.6221  -17.5827 C   0  0  0  0  0  0  0  0  0  0  0  0
   38.4911   10.9542  -18.6096 C   0  0  0  0  0  0  0  0  0  0  0  0
   39.1225   10.6105  -19.8237 N   0  0  0  0  0  0  0  0  0  0  0  0
   37.1957   10.6426  -18.3849 N   0  0  0  0  0  0  0  0  0  0  0  0
   36.5503   10.9484  -17.2448 C   0  0  0  0  0  0  0  0  0  0  0  0
   37.2256   11.5971  -16.2775 N   0  0  0  0  0  0  0  0  0  0  0  0
   38.5230   11.9567  -16.3963 C   0  0  0  0  0  0  0  0  0  0  0  0
   39.1720   12.6206  -15.3765 C   0  0  0  0  0  0  0  0  0  0  0  0
   38.9673    9.6796  -20.2439 H   0  0  0  0  0  0  0  0  0  0  0  0
   39.7430   11.2845  -20.3004 H   0  0  0  0  0  0  0  0  0  0  0  0
   43.6726   15.4265  -10.2399 C   0  0  0  0  0  0  0  0  0  0  0  0
   43.1027   14.4923   -9.6281 O   0  0  0  0  0  0  0  0  0  0  0  0
   43.5324   15.7008  -11.6015 N   0  0  0  0  0  0  0  0  0  0  0  0
   44.0942   16.5394  -11.9573 H   0  0  0  0  0  0  0  0  0  0  0  0
   45.6705   15.4239   -8.8325 C   0  0  0  0  0  0  0  0  0  0  0  0
   44.5672   16.2858   -9.3784 C   0  0  0  0  0  0  0  0  0  0  0  0
   45.1020   17.4183  -10.2125 C   0  0  0  0  0  0  0  0  0  0  0  0
   43.7197   16.7774   -8.2167 C   0  0  0  0  0  0  0  0  0  0  0  0
 24 25  1  0  0  0
 25 26  1  0  0  0
 25 27  1  0  0  0
 25 20  1  0  0  0
 20 21  2  0  0  0
 20 22  1  0  0  0
 22  1  1  0  0  0
  1  2  2  0  0  0
  2  3  1  0  0  0
  3  4  2  0  0  0
  4  5  1  0  0  0
  5  6  2  0  0  0
  4  7  1  0  0  0
  7  8  2  0  0  0
  8  9  1  0  0  0
  9 10  2  0  0  0
 10 11  1  0  0  0
 11 12  1  0  0  0
 11 13  2  0  0  0
 13 14  1  0  0  0
 14 15  2  0  0  0
 15 16  1  0  0  0
 16 17  2  0  0  0
  6  1  1  0  0  0
 17  7  1  0  0  0
 16 10  1  0  0  0
 22 23  1  0  0  0
 12 18  1  0  0  0
 12 19  1  0  0  0
M  END
> <minimizedAffinity>
-7.24095

> <CNNscore>
0.6761435270

> <CNNaffinity>
6.3248734474

> <CNN_VS>
4.2765221596

> <CNNaffinity_variance>
0.2796010375

$$$$
[H]c1nc(N([H])[H])c2nc([H])c(-c3c([H])c([H])c(N([H])C(=O)C(C([H])([H])[H])(C([H])([H])[H])C([H])([H])[H])c([H])c3[H])c([H])c2n1


 27 29  0  0  0  0  0  0  0  0999 V2000
   37.7948   15.8619  -10.7709 C   0  0  0  0  0  0  0  0  0  0  0  0
   38.9779   15.8917  -11.5162 C   0  0  0  0  0  0  0  0  0  0  0  0
   39.1325   15.1201  -12.6354 C   0  0  0  0  0  0  0  0  0  0  0  0
   38.1569   14.2789  -13.0967 C   0  0  0  0  0  0  0  0  0  0  0  0
   36.9877   14.2368  -12.3769 C   0  0  0  0  0  0  0  0  0  0  0  0
   36.8264   15.0197  -11.2385 C   0  0  0  0  0  0  0  0  0  0  0  0
   38.3316   13.4575  -14.2958 C   0  0  0  0  0  0  0  0  0  0  0  0
   37.2849   12.6816  -14.7717 C   0  0  0  0  0  0  0  0  0  0  0  0
   37.3815   11.9059  -15.8674 N   0  0  0  0  0  0  0  0  0  0  0  0
   38.5175   11.8565  -16.5499 C   0  0  0  0  0  0  0  0  0  0  0  0
   38.5813   11.0462  -17.6744 C   0  0  0  0  0  0  0  0  0  0  0  0
   37.4913   10.2719  -18.1254 N   0  0  0  0  0  0  0  0  0  0  0  0
   39.7627   11.0353  -18.3298 N   0  0  0  0  0  0  0  0  0  0  0  0
   40.8297   11.7557  -17.9394 C   0  0  0  0  0  0  0  0  0  0  0  0
   40.7184   12.5269  -16.8416 N   0  0  0  0  0  0  0  0  0  0  0  0
   39.5845   12.6129  -16.1112 C   0  0  0  0  0  0  0  0  0  0  0  0
   39.5194   13.4178  -14.9932 C   0  0  0  0  0  0  0  0  0  0  0  0
   37.2677   10.2280  -19.1330 H   0  0  0  0  0  0  0  0  0  0  0  0
   36.9102    9.7446  -17.4540 H   0  0  0  0  0  0  0  0  0  0  0  0
   37.6799   18.0464   -9.5050 C   0  0  0  0  0  0  0  0  0  0  0  0
   37.8481   18.8536  -10.4495 O   0  0  0  0  0  0  0  0  0  0  0  0
   37.6515   16.6563   -9.6293 N   0  0  0  0  0  0  0  0  0  0  0  0
   37.4971   16.1204   -8.7158 H   0  0  0  0  0  0  0  0  0  0  0  0
   38.3792   17.9802   -7.1642 C   0  0  0  0  0  0  0  0  0  0  0  0
   37.5000   18.6936   -8.1523 C   0  0  0  0  0  0  0  0  0  0  0  0
   37.8504   20.1528   -8.2621 C   0  0  0  0  0  0  0  0  0  0  0  0
   36.0501   18.4788   -7.7507 C   0  0  0  0  0  0  0  0  0  0  0  0
 24 25  1  0  0  0
 25 26  1  0  0  0
 25 27  1  0  0  0
 25 20  1  0  0  0
 20 21  2  0  0  0
 20 22  1  0  0  0
 22  1  1  0  0  0
  1  2  2  0  0  0
  2  3  1  0  0  0
  3  4  2  0  0  0
  4  5  1  0  0  0
  5  6  2  0  0  0
  4  7  1  0  0  0
  7  8  2  0  0  0
  8  9  1  0  0  0
  9 10  2  0  0  0
 10 11  1  0  0  0
 11 12  1  0  0  0
 11 13  2  0  0  0
 13 14  1  0  0  0
 14 15  2  0  0  0
 15 16  1  0  0  0
 16 17  2  0  0  0
  6  1  1  0  0  0
 17  7  1  0  0  0
 16 10  1  0  0  0
 22 23  1  0  0  0
 12 18  1  0  0  0
 12 19  1  0  0  0
M  END
> <minimizedAffinity>
-7.94208

> <CNNscore>
0.3825586438

> <CNNaffinity>
6.0993099213

> <CNN_VS>
2.3333437443

> <CNNaffinity_variance>
0.1449460238

$$$$
[H]c1nc(N([H])[H])c2nc([H])c(-c3c([H])c([H])c(N([H])C(=O)C(C([H])([H])[H])(C([H])([H])[H])C([H])([H])[H])c([H])c3[H])c([H])c2n1


 27 29  0  0  0  0  0  0  0  0999 V2000
   37.9189   14.5734   -7.1180 C   0  0  0  0  0  0  0  0  0  0  0  0
   37.5956   15.8686   -7.5351 C   0  0  0  0  0  0  0  0  0  0  0  0
   36.2987   16.3037   -7.5625 C   0  0  0  0  0  0  0  0  0  0  0  0
   35.2442   15.5154   -7.1900 C   0  0  0  0  0  0  0  0  0  0  0  0
   35.5431   14.2398   -6.7773 C   0  0  0  0  0  0  0  0  0  0  0  0
   36.8603   13.7936   -6.7479 C   0  0  0  0  0  0  0  0  0  0  0  0
   33.8598   15.9902   -7.2223 C   0  0  0  0  0  0  0  0  0  0  0  0
   33.5574   17.2927   -6.8534 C   0  0  0  0  0  0  0  0  0  0  0  0
   32.3064   17.7894   -6.8616 N   0  0  0  0  0  0  0  0  0  0  0  0
   31.2891   17.0248   -7.2348 C   0  0  0  0  0  0  0  0  0  0  0  0
   30.0132   17.5698   -7.2312 C   0  0  0  0  0  0  0  0  0  0  0  0
   29.7485   18.9019   -6.8485 N   0  0  0  0  0  0  0  0  0  0  0  0
   29.0162   16.7452   -7.6206 N   0  0  0  0  0  0  0  0  0  0  0  0
   29.2182   15.4687   -7.9944 C   0  0  0  0  0  0  0  0  0  0  0  0
   30.4746   14.9857   -7.9811 N   0  0  0  0  0  0  0  0  0  0  0  0
   31.5453   15.7222   -7.6098 C   0  0  0  0  0  0  0  0  0  0  0  0
   32.8142   15.1820   -7.6128 C   0  0  0  0  0  0  0  0  0  0  0  0
   29.0882   19.4776   -7.3959 H   0  0  0  0  0  0  0  0  0  0  0  0
   30.2114   19.3107   -6.0207 H   0  0  0  0  0  0  0  0  0  0  0  0
   39.9913   13.6068   -6.0417 C   0  0  0  0  0  0  0  0  0  0  0  0
   39.5622   13.4133   -4.8798 O   0  0  0  0  0  0  0  0  0  0  0  0
   39.2489   14.1431   -7.0953 N   0  0  0  0  0  0  0  0  0  0  0  0
   39.7762   14.2385   -8.0217 H   0  0  0  0  0  0  0  0  0  0  0  0
   42.3009   14.1075   -5.4192 C   0  0  0  0  0  0  0  0  0  0  0  0
   41.4325   13.2073   -6.2520 C   0  0  0  0  0  0  0  0  0  0  0  0
   41.5959   11.7612   -5.8695 C   0  0  0  0  0  0  0  0  0  0  0  0
   41.7485   13.4538   -7.7180 C   0  0  0  0  0  0  0  0  0  0  0  0
 24 25  1  0  0  0
 25 26  1  0  0  0
 25 27  1  0  0  0
 25 20  1  0  0  0
 20 21  2  0  0  0
 20 22  1  0  0  0
 22  1  1  0  0  0
  1  2  2  0  0  0
  2  3  1  0  0  0
  3  4  2  0  0  0
  4  5  1  0  0  0
  5  6  2  0  0  0
  4  7  1  0  0  0
  7  8  2  0  0  0
  8  9  1  0  0  0
  9 10  2  0  0  0
 10 11  1  0  0  0
 11 12  1  0  0  0
 11 13  2  0  0  0
 13 14  1  0  0  0
 14 15  2  0  0  0
 15 16  1  0  0  0
 16 17  2  0  0  0
  6  1  1  0  0  0
 17  7  1  0  0  0
 16 10  1  0  0  0
 22 23  1  0  0  0
 12 18  1  0  0  0
 12 19  1  0  0  0
M  END
> <minimizedAffinity>
-5.36273

> <CNNscore>
0.3224141002

> <CNNaffinity>
4.8553528786

> <CNN_VS>
1.5654342175

> <CNNaffinity_variance>
0.2713753581

$$$$
[H]c1nc(N([H])[H])c2nc([H])c(-c3c([H])c([H])c(N([H])C(=O)C(C([H])([H])[H])(C([H])([H])[H])C([H])([H])[H])c([H])c3[H])c([H])c2n1


 27 29  0  0  0  0  0  0  0  0999 V2000
   43.7830   13.7957  -14.7822 C   0  0  0  0  0  0  0  0  0  0  0  0
   43.2761   13.1913  -15.9371 C   0  0  0  0  0  0  0  0  0  0  0  0
   41.9417   12.9202  -16.0703 C   0  0  0  0  0  0  0  0  0  0  0  0
   41.0243   13.2163  -15.0992 C   0  0  0  0  0  0  0  0  0  0  0  0
   41.5045   13.8105  -13.9576 C   0  0  0  0  0  0  0  0  0  0  0  0
   42.8605   14.0879  -13.8182 C   0  0  0  0  0  0  0  0  0  0  0  0
   39.5982   12.9228  -15.2513 C   0  0  0  0  0  0  0  0  0  0  0  0
   38.6723   13.4780  -14.3804 C   0  0  0  0  0  0  0  0  0  0  0  0
   37.3489   13.2479  -14.4670 N   0  0  0  0  0  0  0  0  0  0  0  0
   36.8717   12.4571  -15.4187 C   0  0  0  0  0  0  0  0  0  0  0  0
   35.5023   12.2423  -15.4781 C   0  0  0  0  0  0  0  0  0  0  0  0
   34.5934   12.8276  -14.5713 N   0  0  0  0  0  0  0  0  0  0  0  0
   35.0731   11.4284  -16.4675 N   0  0  0  0  0  0  0  0  0  0  0  0
   35.8999   10.8475  -17.3557 C   0  0  0  0  0  0  0  0  0  0  0  0
   37.2210   11.0868  -17.2568 N   0  0  0  0  0  0  0  0  0  0  0  0
   37.7582   11.8839  -16.3067 C   0  0  0  0  0  0  0  0  0  0  0  0
   39.1192   12.0984  -16.2463 C   0  0  0  0  0  0  0  0  0  0  0  0
   33.7029   13.2248  -14.9128 H   0  0  0  0  0  0  0  0  0  0  0  0
   34.8103   12.8637  -13.5622 H   0  0  0  0  0  0  0  0  0  0  0  0
   46.2448   13.2390  -14.9122 C   0  0  0  0  0  0  0  0  0  0  0  0
   46.1782   12.0520  -15.3102 O   0  0  0  0  0  0  0  0  0  0  0  0
   45.1492   14.0666  -14.6605 N   0  0  0  0  0  0  0  0  0  0  0  0
   45.3916   15.0537  -14.3252 H   0  0  0  0  0  0  0  0  0  0  0  0
   48.4640   13.4044  -15.9224 C   0  0  0  0  0  0  0  0  0  0  0  0
   47.6501   13.7534  -14.7083 C   0  0  0  0  0  0  0  0  0  0  0  0
   47.5945   15.2396  -14.4798 C   0  0  0  0  0  0  0  0  0  0  0  0
   48.2227   13.0087  -13.5137 C   0  0  0  0  0  0  0  0  0  0  0  0
 24 25  1  0  0  0
 25 26  1  0  0  0
 25 27  1  0  0  0
 25 20  1  0  0  0
 20 21  2  0  0  0
 20 22  1  0  0  0
 22  1  1  0  0  0
  1  2  2  0  0  0
  2  3  1  0  0  0
  3  4  2  0  0  0
  4  5  1  0  0  0
  5  6  2  0  0  0
  4  7  1  0  0  0
  7  8  2  0  0  0
  8  9  1  0  0  0
  9 10  2  0  0  0
 10 11  1  0  0  0
 11 12  1  0  0  0
 11 13  2  0  0  0
 13 14  1  0  0  0
 14 15  2  0  0  0
 15 16  1  0  0  0
 16 17  2  0  0  0
  6  1  1  0  0  0
 17  7  1  0  0  0
 16 10  1  0  0  0
 22 23  1  0  0  0
 12 18  1  0  0  0
 12 19  1  0  0  0
M  END
> <minimizedAffinity>
-8.13843

> <CNNscore>
0.2851361930

> <CNNaffinity>
6.1889891624

> <CNN_VS>
1.7647048235

> <CNNaffinity_variance>
0.0946330056

$$$$
[H]c1nc(N([H])[H])c2nc([H])c(-c3c([H])c([H])c(N([H])C(=O)C(C([H])([H])[H])(C([H])([H])[H])C([H])([H])[H])c([H])c3[H])c([H])c2n1


 27 29  0  0  0  0  0  0  0  0999 V2000
   37.9043   15.8847  -10.7940 C   0  0  0  0  0  0  0  0  0  0  0  0
   36.8810   15.0690  -11.2875 C   0  0  0  0  0  0  0  0  0  0  0  0
   37.0559   14.3122  -12.4138 C   0  0  0  0  0  0  0  0  0  0  0  0
   38.2248   14.3003  -13.1250 C   0  0  0  0  0  0  0  0  0  0  0  0
   39.2412   15.0958  -12.6547 C   0  0  0  0  0  0  0  0  0  0  0  0
   39.0674   15.8667  -11.5099 C   0  0  0  0  0  0  0  0  0  0  0  0
   38.4025   13.4866  -14.3289 C   0  0  0  0  0  0  0  0  0  0  0  0
   39.6524   13.3740  -14.9198 C   0  0  0  0  0  0  0  0  0  0  0  0
   39.8814   12.6423  -16.0260 N   0  0  0  0  0  0  0  0  0  0  0  0
   38.8871   11.9836  -16.6060 C   0  0  0  0  0  0  0  0  0  0  0  0
   39.1594   11.2393  -17.7448 C   0  0  0  0  0  0  0  0  0  0  0  0
   40.4473   11.1509  -18.3143 N   0  0  0  0  0  0  0  0  0  0  0  0
   38.1089   10.5897  -18.2926 N   0  0  0  0  0  0  0  0  0  0  0  0
   36.8634   10.6429  -17.7868 C   0  0  0  0  0  0  0  0  0  0  0  0
   36.6494   11.3788  -16.6800 N   0  0  0  0  0  0  0  0  0  0  0  0
   37.6270   12.0682  -16.0509 C   0  0  0  0  0  0  0  0  0  0  0  0
   37.3580   12.8085  -14.9189 C   0  0  0  0  0  0  0  0  0  0  0  0
   40.8060   10.2412  -18.6476 H   0  0  0  0  0  0  0  0  0  0  0  0
   41.0400   11.9921  -18.4021 H   0  0  0  0  0  0  0  0  0  0  0  0
   37.7063   18.0400   -9.4890 C   0  0  0  0  0  0  0  0  0  0  0  0
   37.8853   18.8696  -10.4118 O   0  0  0  0  0  0  0  0  0  0  0  0
   37.7107   16.6525   -9.6417 N   0  0  0  0  0  0  0  0  0  0  0  0
   37.5408   16.0950   -8.7440 H   0  0  0  0  0  0  0  0  0  0  0  0
   36.0283   18.4639   -7.7635 C   0  0  0  0  0  0  0  0  0  0  0  0
   37.4731   18.6556   -8.1298 C   0  0  0  0  0  0  0  0  0  0  0  0
   38.3942   18.0011   -7.1361 C   0  0  0  0  0  0  0  0  0  0  0  0
   37.7417   20.1449   -8.2689 C   0  0  0  0  0  0  0  0  0  0  0  0
 24 25  1  0  0  0
 25 26  1  0  0  0
 25 27  1  0  0  0
 25 20  1  0  0  0
 20 21  2  0  0  0
 20 22  1  0  0  0
 22  1  1  0  0  0
  1  2  2  0  0  0
  2  3  1  0  0  0
  3  4  2  0  0  0
  4  5  1  0  0  0
  5  6  2  0  0  0
  4  7  1  0  0  0
  7  8  2  0  0  0
  8  9  1  0  0  0
  9 10  2  0  0  0
 10 11  1  0  0  0
 11 12  1  0  0  0
 11 13  2  0  0  0
 13 14  1  0  0  0
 14 15  2  0  0  0
 15 16  1  0  0  0
 16 17  2  0  0  0
  6  1  1  0  0  0
 17  7  1  0  0  0
 16 10  1  0  0  0
 22 23  1  0  0  0
 12 18  1  0  0  0
 12 19  1  0  0  0
M  END
> <minimizedAffinity>
-8.04344

> <CNNscore>
0.2784639001

> <CNNaffinity>
5.9907517433

> <CNN_VS>
1.6682081223

> <CNNaffinity_variance>
0.1055998653

$$$$
[H]c1nc(N([H])[H])c2nc([H])c(-c3c([H])c([H])c(N([H])C(=O)C(C([H])([H])[H])(C([H])([H])[H])C([H])([H])[H])c([H])c3[H])c([H])c2n1


 27 29  0  0  0  0  0  0  0  0999 V2000
   37.0396   16.6318  -10.4724 C   0  0  0  0  0  0  0  0  0  0  0  0
   38.4037   16.3539  -10.6067 C   0  0  0  0  0  0  0  0  0  0  0  0
   38.8797   15.6215  -11.6597 C   0  0  0  0  0  0  0  0  0  0  0  0
   38.0682   15.1176  -12.6393 C   0  0  0  0  0  0  0  0  0  0  0  0
   36.7250   15.3807  -12.5237 C   0  0  0  0  0  0  0  0  0  0  0  0
   36.2370   16.1251  -11.4547 C   0  0  0  0  0  0  0  0  0  0  0  0
   38.5871   14.3353  -13.7627 C   0  0  0  0  0  0  0  0  0  0  0  0
   39.8836   14.5333  -14.2143 C   0  0  0  0  0  0  0  0  0  0  0  0
   40.4193   13.8470  -15.2408 N   0  0  0  0  0  0  0  0  0  0  0  0
   39.7016   12.9293  -15.8746 C   0  0  0  0  0  0  0  0  0  0  0  0
   40.2859   12.2411  -16.9281 C   0  0  0  0  0  0  0  0  0  0  0  0
   41.6102   12.4732  -17.3562 N   0  0  0  0  0  0  0  0  0  0  0  0
   39.5083   11.3185  -17.5362 N   0  0  0  0  0  0  0  0  0  0  0  0
   38.2411   11.0612  -17.1646 C   0  0  0  0  0  0  0  0  0  0  0  0
   37.7187   11.7554  -16.1363 N   0  0  0  0  0  0  0  0  0  0  0  0
   38.4067   12.7002  -15.4576 C   0  0  0  0  0  0  0  0  0  0  0  0
   37.8274   13.3852  -14.4102 C   0  0  0  0  0  0  0  0  0  0  0  0
   42.2266   11.6780  -17.5906 H   0  0  0  0  0  0  0  0  0  0  0  0
   41.9727   13.4367  -17.4384 H   0  0  0  0  0  0  0  0  0  0  0  0
   36.5541   17.0676   -8.0308 C   0  0  0  0  0  0  0  0  0  0  0  0
   36.9861   16.0024   -7.5302 O   0  0  0  0  0  0  0  0  0  0  0  0
   36.5680   17.3817   -9.3908 N   0  0  0  0  0  0  0  0  0  0  0  0
   36.1572   18.3377   -9.6417 H   0  0  0  0  0  0  0  0  0  0  0  0
   36.2334   17.5071   -5.6482 C   0  0  0  0  0  0  0  0  0  0  0  0
   35.9870   18.0456   -7.0293 C   0  0  0  0  0  0  0  0  0  0  0  0
   36.6427   19.3844   -7.2336 C   0  0  0  0  0  0  0  0  0  0  0  0
   34.4866   18.0978   -7.2659 C   0  0  0  0  0  0  0  0  0  0  0  0
 24 25  1  0  0  0
 25 26  1  0  0  0
 25 27  1  0  0  0
 25 20  1  0  0  0
 20 21  2  0  0  0
 20 22  1  0  0  0
 22  1  1  0  0  0
  1  2  2  0  0  0
  2  3  1  0  0  0
  3  4  2  0  0  0
  4  5  1  0  0  0
  5  6  2  0  0  0
  4  7  1  0  0  0
  7  8  2  0  0  0
  8  9  1  0  0  0
  9 10  2  0  0  0
 10 11  1  0  0  0
 11 12  1  0  0  0
 11 13  2  0  0  0
 13 14  1  0  0  0
 14 15  2  0  0  0
 15 16  1  0  0  0
 16 17  2  0  0  0
  6  1  1  0  0  0
 17  7  1  0  0  0
 16 10  1  0  0  0
 22 23  1  0  0  0
 12 18  1  0  0  0
 12 19  1  0  0  0
M  END
> <minimizedAffinity>
-7.02268

> <CNNscore>
0.2732195258

> <CNNaffinity>
5.7112836838

> <CNN_VS>
1.5604342222

> <CNNaffinity_variance>
0.1471389383

$$$$
[H]c1c([H])c(-c2c([H])c(C(F)(F)F)c([H])c(C(F)(F)F)c2[H])c([H])c(C(=O)N([H])c2c([H])c([H])c(C#N)c(C(F)(F)F)c2[H])c1C#N


 38 40  0  0  0  0  0  0  0  0999 V2000
   43.2289   13.9216  -13.9162 C   0  0  0  0  0  0  0  0  0  0  0  0
   41.9433   13.6459  -13.9534 C   0  0  0  0  0  0  0  0  0  0  0  0
   41.3726   13.0641  -15.1152 C   0  0  0  0  0  0  0  0  0  0  0  0
   42.1047   12.7560  -16.2087 C   0  0  0  0  0  0  0  0  0  0  0  0
   43.5021   13.0439  -16.1939 C   0  0  0  0  0  0  0  0  0  0  0  0
   44.0188   13.6245  -15.0486 C   0  0  0  0  0  0  0  0  0  0  0  0
   43.9914   14.3238  -12.7378 C   0  0  0  0  0  0  0  0  0  0  0  0
   44.9386   15.3110  -12.7807 C   0  0  0  0  0  0  0  0  0  0  0  0
   45.8862   15.4776  -11.7471 C   0  0  0  0  0  0  0  0  0  0  0  0
   45.8527   14.6179  -10.6810 C   0  0  0  0  0  0  0  0  0  0  0  0
   44.9208   13.6288  -10.6062 C   0  0  0  0  0  0  0  0  0  0  0  0
   43.9713   13.4523  -11.6248 C   0  0  0  0  0  0  0  0  0  0  0  0
   46.8359   16.5849  -11.8505 C   0  0  0  0  0  0  0  0  0  0  0  0
   48.1258   16.0603  -11.6312 F   0  0  0  0  0  0  0  0  0  0  0  0
   46.5586   17.6418  -10.9846 F   0  0  0  0  0  0  0  0  0  0  0  0
   46.8654   17.0475  -13.1596 F   0  0  0  0  0  0  0  0  0  0  0  0
   44.9497   12.5860   -9.5744 C   0  0  0  0  0  0  0  0  0  0  0  0
   43.7646   12.6020   -8.8587 F   0  0  0  0  0  0  0  0  0  0  0  0
   45.1811   11.3065  -10.0453 F   0  0  0  0  0  0  0  0  0  0  0  0
   46.0240   12.8447   -8.6824 F   0  0  0  0  0  0  0  0  0  0  0  0
   39.8772   13.1471  -15.1810 C   0  0  0  0  0  0  0  0  0  0  0  0
   39.3274   14.2123  -14.9563 O   0  0  0  0  0  0  0  0  0  0  0  0
   39.2064   11.9834  -15.5528 N   0  0  0  0  0  0  0  0  0  0  0  0
   39.7096   11.0659  -15.6382 H   0  0  0  0  0  0  0  0  0  0  0  0
   37.7757   11.9182  -15.8459 C   0  0  0  0  0  0  0  0  0  0  0  0
   36.7405   12.1436  -15.0886 C   0  0  0  0  0  0  0  0  0  0  0  0
   35.4186   11.8331  -15.4637 C   0  0  0  0  0  0  0  0  0  0  0  0
   35.1975   11.2767  -16.6925 C   0  0  0  0  0  0  0  0  0  0  0  0
   36.3008   11.0221  -17.5245 C   0  0  0  0  0  0  0  0  0  0  0  0
   37.5703   11.3287  -17.1364 C   0  0  0  0  0  0  0  0  0  0  0  0
   34.3181   12.0970  -14.5281 C   0  0  0  0  0  0  0  0  0  0  0  0
   34.7842   12.3312  -13.2258 F   0  0  0  0  0  0  0  0  0  0  0  0
   33.5069   10.9418  -14.4305 F   0  0  0  0  0  0  0  0  0  0  0  0
   33.4518   13.0993  -14.9535 F   0  0  0  0  0  0  0  0  0  0  0  0
   33.8865   10.8987  -17.0937 C   0  0  0  0  0  0  0  0  0  0  0  0
   32.8411   10.5917  -17.4681 N   0  0  0  0  0  0  0  0  0  0  0  0
   41.6045   12.0792  -17.3205 C   0  0  0  0  0  0  0  0  0  0  0  0
   41.2108   11.4599  -18.2594 N   0  0  0  0  0  0  0  0  0  0  0  0
  1  7  1  0  0  0
  7  8  2  0  0  0
  8  9  1  0  0  0
  9 13  1  0  0  0
 13 14  1  0  0  0
 13 15  1  0  0  0
 13 16  1  0  0  0
  9 10  2  0  0  0
 10 11  1  0  0  0
 11 17  1  0  0  0
 17 18  1  0  0  0
 17 19  1  0  0  0
 17 20  1  0  0  0
 11 12  2  0  0  0
  1  2  2  0  0  0
  2  3  1  0  0  0
  3 21  1  0  0  0
 21 22  2  0  0  0
 21 23  1  0  0  0
 23 25  1  0  0  0
 25 26  2  0  0  0
 26 27  1  0  0  0
 27 31  1  0  0  0
 31 32  1  0  0  0
 31 33  1  0  0  0
 31 34  1  0  0  0
 27 28  2  0  0  0
 28 35  1  0  0  0
 35 36  3  0  0  0
 28 29  1  0  0  0
 29 30  2  0  0  0
  3  4  2  0  0  0
  4 37  1  0  0  0
 37 38  3  0  0  0
  4  5  1  0  0  0
  5  6  2  0  0  0
  6  1  1  0  0  0
 12  7  1  0  0  0
 30 25  1  0  0  0
 23 24  1  0  0  0
M  END
> <minimizedAffinity>
-8.87306

> <CNNscore>
0.4730649889

> <CNNaffinity>
6.9257440567

> <CNN_VS>
3.2763271332

> <CNNaffinity_variance>
0.3263904750

$$$$
[H]c1c([H])c(-c2c([H])c(C(F)(F)F)c([H])c(C(F)(F)F)c2[H])c([H])c(C(=O)N([H])c2c([H])c([H])c(C#N)c(C(F)(F)F)c2[H])c1C#N


 38 40  0  0  0  0  0  0  0  0999 V2000
   42.2190   13.2365  -15.0313 C   0  0  0  0  0  0  0  0  0  0  0  0
   42.5050   13.6847  -13.8283 C   0  0  0  0  0  0  0  0  0  0  0  0
   43.8336   14.0662  -13.5070 C   0  0  0  0  0  0  0  0  0  0  0  0
   44.8440   14.0057  -14.4026 C   0  0  0  0  0  0  0  0  0  0  0  0
   44.5605   13.5239  -15.7153 C   0  0  0  0  0  0  0  0  0  0  0  0
   43.2561   13.1480  -15.9858 C   0  0  0  0  0  0  0  0  0  0  0  0
   40.8821   13.0033  -15.5701 C   0  0  0  0  0  0  0  0  0  0  0  0
   39.7704   12.9521  -14.7730 C   0  0  0  0  0  0  0  0  0  0  0  0
   38.5484   12.4161  -15.2350 C   0  0  0  0  0  0  0  0  0  0  0  0
   38.4868   11.9300  -16.5144 C   0  0  0  0  0  0  0  0  0  0  0  0
   39.5730   11.9703  -17.3334 C   0  0  0  0  0  0  0  0  0  0  0  0
   40.7936   12.5019  -16.8889 C   0  0  0  0  0  0  0  0  0  0  0  0
   37.3974   12.4395  -14.3333 C   0  0  0  0  0  0  0  0  0  0  0  0
   36.2865   11.9496  -15.0495 F   0  0  0  0  0  0  0  0  0  0  0  0
   37.1409   13.6962  -13.7867 F   0  0  0  0  0  0  0  0  0  0  0  0
   37.5901   11.5161  -13.3140 F   0  0  0  0  0  0  0  0  0  0  0  0
   39.6039   11.3140  -18.6453 C   0  0  0  0  0  0  0  0  0  0  0  0
   39.6717   12.2689  -19.6455 F   0  0  0  0  0  0  0  0  0  0  0  0
   40.6282   10.4008  -18.8161 F   0  0  0  0  0  0  0  0  0  0  0  0
   38.4126   10.5599  -18.8157 F   0  0  0  0  0  0  0  0  0  0  0  0
   44.1054   14.1939  -12.0382 C   0  0  0  0  0  0  0  0  0  0  0  0
   44.1919   15.3040  -11.5409 O   0  0  0  0  0  0  0  0  0  0  0  0
   44.1924   13.0044  -11.3172 N   0  0  0  0  0  0  0  0  0  0  0  0
   44.2126   12.0724  -11.8002 H   0  0  0  0  0  0  0  0  0  0  0  0
   44.2702   12.9318   -9.8592 C   0  0  0  0  0  0  0  0  0  0  0  0
   45.1532   12.3751   -9.0805 C   0  0  0  0  0  0  0  0  0  0  0  0
   44.9750   12.2114   -7.6927 C   0  0  0  0  0  0  0  0  0  0  0  0
   43.8219   12.6699   -7.1195 C   0  0  0  0  0  0  0  0  0  0  0  0
   42.8542   13.2712   -7.9418 C   0  0  0  0  0  0  0  0  0  0  0  0
   43.0495   13.4142   -9.2826 C   0  0  0  0  0  0  0  0  0  0  0  0
   46.0161   11.5432   -6.9016 C   0  0  0  0  0  0  0  0  0  0  0  0
   46.6309   12.4227   -5.9980 F   0  0  0  0  0  0  0  0  0  0  0  0
   47.0509   11.1150   -7.7664 F   0  0  0  0  0  0  0  0  0  0  0  0
   45.5800   10.3806   -6.2735 F   0  0  0  0  0  0  0  0  0  0  0  0
   43.5753   12.4806   -5.7317 C   0  0  0  0  0  0  0  0  0  0  0  0
   43.3849   12.2765   -4.6140 N   0  0  0  0  0  0  0  0  0  0  0  0
   46.1332   14.4793  -14.1614 C   0  0  0  0  0  0  0  0  0  0  0  0
   47.2149   14.9144  -13.9151 N   0  0  0  0  0  0  0  0  0  0  0  0
  1  7  1  0  0  0
  7  8  2  0  0  0
  8  9  1  0  0  0
  9 13  1  0  0  0
 13 14  1  0  0  0
 13 15  1  0  0  0
 13 16  1  0  0  0
  9 10  2  0  0  0
 10 11  1  0  0  0
 11 17  1  0  0  0
 17 18  1  0  0  0
 17 19  1  0  0  0
 17 20  1  0  0  0
 11 12  2  0  0  0
  1  2  2  0  0  0
  2  3  1  0  0  0
  3 21  1  0  0  0
 21 22  2  0  0  0
 21 23  1  0  0  0
 23 25  1  0  0  0
 25 26  2  0  0  0
 26 27  1  0  0  0
 27 31  1  0  0  0
 31 32  1  0  0  0
 31 33  1  0  0  0
 31 34  1  0  0  0
 27 28  2  0  0  0
 28 35  1  0  0  0
 35 36  3  0  0  0
 28 29  1  0  0  0
 29 30  2  0  0  0
  3  4  2  0  0  0
  4 37  1  0  0  0
 37 38  3  0  0  0
  4  5  1  0  0  0
  5  6  2  0  0  0
  6  1  1  0  0  0
 12  7  1  0  0  0
 30 25  1  0  0  0
 23 24  1  0  0  0
M  END
> <minimizedAffinity>
-8.52767

> <CNNscore>
0.2047118992

> <CNNaffinity>
6.3431162834

> <CNN_VS>
1.2985113859

> <CNNaffinity_variance>
0.1007085443

$$$$
[H]c1c([H])c(-c2c([H])c(C(F)(F)F)c([H])c(C(F)(F)F)c2[H])c([H])c(C(=O)N([H])c2c([H])c([H])c(C#N)c(C(F)(F)F)c2[H])c1C#N


 38 40  0  0  0  0  0  0  0  0999 V2000
   37.6940   13.3774  -14.3292 C   0  0  0  0  0  0  0  0  0  0  0  0
   36.9405   13.7363  -13.3126 C   0  0  0  0  0  0  0  0  0  0  0  0
   37.4527   14.6117  -12.3199 C   0  0  0  0  0  0  0  0  0  0  0  0
   38.7032   15.1216  -12.3754 C   0  0  0  0  0  0  0  0  0  0  0  0
   39.5410   14.7489  -13.4685 C   0  0  0  0  0  0  0  0  0  0  0  0
   39.0107   13.8821  -14.4083 C   0  0  0  0  0  0  0  0  0  0  0  0
   37.2506   12.6599  -15.5210 C   0  0  0  0  0  0  0  0  0  0  0  0
   36.0301   12.0443  -15.5930 C   0  0  0  0  0  0  0  0  0  0  0  0
   35.7340   11.0956  -16.5961 C   0  0  0  0  0  0  0  0  0  0  0  0
   36.7039   10.7846  -17.5124 C   0  0  0  0  0  0  0  0  0  0  0  0
   37.9259   11.3822  -17.4708 C   0  0  0  0  0  0  0  0  0  0  0  0
   38.2341   12.3285  -16.4809 C   0  0  0  0  0  0  0  0  0  0  0  0
   34.3910   10.5176  -16.6274 C   0  0  0  0  0  0  0  0  0  0  0  0
   33.7310   10.9122  -15.4460 F   0  0  0  0  0  0  0  0  0  0  0  0
   34.3822    9.1319  -16.7809 F   0  0  0  0  0  0  0  0  0  0  0  0
   33.6583   11.1065  -17.6496 F   0  0  0  0  0  0  0  0  0  0  0  0
   39.0453   10.9621  -18.3212 C   0  0  0  0  0  0  0  0  0  0  0  0
   39.8683   10.0977  -17.6196 F   0  0  0  0  0  0  0  0  0  0  0  0
   38.6791   10.3732  -19.5176 F   0  0  0  0  0  0  0  0  0  0  0  0
   39.7994   12.1060  -18.6952 F   0  0  0  0  0  0  0  0  0  0  0  0
   36.6578   14.6431  -11.0493 C   0  0  0  0  0  0  0  0  0  0  0  0
   35.7971   13.7997  -10.8620 O   0  0  0  0  0  0  0  0  0  0  0  0
   37.0014   15.6290  -10.1261 N   0  0  0  0  0  0  0  0  0  0  0  0
   37.6775   16.3944  -10.3697 H   0  0  0  0  0  0  0  0  0  0  0  0
   36.4675   15.7034   -8.7672 C   0  0  0  0  0  0  0  0  0  0  0  0
   36.4551   14.8225   -7.8081 C   0  0  0  0  0  0  0  0  0  0  0  0
   35.7130   14.9746   -6.6204 C   0  0  0  0  0  0  0  0  0  0  0  0
   34.9723   16.1105   -6.4490 C   0  0  0  0  0  0  0  0  0  0  0  0
   34.9689   17.0728   -7.4729 C   0  0  0  0  0  0  0  0  0  0  0  0
   35.6929   16.8999   -8.6140 C   0  0  0  0  0  0  0  0  0  0  0  0
   35.7384   13.9113   -5.6080 C   0  0  0  0  0  0  0  0  0  0  0  0
   36.4139   12.7701   -6.0656 F   0  0  0  0  0  0  0  0  0  0  0  0
   34.4141   13.4827   -5.3540 F   0  0  0  0  0  0  0  0  0  0  0  0
   36.2151   14.3305   -4.3698 F   0  0  0  0  0  0  0  0  0  0  0  0
   34.1666   16.2847   -5.2900 C   0  0  0  0  0  0  0  0  0  0  0  0
   33.5441   16.4660   -4.3378 N   0  0  0  0  0  0  0  0  0  0  0  0
   39.2009   16.0727  -11.4854 C   0  0  0  0  0  0  0  0  0  0  0  0
   39.6554   16.9065  -10.7655 N   0  0  0  0  0  0  0  0  0  0  0  0
  1  7  1  0  0  0
  7  8  2  0  0  0
  8  9  1  0  0  0
  9 13  1  0  0  0
 13 14  1  0  0  0
 13 15  1  0  0  0
 13 16  1  0  0  0
  9 10  2  0  0  0
 10 11  1  0  0  0
 11 17  1  0  0  0
 17 18  1  0  0  0
 17 19  1  0  0  0
 17 20  1  0  0  0
 11 12  2  0  0  0
  1  2  2  0  0  0
  2  3  1  0  0  0
  3 21  1  0  0  0
 21 22  2  0  0  0
 21 23  1  0  0  0
 23 25  1  0  0  0
 25 26  2  0  0  0
 26 27  1  0  0  0
 27 31  1  0  0  0
 31 32  1  0  0  0
 31 33  1  0  0  0
 31 34  1  0  0  0
 27 28  2  0  0  0
 28 35  1  0  0  0
 35 36  3  0  0  0
 28 29  1  0  0  0
 29 30  2  0  0  0
  3  4  2  0  0  0
  4 37  1  0  0  0
 37 38  3  0  0  0
  4  5  1  0  0  0
  5  6  2  0  0  0
  6  1  1  0  0  0
 12  7  1  0  0  0
 30 25  1  0  0  0
 23 24  1  0  0  0
M  END
> <minimizedAffinity>
-9.45026

> <CNNscore>
0.2023114264

> <CNNaffinity>
6.2982153893

> <CNN_VS>
1.2742009163

> <CNNaffinity_variance>
0.1852696687

$$$$
[H]c1c([H])c(-c2c([H])c(C(F)(F)F)c([H])c(C(F)(F)F)c2[H])c([H])c(C(=O)N([H])c2c([H])c([H])c(C#N)c(C(F)(F)F)c2[H])c1C#N


 38 40  0  0  0  0  0  0  0  0999 V2000
   37.2645   13.6097  -14.1917 C   0  0  0  0  0  0  0  0  0  0  0  0
   38.4638   14.0660  -13.9023 C   0  0  0  0  0  0  0  0  0  0  0  0
   38.7217   14.6343  -12.6277 C   0  0  0  0  0  0  0  0  0  0  0  0
   37.7771   14.7188  -11.6648 C   0  0  0  0  0  0  0  0  0  0  0  0
   36.4679   14.2302  -11.9527 C   0  0  0  0  0  0  0  0  0  0  0  0
   36.2517   13.6965  -13.2113 C   0  0  0  0  0  0  0  0  0  0  0  0
   36.9012   12.8219  -15.3660 C   0  0  0  0  0  0  0  0  0  0  0  0
   35.6927   12.1887  -15.4774 C   0  0  0  0  0  0  0  0  0  0  0  0
   35.4668   11.1822  -16.4418 C   0  0  0  0  0  0  0  0  0  0  0  0
   36.4937   10.8324  -17.2784 C   0  0  0  0  0  0  0  0  0  0  0  0
   37.7057   11.4459  -17.1962 C   0  0  0  0  0  0  0  0  0  0  0  0
   37.9445   12.4493  -16.2442 C   0  0  0  0  0  0  0  0  0  0  0  0
   34.1332   10.5875  -16.5222 C   0  0  0  0  0  0  0  0  0  0  0  0
   34.2968    9.1927  -16.6451 F   0  0  0  0  0  0  0  0  0  0  0  0
   33.3517   11.1046  -17.5545 F   0  0  0  0  0  0  0  0  0  0  0  0
   33.4782   10.7563  -15.3093 F   0  0  0  0  0  0  0  0  0  0  0  0
   38.8788   10.9926  -17.9521 C   0  0  0  0  0  0  0  0  0  0  0  0
   39.5345    9.9974  -17.2474 F   0  0  0  0  0  0  0  0  0  0  0  0
   38.6094   10.5436  -19.2320 F   0  0  0  0  0  0  0  0  0  0  0  0
   39.7676   12.0858  -18.1301 F   0  0  0  0  0  0  0  0  0  0  0  0
   39.9816   15.4431  -12.5517 C   0  0  0  0  0  0  0  0  0  0  0  0
   39.9099   16.6432  -12.3468 O   0  0  0  0  0  0  0  0  0  0  0  0
   41.1789   14.7403  -12.6737 N   0  0  0  0  0  0  0  0  0  0  0  0
   41.1927   13.7273  -12.9492 H   0  0  0  0  0  0  0  0  0  0  0  0
   42.5001   15.3232  -12.4459 C   0  0  0  0  0  0  0  0  0  0  0  0
   42.9901   16.4806  -12.7865 C   0  0  0  0  0  0  0  0  0  0  0  0
   44.3548   16.8120  -12.6754 C   0  0  0  0  0  0  0  0  0  0  0  0
   45.2186   15.8800  -12.1719 C   0  0  0  0  0  0  0  0  0  0  0  0
   44.7116   14.6231  -11.8011 C   0  0  0  0  0  0  0  0  0  0  0  0
   43.3874   14.3264  -11.9219 C   0  0  0  0  0  0  0  0  0  0  0  0
   44.8182   18.1345  -13.1141 C   0  0  0  0  0  0  0  0  0  0  0  0
   45.3049   18.8993  -12.0435 F   0  0  0  0  0  0  0  0  0  0  0  0
   43.7182   18.8647  -13.6229 F   0  0  0  0  0  0  0  0  0  0  0  0
   45.7255   18.0869  -14.1680 F   0  0  0  0  0  0  0  0  0  0  0  0
   46.6124   16.1507  -12.0895 C   0  0  0  0  0  0  0  0  0  0  0  0
   47.7500   16.3186  -12.0202 N   0  0  0  0  0  0  0  0  0  0  0  0
   38.0213   15.1620  -10.3654 C   0  0  0  0  0  0  0  0  0  0  0  0
   38.2323   15.4889   -9.2391 N   0  0  0  0  0  0  0  0  0  0  0  0
  1  7  1  0  0  0
  7  8  2  0  0  0
  8  9  1  0  0  0
  9 13  1  0  0  0
 13 14  1  0  0  0
 13 15  1  0  0  0
 13 16  1  0  0  0
  9 10  2  0  0  0
 10 11  1  0  0  0
 11 17  1  0  0  0
 17 18  1  0  0  0
 17 19  1  0  0  0
 17 20  1  0  0  0
 11 12  2  0  0  0
  1  2  2  0  0  0
  2  3  1  0  0  0
  3 21  1  0  0  0
 21 22  2  0  0  0
 21 23  1  0  0  0
 23 25  1  0  0  0
 25 26  2  0  0  0
 26 27  1  0  0  0
 27 31  1  0  0  0
 31 32  1  0  0  0
 31 33  1  0  0  0
 31 34  1  0  0  0
 27 28  2  0  0  0
 28 35  1  0  0  0
 35 36  3  0  0  0
 28 29  1  0  0  0
 29 30  2  0  0  0
  3  4  2  0  0  0
  4 37  1  0  0  0
 37 38  3  0  0  0
  4  5  1  0  0  0
  5  6  2  0  0  0
  6  1  1  0  0  0
 12  7  1  0  0  0
 30 25  1  0  0  0
 23 24  1  0  0  0
M  END
> <minimizedAffinity>
-9.67837

> <CNNscore>
0.2017952651

> <CNNaffinity>
6.4650206566

> <CNN_VS>
1.3046106100

> <CNNaffinity_variance>
0.2159516364

$$$$
[H]c1c([H])c(-c2c([H])c(C(F)(F)F)c([H])c(C(F)(F)F)c2[H])c([H])c(C(=O)N([H])c2c([H])c([H])c(C#N)c(C(F)(F)F)c2[H])c1C#N


 38 40  0  0  0  0  0  0  0  0999 V2000
   37.2138   13.6169  -13.8451 C   0  0  0  0  0  0  0  0  0  0  0  0
   36.4144   13.9494  -12.8549 C   0  0  0  0  0  0  0  0  0  0  0  0
   36.8604   14.8458  -11.8491 C   0  0  0  0  0  0  0  0  0  0  0  0
   38.0918   15.4024  -11.8655 C   0  0  0  0  0  0  0  0  0  0  0  0
   38.9785   15.0592  -12.9293 C   0  0  0  0  0  0  0  0  0  0  0  0
   38.5124   14.1708  -13.8829 C   0  0  0  0  0  0  0  0  0  0  0  0
   36.8370   12.8805  -15.0482 C   0  0  0  0  0  0  0  0  0  0  0  0
   35.6163   12.2761  -15.1843 C   0  0  0  0  0  0  0  0  0  0  0  0
   35.3722   11.3108  -16.1856 C   0  0  0  0  0  0  0  0  0  0  0  0
   36.3935   10.9717  -17.0334 C   0  0  0  0  0  0  0  0  0  0  0  0
   37.6174   11.5574  -16.9272 C   0  0  0  0  0  0  0  0  0  0  0  0
   37.8743   12.5200  -15.9385 C   0  0  0  0  0  0  0  0  0  0  0  0
   34.0272   10.7461  -16.2894 C   0  0  0  0  0  0  0  0  0  0  0  0
   34.1642    9.3651  -16.5366 F   0  0  0  0  0  0  0  0  0  0  0  0
   33.2348   11.3636  -17.2561 F   0  0  0  0  0  0  0  0  0  0  0  0
   33.3990   10.8185  -15.0530 F   0  0  0  0  0  0  0  0  0  0  0  0
   38.7826   11.1091  -17.6981 C   0  0  0  0  0  0  0  0  0  0  0  0
   39.4607   10.1283  -16.9946 F   0  0  0  0  0  0  0  0  0  0  0  0
   38.4968   10.6443  -18.9688 F   0  0  0  0  0  0  0  0  0  0  0  0
   39.6563   12.2100  -17.9019 F   0  0  0  0  0  0  0  0  0  0  0  0
   36.0235   14.8500  -10.6052 C   0  0  0  0  0  0  0  0  0  0  0  0
   36.3012   14.0865   -9.6957 O   0  0  0  0  0  0  0  0  0  0  0  0
   34.9912   15.7849  -10.5545 N   0  0  0  0  0  0  0  0  0  0  0  0
   34.7247   16.3515  -11.3974 H   0  0  0  0  0  0  0  0  0  0  0  0
   34.1910   16.0608   -9.3627 C   0  0  0  0  0  0  0  0  0  0  0  0
   32.9283   15.8554   -9.1188 C   0  0  0  0  0  0  0  0  0  0  0  0
   32.2587   16.3709   -7.9918 C   0  0  0  0  0  0  0  0  0  0  0  0
   32.9660   17.1180   -7.0917 C   0  0  0  0  0  0  0  0  0  0  0  0
   34.3292   17.3546   -7.3370 C   0  0  0  0  0  0  0  0  0  0  0  0
   34.9526   16.8472   -8.4371 C   0  0  0  0  0  0  0  0  0  0  0  0
   30.8241   16.1102   -7.8181 C   0  0  0  0  0  0  0  0  0  0  0  0
   30.5737   15.2794   -6.7158 F   0  0  0  0  0  0  0  0  0  0  0  0
   30.3451   15.3935   -8.9403 F   0  0  0  0  0  0  0  0  0  0  0  0
   30.0474   17.2641   -7.7809 F   0  0  0  0  0  0  0  0  0  0  0  0
   32.3214   17.7022   -5.9666 C   0  0  0  0  0  0  0  0  0  0  0  0
   31.8409   18.1631   -5.0265 N   0  0  0  0  0  0  0  0  0  0  0  0
   38.5239   16.3736  -10.9630 C   0  0  0  0  0  0  0  0  0  0  0  0
   38.9034   17.2364  -10.2338 N   0  0  0  0  0  0  0  0  0  0  0  0
  1  7  1  0  0  0
  7  8  2  0  0  0
  8  9  1  0  0  0
  9 13  1  0  0  0
 13 14  1  0  0  0
 13 15  1  0  0  0
 13 16  1  0  0  0
  9 10  2  0  0  0
 10 11  1  0  0  0
 11 17  1  0  0  0
 17 18  1  0  0  0
 17 19  1  0  0  0
 17 20  1  0  0  0
 11 12  2  0  0  0
  1  2  2  0  0  0
  2  3  1  0  0  0
  3 21  1  0  0  0
 21 22  2  0  0  0
 21 23  1  0  0  0
 23 25  1  0  0  0
 25 26  2  0  0  0
 26 27  1  0  0  0
 27 31  1  0  0  0
 31 32  1  0  0  0
 31 33  1  0  0  0
 31 34  1  0  0  0
 27 28  2  0  0  0
 28 35  1  0  0  0
 35 36  3  0  0  0
 28 29  1  0  0  0
 29 30  2  0  0  0
  3  4  2  0  0  0
  4 37  1  0  0  0
 37 38  3  0  0  0
  4  5  1  0  0  0
  5  6  2  0  0  0
  6  1  1  0  0  0
 12  7  1  0  0  0
 30 25  1  0  0  0
 23 24  1  0  0  0
M  END
> <minimizedAffinity>
-9.78973

> <CNNscore>
0.2007119209

> <CNNaffinity>
6.1673569679

> <CNN_VS>
1.2378621101

> <CNNaffinity_variance>
0.4747735560

$$$$
[H]c1c([H])c(-c2c([H])c(C(F)(F)F)c([H])c(C(F)(F)F)c2[H])c([H])c(C(=O)N([H])c2c([H])c([H])c(C#N)c(C(F)(F)F)c2[H])c1C#N


 38 40  0  0  0  0  0  0  0  0999 V2000
   41.7057   13.5606  -14.5540 C   0  0  0  0  0  0  0  0  0  0  0  0
   41.8216   14.3371  -13.4987 C   0  0  0  0  0  0  0  0  0  0  0  0
   43.1025   14.7775  -13.0751 C   0  0  0  0  0  0  0  0  0  0  0  0
   44.2383   14.4438  -13.7271 C   0  0  0  0  0  0  0  0  0  0  0  0
   44.1404   13.6031  -14.8757 C   0  0  0  0  0  0  0  0  0  0  0  0
   42.8756   13.1825  -15.2489 C   0  0  0  0  0  0  0  0  0  0  0  0
   40.4613   13.1985  -15.2264 C   0  0  0  0  0  0  0  0  0  0  0  0
   39.2823   13.0412  -14.5489 C   0  0  0  0  0  0  0  0  0  0  0  0
   38.1726   12.3889  -15.1296 C   0  0  0  0  0  0  0  0  0  0  0  0
   38.2923   11.8973  -16.4027 C   0  0  0  0  0  0  0  0  0  0  0  0
   39.4494   12.0413  -17.1045 C   0  0  0  0  0  0  0  0  0  0  0  0
   40.5601   12.6891  -16.5414 C   0  0  0  0  0  0  0  0  0  0  0  0
   36.9364   12.3022  -14.3530 C   0  0  0  0  0  0  0  0  0  0  0  0
   36.4449   13.6131  -14.1889 F   0  0  0  0  0  0  0  0  0  0  0  0
   37.0904   11.6555  -13.1274 F   0  0  0  0  0  0  0  0  0  0  0  0
   35.9632   11.6562  -15.1041 F   0  0  0  0  0  0  0  0  0  0  0  0
   39.6805   11.3893  -18.3984 C   0  0  0  0  0  0  0  0  0  0  0  0
   40.7604   10.5281  -18.3030 F   0  0  0  0  0  0  0  0  0  0  0  0
   38.5933   10.7030  -18.9076 F   0  0  0  0  0  0  0  0  0  0  0  0
   39.9731   12.3805  -19.3725 F   0  0  0  0  0  0  0  0  0  0  0  0
   43.1411   15.3255  -11.6802 C   0  0  0  0  0  0  0  0  0  0  0  0
   43.4694   16.4865  -11.5032 O   0  0  0  0  0  0  0  0  0  0  0  0
   42.7404   14.4617  -10.6625 N   0  0  0  0  0  0  0  0  0  0  0  0
   42.5633   13.4435  -10.8476 H   0  0  0  0  0  0  0  0  0  0  0  0
   42.5388   14.8677   -9.2727 C   0  0  0  0  0  0  0  0  0  0  0  0
   43.1865   14.5465   -8.1895 C   0  0  0  0  0  0  0  0  0  0  0  0
   42.7369   14.8589   -6.8915 C   0  0  0  0  0  0  0  0  0  0  0  0
   41.5647   15.5477   -6.7500 C   0  0  0  0  0  0  0  0  0  0  0  0
   40.8481   15.9016   -7.9056 C   0  0  0  0  0  0  0  0  0  0  0  0
   41.3032   15.5843   -9.1499 C   0  0  0  0  0  0  0  0  0  0  0  0
   43.5223   14.4273   -5.7283 C   0  0  0  0  0  0  0  0  0  0  0  0
   43.9900   15.5178   -4.9800 F   0  0  0  0  0  0  0  0  0  0  0  0
   44.6854   13.7586   -6.1779 F   0  0  0  0  0  0  0  0  0  0  0  0
   42.8688   13.4953   -4.9280 F   0  0  0  0  0  0  0  0  0  0  0  0
   41.0451   15.8400   -5.4587 C   0  0  0  0  0  0  0  0  0  0  0  0
   40.6245   16.0257   -4.4024 N   0  0  0  0  0  0  0  0  0  0  0  0
   45.4991   14.9494  -13.4122 C   0  0  0  0  0  0  0  0  0  0  0  0
   46.5848   15.3381  -13.1115 N   0  0  0  0  0  0  0  0  0  0  0  0
  1  7  1  0  0  0
  7  8  2  0  0  0
  8  9  1  0  0  0
  9 13  1  0  0  0
 13 14  1  0  0  0
 13 15  1  0  0  0
 13 16  1  0  0  0
  9 10  2  0  0  0
 10 11  1  0  0  0
 11 17  1  0  0  0
 17 18  1  0  0  0
 17 19  1  0  0  0
 17 20  1  0  0  0
 11 12  2  0  0  0
  1  2  2  0  0  0
  2  3  1  0  0  0
  3 21  1  0  0  0
 21 22  2  0  0  0
 21 23  1  0  0  0
 23 25  1  0  0  0
 25 26  2  0  0  0
 26 27  1  0  0  0
 27 31  1  0  0  0
 31 32  1  0  0  0
 31 33  1  0  0  0
 31 34  1  0  0  0
 27 28  2  0  0  0
 28 35  1  0  0  0
 35 36  3  0  0  0
 28 29  1  0  0  0
 29 30  2  0  0  0
  3  4  2  0  0  0
  4 37  1  0  0  0
 37 38  3  0  0  0
  4  5  1  0  0  0
  5  6  2  0  0  0
  6  1  1  0  0  0
 12  7  1  0  0  0
 30 25  1  0  0  0
 23 24  1  0  0  0
M  END
> <minimizedAffinity>
-8.57028

> <CNNscore>
0.2002006769

> <CNNaffinity>
6.2175259590

> <CNN_VS>
1.2447528839

> <CNNaffinity_variance>
0.1702546179

$$$$
[H]c1c([H])c(-c2c([H])c(C(F)(F)F)c([H])c(C(F)(F)F)c2[H])c([H])c(C(=O)N([H])c2c([H])c([H])c(C#N)c(C(F)(F)F)c2[H])c1C#N


 38 40  0  0  0  0  0  0  0  0999 V2000
   41.9578   12.8759  -15.5562 C   0  0  0  0  0  0  0  0  0  0  0  0
   42.2544   13.5007  -14.4374 C   0  0  0  0  0  0  0  0  0  0  0  0
   43.6049   13.8109  -14.1308 C   0  0  0  0  0  0  0  0  0  0  0  0
   44.6276   13.5030  -14.9589 C   0  0  0  0  0  0  0  0  0  0  0  0
   44.3330   12.8259  -16.1797 C   0  0  0  0  0  0  0  0  0  0  0  0
   43.0060   12.5278  -16.4364 C   0  0  0  0  0  0  0  0  0  0  0  0
   40.6191   12.6735  -16.1028 C   0  0  0  0  0  0  0  0  0  0  0  0
   39.5059   12.6116  -15.3086 C   0  0  0  0  0  0  0  0  0  0  0  0
   38.2786   12.1031  -15.7872 C   0  0  0  0  0  0  0  0  0  0  0  0
   38.2131   11.6552  -17.0802 C   0  0  0  0  0  0  0  0  0  0  0  0
   39.3007   11.7072  -17.8967 C   0  0  0  0  0  0  0  0  0  0  0  0
   40.5266   12.2119  -17.4358 C   0  0  0  0  0  0  0  0  0  0  0  0
   37.1267   12.1131  -14.8862 C   0  0  0  0  0  0  0  0  0  0  0  0
   36.6410   13.4353  -14.8322 F   0  0  0  0  0  0  0  0  0  0  0  0
   37.4082   11.6182  -13.6135 F   0  0  0  0  0  0  0  0  0  0  0  0
   36.0900   11.3836  -15.4534 F   0  0  0  0  0  0  0  0  0  0  0  0
   39.3259   11.0891  -19.2272 C   0  0  0  0  0  0  0  0  0  0  0  0
   40.4567   10.3009  -19.3565 F   0  0  0  0  0  0  0  0  0  0  0  0
   38.2080   10.3384  -19.5422 F   0  0  0  0  0  0  0  0  0  0  0  0
   39.3674   12.1104  -20.2132 F   0  0  0  0  0  0  0  0  0  0  0  0
   43.8495   14.1694  -12.6958 C   0  0  0  0  0  0  0  0  0  0  0  0
   43.7283   15.3298  -12.3408 O   0  0  0  0  0  0  0  0  0  0  0  0
   44.1572   13.1162  -11.8365 N   0  0  0  0  0  0  0  0  0  0  0  0
   44.3502   12.1510  -12.2018 H   0  0  0  0  0  0  0  0  0  0  0  0
   44.2486   13.2423  -10.3829 C   0  0  0  0  0  0  0  0  0  0  0  0
   43.3184   13.3324   -9.4761 C   0  0  0  0  0  0  0  0  0  0  0  0
   43.5720   13.6607   -8.1299 C   0  0  0  0  0  0  0  0  0  0  0  0
   44.8626   13.8862   -7.7402 C   0  0  0  0  0  0  0  0  0  0  0  0
   45.8819   13.7972   -8.7033 C   0  0  0  0  0  0  0  0  0  0  0  0
   45.6094   13.4814  -10.0003 C   0  0  0  0  0  0  0  0  0  0  0  0
   42.4522   13.7683   -7.1861 C   0  0  0  0  0  0  0  0  0  0  0  0
   42.4980   12.7669   -6.2047 F   0  0  0  0  0  0  0  0  0  0  0  0
   41.2389   13.5523   -7.8813 F   0  0  0  0  0  0  0  0  0  0  0  0
   42.3147   15.0341   -6.6249 F   0  0  0  0  0  0  0  0  0  0  0  0
   45.1616   14.2710   -6.4041 C   0  0  0  0  0  0  0  0  0  0  0  0
   45.3611   14.6126   -5.3221 N   0  0  0  0  0  0  0  0  0  0  0  0
   45.9497   13.8931  -14.7487 C   0  0  0  0  0  0  0  0  0  0  0  0
   47.0773   14.2035  -14.5199 N   0  0  0  0  0  0  0  0  0  0  0  0
  1  7  1  0  0  0
  7  8  2  0  0  0
  8  9  1  0  0  0
  9 13  1  0  0  0
 13 14  1  0  0  0
 13 15  1  0  0  0
 13 16  1  0  0  0
  9 10  2  0  0  0
 10 11  1  0  0  0
 11 17  1  0  0  0
 17 18  1  0  0  0
 17 19  1  0  0  0
 17 20  1  0  0  0
 11 12  2  0  0  0
  1  2  2  0  0  0
  2  3  1  0  0  0
  3 21  1  0  0  0
 21 22  2  0  0  0
 21 23  1  0  0  0
 23 25  1  0  0  0
 25 26  2  0  0  0
 26 27  1  0  0  0
 27 31  1  0  0  0
 31 32  1  0  0  0
 31 33  1  0  0  0
 31 34  1  0  0  0
 27 28  2  0  0  0
 28 35  1  0  0  0
 35 36  3  0  0  0
 28 29  1  0  0  0
 29 30  2  0  0  0
  3  4  2  0  0  0
  4 37  1  0  0  0
 37 38  3  0  0  0
  4  5  1  0  0  0
  5  6  2  0  0  0
  6  1  1  0  0  0
 12  7  1  0  0  0
 30 25  1  0  0  0
 23 24  1  0  0  0
M  END
> <minimizedAffinity>
-8.61639

> <CNNscore>
0.1828291714

> <CNNaffinity>
6.3451871872

> <CNN_VS>
1.1600853205

> <CNNaffinity_variance>
0.1167853251

$$$$
[H]c1c([H])c(-c2c([H])c(C(F)(F)F)c([H])c(C(F)(F)F)c2[H])c([H])c(C(=O)N([H])c2c([H])c([H])c(C#N)c(C(F)(F)F)c2[H])c1C#N


 38 40  0  0  0  0  0  0  0  0999 V2000
   40.5224   12.7969  -15.5762 C   0  0  0  0  0  0  0  0  0  0  0  0
   41.3240   13.4164  -14.7373 C   0  0  0  0  0  0  0  0  0  0  0  0
   42.7291   13.3761  -14.9325 C   0  0  0  0  0  0  0  0  0  0  0  0
   43.3002   12.7296  -15.9729 C   0  0  0  0  0  0  0  0  0  0  0  0
   42.4531   12.0501  -16.8983 C   0  0  0  0  0  0  0  0  0  0  0  0
   41.0895   12.1003  -16.6660 C   0  0  0  0  0  0  0  0  0  0  0  0
   39.0681   12.9158  -15.6274 C   0  0  0  0  0  0  0  0  0  0  0  0
   38.3493   13.5364  -14.6416 C   0  0  0  0  0  0  0  0  0  0  0  0
   36.9515   13.3731  -14.5257 C   0  0  0  0  0  0  0  0  0  0  0  0
   36.3084   12.5636  -15.4246 C   0  0  0  0  0  0  0  0  0  0  0  0
   36.9936   11.9359  -16.4190 C   0  0  0  0  0  0  0  0  0  0  0  0
   38.3827   12.0904  -16.5480 C   0  0  0  0  0  0  0  0  0  0  0  0
   36.2540   14.1067  -13.4703 C   0  0  0  0  0  0  0  0  0  0  0  0
   34.9036   14.2257  -13.8567 F   0  0  0  0  0  0  0  0  0  0  0  0
   36.8175   15.3503  -13.1877 F   0  0  0  0  0  0  0  0  0  0  0  0
   36.2199   13.3350  -12.3162 F   0  0  0  0  0  0  0  0  0  0  0  0
   36.3797   10.9333  -17.2969 C   0  0  0  0  0  0  0  0  0  0  0  0
   35.6837   11.5642  -18.3139 F   0  0  0  0  0  0  0  0  0  0  0  0
   37.2621   10.0208  -17.8457 F   0  0  0  0  0  0  0  0  0  0  0  0
   35.4692   10.1486  -16.5405 F   0  0  0  0  0  0  0  0  0  0  0  0
   43.5345   13.7830  -13.7354 C   0  0  0  0  0  0  0  0  0  0  0  0
   44.3998   14.6335  -13.8584 O   0  0  0  0  0  0  0  0  0  0  0  0
   43.1951   13.1814  -12.5250 N   0  0  0  0  0  0  0  0  0  0  0  0
   42.5142   12.3832  -12.4830 H   0  0  0  0  0  0  0  0  0  0  0  0
   43.7399   13.5802  -11.2284 C   0  0  0  0  0  0  0  0  0  0  0  0
   44.4582   12.9186  -10.3669 C   0  0  0  0  0  0  0  0  0  0  0  0
   44.7291   13.3774   -9.0628 C   0  0  0  0  0  0  0  0  0  0  0  0
   44.2265   14.5876   -8.6742 C   0  0  0  0  0  0  0  0  0  0  0  0
   43.4460   15.3169   -9.5870 C   0  0  0  0  0  0  0  0  0  0  0  0
   43.1957   14.8490  -10.8419 C   0  0  0  0  0  0  0  0  0  0  0  0
   45.5253   12.5453   -8.1518 C   0  0  0  0  0  0  0  0  0  0  0  0
   46.7435   13.1552   -7.8172 F   0  0  0  0  0  0  0  0  0  0  0  0
   45.8794   11.3450   -8.8122 F   0  0  0  0  0  0  0  0  0  0  0  0
   44.8283   12.1313   -7.0209 F   0  0  0  0  0  0  0  0  0  0  0  0
   44.4300   15.0680   -7.3511 C   0  0  0  0  0  0  0  0  0  0  0  0
   44.6362   15.4837   -6.2967 N   0  0  0  0  0  0  0  0  0  0  0  0
   44.6636   12.7647  -16.2632 C   0  0  0  0  0  0  0  0  0  0  0  0
   45.8361   12.7540  -16.4763 N   0  0  0  0  0  0  0  0  0  0  0  0
  1  7  1  0  0  0
  7  8  2  0  0  0
  8  9  1  0  0  0
  9 13  1  0  0  0
 13 14  1  0  0  0
 13 15  1  0  0  0
 13 16  1  0  0  0
  9 10  2  0  0  0
 10 11  1  0  0  0
 11 17  1  0  0  0
 17 18  1  0  0  0
 17 19  1  0  0  0
 17 20  1  0  0  0
 11 12  2  0  0  0
  1  2  2  0  0  0
  2  3  1  0  0  0
  3 21  1  0  0  0
 21 22  2  0  0  0
 21 23  1  0  0  0
 23 25  1  0  0  0
 25 26  2  0  0  0
 26 27  1  0  0  0
 27 31  1  0  0  0
 31 32  1  0  0  0
 31 33  1  0  0  0
 31 34  1  0  0  0
 27 28  2  0  0  0
 28 35  1  0  0  0
 35 36  3  0  0  0
 28 29  1  0  0  0
 29 30  2  0  0  0
  3  4  2  0  0  0
  4 37  1  0  0  0
 37 38  3  0  0  0
  4  5  1  0  0  0
  5  6  2  0  0  0
  6  1  1  0  0  0
 12  7  1  0  0  0
 30 25  1  0  0  0
 23 24  1  0  0  0
M  END
> <minimizedAffinity>
-8.80240

> <CNNscore>
0.1798431575

> <CNNaffinity>
6.4418144226

> <CNN_VS>
1.1585162878

> <CNNaffinity_variance>
0.2483196557

$$$$
[H]c1c([H])c(-c2c([H])c(C(F)(F)F)c([H])c(C(F)(F)F)c2[H])c([H])c(C(=O)N([H])c2c([H])c([H])c(C#N)c(C(F)(F)F)c2[H])c1C#N


 38 40  0  0  0  0  0  0  0  0999 V2000
   40.3803   12.8382  -15.4757 C   0  0  0  0  0  0  0  0  0  0  0  0
   41.1950   13.4550  -14.6475 C   0  0  0  0  0  0  0  0  0  0  0  0
   42.5973   13.4085  -14.8603 C   0  0  0  0  0  0  0  0  0  0  0  0
   43.1526   12.7585  -15.9071 C   0  0  0  0  0  0  0  0  0  0  0  0
   42.2910   12.0818  -16.8212 C   0  0  0  0  0  0  0  0  0  0  0  0
   40.9307   12.1380  -16.5719 C   0  0  0  0  0  0  0  0  0  0  0  0
   38.9260   12.9633  -15.5088 C   0  0  0  0  0  0  0  0  0  0  0  0
   38.2214   13.5789  -14.5097 C   0  0  0  0  0  0  0  0  0  0  0  0
   36.8243   13.4202  -14.3786 C   0  0  0  0  0  0  0  0  0  0  0  0
   36.1675   12.6204  -15.2763 C   0  0  0  0  0  0  0  0  0  0  0  0
   36.8384   11.9980  -16.2835 C   0  0  0  0  0  0  0  0  0  0  0  0
   38.2265   12.1479  -16.4277 C   0  0  0  0  0  0  0  0  0  0  0  0
   36.1423   14.1482  -13.3093 C   0  0  0  0  0  0  0  0  0  0  0  0
   36.3543   13.4386  -12.1099 F   0  0  0  0  0  0  0  0  0  0  0  0
   34.7845   14.3530  -13.5503 F   0  0  0  0  0  0  0  0  0  0  0  0
   36.7715   15.3697  -13.1077 F   0  0  0  0  0  0  0  0  0  0  0  0
   36.2101   11.0048  -17.1621 C   0  0  0  0  0  0  0  0  0  0  0  0
   35.2809   10.2681  -16.4474 F   0  0  0  0  0  0  0  0  0  0  0  0
   35.6077   11.5252  -18.2928 F   0  0  0  0  0  0  0  0  0  0  0  0
   37.2083   10.1232  -17.6552 F   0  0  0  0  0  0  0  0  0  0  0  0
   43.4195   13.8131  -13.6738 C   0  0  0  0  0  0  0  0  0  0  0  0
   43.7554   14.9787  -13.5491 O   0  0  0  0  0  0  0  0  0  0  0  0
   43.7068   12.8124  -12.7472 N   0  0  0  0  0  0  0  0  0  0  0  0
   43.4852   11.8052  -12.9438 H   0  0  0  0  0  0  0  0  0  0  0  0
   44.3344   13.0513  -11.4487 C   0  0  0  0  0  0  0  0  0  0  0  0
   43.8345   13.4921  -10.3299 C   0  0  0  0  0  0  0  0  0  0  0  0
   44.6180   13.8670   -9.2208 C   0  0  0  0  0  0  0  0  0  0  0  0
   45.9775   13.7538   -9.3081 C   0  0  0  0  0  0  0  0  0  0  0  0
   46.5382   13.2833  -10.5075 C   0  0  0  0  0  0  0  0  0  0  0  0
   45.7580   12.9304  -11.5672 C   0  0  0  0  0  0  0  0  0  0  0  0
   43.9638   14.3820   -8.0113 C   0  0  0  0  0  0  0  0  0  0  0  0
   44.1783   13.5463   -6.9051 F   0  0  0  0  0  0  0  0  0  0  0  0
   42.5627   14.3850   -8.2089 F   0  0  0  0  0  0  0  0  0  0  0  0
   44.2808   15.7064   -7.7258 F   0  0  0  0  0  0  0  0  0  0  0  0
   46.8116   14.1687   -8.2335 C   0  0  0  0  0  0  0  0  0  0  0  0
   47.5015   14.4552   -7.3566 N   0  0  0  0  0  0  0  0  0  0  0  0
   44.5124   12.7876  -16.2145 C   0  0  0  0  0  0  0  0  0  0  0  0
   45.6614   12.8093  -16.5298 N   0  0  0  0  0  0  0  0  0  0  0  0
  1  7  1  0  0  0
  7  8  2  0  0  0
  8  9  1  0  0  0
  9 13  1  0  0  0
 13 14  1  0  0  0
 13 15  1  0  0  0
 13 16  1  0  0  0
  9 10  2  0  0  0
 10 11  1  0  0  0
 11 17  1  0  0  0
 17 18  1  0  0  0
 17 19  1  0  0  0
 17 20  1  0  0  0
 11 12  2  0  0  0
  1  2  2  0  0  0
  2  3  1  0  0  0
  3 21  1  0  0  0
 21 22  2  0  0  0
 21 23  1  0  0  0
 23 25  1  0  0  0
 25 26  2  0  0  0
 26 27  1  0  0  0
 27 31  1  0  0  0
 31 32  1  0  0  0
 31 33  1  0  0  0
 31 34  1  0  0  0
 27 28  2  0  0  0
 28 35  1  0  0  0
 35 36  3  0  0  0
 28 29  1  0  0  0
 29 30  2  0  0  0
  3  4  2  0  0  0
  4 37  1  0  0  0
 37 38  3  0  0  0
  4  5  1  0  0  0
  5  6  2  0  0  0
  6  1  1  0  0  0
 12  7  1  0  0  0
 30 25  1  0  0  0
 23 24  1  0  0  0
M  END
> <minimizedAffinity>
-8.36519

> <CNNscore>
0.1785986274

> <CNNaffinity>
6.4757218361

> <CNN_VS>
1.1565550566

> <CNNaffinity_variance>
0.2549526691

$$$$
[H]c1c([H])c([H])c2c(c1[H])C([H])([H])[C@]1([H])C([H])([H])c3c([H])c(N([H])C(=O)c4c([H])c([H])c(F)c(C(F)(F)F)c4[H])c([H])c([H])c3C([H])([H])[C@]21[H]


 32 36  0  0  0  0  0  0  0  0999 V2000
   40.9290   12.9195  -15.4472 C   0  0  0  0  0  0  0  0  0  0  0  0
   41.8322   12.6705  -16.4407 C   0  0  0  0  0  0  0  0  0  0  0  0
   43.1969   12.9424  -16.2624 C   0  0  0  0  0  0  0  0  0  0  0  0
   43.6362   13.4753  -15.0515 C   0  0  0  0  0  0  0  0  0  0  0  0
   42.7447   13.7366  -14.0326 C   0  0  0  0  0  0  0  0  0  0  0  0
   41.4231   13.4616  -14.2346 C   0  0  0  0  0  0  0  0  0  0  0  0
   43.3261   14.3134  -12.7941 C   0  0  0  0  0  0  0  0  0  0  0  0
   44.0781   15.5497  -13.3106 C   0  0  0  0  0  0  0  0  0  0  0  0
   45.2780   15.0512  -14.0695 C   0  0  0  0  0  0  0  0  0  0  0  0
   46.3336   14.9793  -13.0506 C   0  0  0  0  0  0  0  0  0  0  0  0
   45.9711   15.7535  -11.9828 C   0  0  0  0  0  0  0  0  0  0  0  0
   46.7610   15.9025  -10.8490 C   0  0  0  0  0  0  0  0  0  0  0  0
   47.9755   15.2530  -10.7607 C   0  0  0  0  0  0  0  0  0  0  0  0
   48.3508   14.4720  -11.8265 C   0  0  0  0  0  0  0  0  0  0  0  0
   47.5601   14.3306  -12.9474 C   0  0  0  0  0  0  0  0  0  0  0  0
   44.6261   16.3940  -12.2115 C   0  0  0  0  0  0  0  0  0  0  0  0
   45.0647   13.7715  -14.8017 C   0  0  0  0  0  0  0  0  0  0  0  0
   38.8705   11.8246  -16.4278 C   0  0  0  0  0  0  0  0  0  0  0  0
   39.4334   11.1268  -17.3231 O   0  0  0  0  0  0  0  0  0  0  0  0
   39.5398   12.6614  -15.5432 N   0  0  0  0  0  0  0  0  0  0  0  0
   38.9197   13.1784  -14.8344 H   0  0  0  0  0  0  0  0  0  0  0  0
   35.3498   12.4410  -15.2713 C   0  0  0  0  0  0  0  0  0  0  0  0
   36.7156   12.5052  -15.4008 C   0  0  0  0  0  0  0  0  0  0  0  0
   37.3962   11.7211  -16.3400 C   0  0  0  0  0  0  0  0  0  0  0  0
   36.6742   10.8802  -17.1362 C   0  0  0  0  0  0  0  0  0  0  0  0
   35.2759   10.8000  -17.0196 C   0  0  0  0  0  0  0  0  0  0  0  0
   34.6389   11.5888  -16.0817 C   0  0  0  0  0  0  0  0  0  0  0  0
   33.2744   11.4926  -15.9870 F   0  0  0  0  0  0  0  0  0  0  0  0
   34.6551   13.2791  -14.2720 C   0  0  0  0  0  0  0  0  0  0  0  0
   34.3509   12.4792  -13.1815 F   0  0  0  0  0  0  0  0  0  0  0  0
   33.5251   13.8884  -14.7823 F   0  0  0  0  0  0  0  0  0  0  0  0
   35.4714   14.2884  -13.7997 F   0  0  0  0  0  0  0  0  0  0  0  0
 22 29  1  0  0  0
 29 30  1  0  0  0
 29 31  1  0  0  0
 29 32  1  0  0  0
 22 23  2  0  0  0
 23 24  1  0  0  0
 24 18  1  0  0  0
 18 19  2  0  0  0
 18 20  1  0  0  0
 20  1  1  0  0  0
  1  2  2  0  0  0
  2  3  1  0  0  0
  3  4  2  0  0  0
  4  5  1  0  0  0
  5  6  2  0  0  0
  5  7  1  0  0  0
  7  8  1  0  0  0
  8  9  1  0  0  0
  9 10  1  0  0  0
 10 11  2  0  0  0
 11 12  1  0  0  0
 12 13  2  0  0  0
 13 14  1  0  0  0
 14 15  2  0  0  0
 11 16  1  0  0  0
  9 17  1  0  0  0
 24 25  2  0  0  0
 25 26  1  0  0  0
 26 27  2  0  0  0
 27 28  1  0  0  0
 27 22  1  0  0  0
  6  1  1  0  0  0
 16  8  1  0  0  0
 17  4  1  0  0  0
 15 10  1  0  0  0
 20 21  1  0  0  0
M  END
> <minimizedAffinity>
-9.80657

> <CNNscore>
0.2791115046

> <CNNaffinity>
6.4060378075

> <CNN_VS>
1.7879987955

> <CNNaffinity_variance>
0.2090770006

$$$$
[H]c1c([H])c([H])c2c(c1[H])C([H])([H])[C@]1([H])C([H])([H])c3c([H])c(N([H])C(=O)c4c([H])c([H])c(F)c(C(F)(F)F)c4[H])c([H])c([H])c3C([H])([H])[C@]21[H]


 32 36  0  0  0  0  0  0  0  0999 V2000
   36.3447   15.3888  -11.0812 C   0  0  0  0  0  0  0  0  0  0  0  0
   36.4604   16.7405  -11.2364 C   0  0  0  0  0  0  0  0  0  0  0  0
   36.9942   17.5426  -10.2166 C   0  0  0  0  0  0  0  0  0  0  0  0
   37.4125   16.9488   -9.0268 C   0  0  0  0  0  0  0  0  0  0  0  0
   37.3059   15.5862   -8.8445 C   0  0  0  0  0  0  0  0  0  0  0  0
   36.7829   14.8311   -9.8542 C   0  0  0  0  0  0  0  0  0  0  0  0
   37.7728   15.0686   -7.5335 C   0  0  0  0  0  0  0  0  0  0  0  0
   36.9698   15.9072   -6.5271 C   0  0  0  0  0  0  0  0  0  0  0  0
   37.5237   17.3055   -6.5765 C   0  0  0  0  0  0  0  0  0  0  0  0
   38.5788   17.3022   -5.5546 C   0  0  0  0  0  0  0  0  0  0  0  0
   38.3718   16.2474   -4.7085 C   0  0  0  0  0  0  0  0  0  0  0  0
   39.1973   15.9680   -3.6259 C   0  0  0  0  0  0  0  0  0  0  0  0
   40.2878   16.7713   -3.3610 C   0  0  0  0  0  0  0  0  0  0  0  0
   40.5068   17.8338   -4.2035 C   0  0  0  0  0  0  0  0  0  0  0  0
   39.6818   18.1029   -5.2753 C   0  0  0  0  0  0  0  0  0  0  0  0
   37.1568   15.4557   -5.1192 C   0  0  0  0  0  0  0  0  0  0  0  0
   37.9940   17.7423   -7.9209 C   0  0  0  0  0  0  0  0  0  0  0  0
   36.4421   14.0491  -13.2245 C   0  0  0  0  0  0  0  0  0  0  0  0
   37.6152   14.3583  -13.5899 O   0  0  0  0  0  0  0  0  0  0  0  0
   35.8301   14.5098  -12.0652 N   0  0  0  0  0  0  0  0  0  0  0  0
   34.8342   14.1463  -11.8905 H   0  0  0  0  0  0  0  0  0  0  0  0
   35.6964   11.7314  -16.0855 C   0  0  0  0  0  0  0  0  0  0  0  0
   36.3459   12.5813  -15.2240 C   0  0  0  0  0  0  0  0  0  0  0  0
   35.6945   13.1308  -14.1131 C   0  0  0  0  0  0  0  0  0  0  0  0
   34.3870   12.8062  -13.8950 C   0  0  0  0  0  0  0  0  0  0  0  0
   33.7046   11.9383  -14.7646 C   0  0  0  0  0  0  0  0  0  0  0  0
   34.3799   11.4155  -15.8501 C   0  0  0  0  0  0  0  0  0  0  0  0
   33.6926   10.5713  -16.6837 F   0  0  0  0  0  0  0  0  0  0  0  0
   36.4065   11.1648  -17.2509 C   0  0  0  0  0  0  0  0  0  0  0  0
   37.7392   11.5350  -17.1601 F   0  0  0  0  0  0  0  0  0  0  0  0
   35.8535   11.5595  -18.4539 F   0  0  0  0  0  0  0  0  0  0  0  0
   36.3836    9.7837  -17.2377 F   0  0  0  0  0  0  0  0  0  0  0  0
 22 29  1  0  0  0
 29 30  1  0  0  0
 29 31  1  0  0  0
 29 32  1  0  0  0
 22 23  2  0  0  0
 23 24  1  0  0  0
 24 18  1  0  0  0
 18 19  2  0  0  0
 18 20  1  0  0  0
 20  1  1  0  0  0
  1  2  2  0  0  0
  2  3  1  0  0  0
  3  4  2  0  0  0
  4  5  1  0  0  0
  5  6  2  0  0  0
  5  7  1  0  0  0
  7  8  1  0  0  0
  8  9  1  0  0  0
  9 10  1  0  0  0
 10 11  2  0  0  0
 11 12  1  0  0  0
 12 13  2  0  0  0
 13 14  1  0  0  0
 14 15  2  0  0  0
 11 16  1  0  0  0
  9 17  1  0  0  0
 24 25  2  0  0  0
 25 26  1  0  0  0
 26 27  2  0  0  0
 27 28  1  0  0  0
 27 22  1  0  0  0
  6  1  1  0  0  0
 16  8  1  0  0  0
 17  4  1  0  0  0
 15 10  1  0  0  0
 20 21  1  0  0  0
M  END
> <minimizedAffinity>
-8.48435

> <CNNscore>
0.2763491571

> <CNNaffinity>
5.8388495445

> <CNN_VS>
1.6135611534

> <CNNaffinity_variance>
0.2880768776

$$$$
[H]c1c([H])c([H])c2c(c1[H])C([H])([H])[C@]1([H])C([H])([H])c3c([H])c(N([H])C(=O)c4c([H])c([H])c(F)c(C(F)(F)F)c4[H])c([H])c([H])c3C([H])([H])[C@]21[H]


 32 36  0  0  0  0  0  0  0  0999 V2000
   37.2386   15.2868  -11.7230 C   0  0  0  0  0  0  0  0  0  0  0  0
   36.5179   16.4230  -11.4896 C   0  0  0  0  0  0  0  0  0  0  0  0
   36.7005   17.1668  -10.3142 C   0  0  0  0  0  0  0  0  0  0  0  0
   37.6327   16.7378   -9.3706 C   0  0  0  0  0  0  0  0  0  0  0  0
   38.3728   15.5938   -9.5817 C   0  0  0  0  0  0  0  0  0  0  0  0
   38.1739   14.8906  -10.7346 C   0  0  0  0  0  0  0  0  0  0  0  0
   39.3260   15.2296   -8.5031 C   0  0  0  0  0  0  0  0  0  0  0  0
   38.4315   15.1842   -7.2547 C   0  0  0  0  0  0  0  0  0  0  0  0
   38.0524   16.6041   -6.9315 C   0  0  0  0  0  0  0  0  0  0  0  0
   39.1097   17.0504   -6.0147 C   0  0  0  0  0  0  0  0  0  0  0  0
   39.7392   15.9518   -5.4970 C   0  0  0  0  0  0  0  0  0  0  0  0
   40.7877   16.0342   -4.5886 C   0  0  0  0  0  0  0  0  0  0  0  0
   41.2427   17.2666   -4.1659 C   0  0  0  0  0  0  0  0  0  0  0  0
   40.6191   18.3778   -4.6787 C   0  0  0  0  0  0  0  0  0  0  0  0
   39.5792   18.2858   -5.5798 C   0  0  0  0  0  0  0  0  0  0  0  0
   39.1474   14.6801   -6.0486 C   0  0  0  0  0  0  0  0  0  0  0  0
   37.8768   17.4876   -8.1180 C   0  0  0  0  0  0  0  0  0  0  0  0
   36.4758   13.2696  -13.0447 C   0  0  0  0  0  0  0  0  0  0  0  0
   35.8547   12.6611  -12.1231 O   0  0  0  0  0  0  0  0  0  0  0  0
   37.1232   14.4890  -12.8874 N   0  0  0  0  0  0  0  0  0  0  0  0
   37.5959   14.8804  -13.7693 H   0  0  0  0  0  0  0  0  0  0  0  0
   35.3053   11.3441  -16.0505 C   0  0  0  0  0  0  0  0  0  0  0  0
   35.3377   11.9760  -14.8315 C   0  0  0  0  0  0  0  0  0  0  0  0
   36.4964   12.6133  -14.3716 C   0  0  0  0  0  0  0  0  0  0  0  0
   37.6089   12.5977  -15.1618 C   0  0  0  0  0  0  0  0  0  0  0  0
   37.5962   11.9568  -16.4125 C   0  0  0  0  0  0  0  0  0  0  0  0
   36.4348   11.3387  -16.8331 C   0  0  0  0  0  0  0  0  0  0  0  0
   36.4476   10.7202  -18.0567 F   0  0  0  0  0  0  0  0  0  0  0  0
   34.0697   10.6786  -16.5130 C   0  0  0  0  0  0  0  0  0  0  0  0
   33.0752   10.9291  -15.5804 F   0  0  0  0  0  0  0  0  0  0  0  0
   34.2405    9.3230  -16.7175 F   0  0  0  0  0  0  0  0  0  0  0  0
   33.6248   11.2075  -17.7091 F   0  0  0  0  0  0  0  0  0  0  0  0
 22 29  1  0  0  0
 29 30  1  0  0  0
 29 31  1  0  0  0
 29 32  1  0  0  0
 22 23  2  0  0  0
 23 24  1  0  0  0
 24 18  1  0  0  0
 18 19  2  0  0  0
 18 20  1  0  0  0
 20  1  1  0  0  0
  1  2  2  0  0  0
  2  3  1  0  0  0
  3  4  2  0  0  0
  4  5  1  0  0  0
  5  6  2  0  0  0
  5  7  1  0  0  0
  7  8  1  0  0  0
  8  9  1  0  0  0
  9 10  1  0  0  0
 10 11  2  0  0  0
 11 12  1  0  0  0
 12 13  2  0  0  0
 13 14  1  0  0  0
 14 15  2  0  0  0
 11 16  1  0  0  0
  9 17  1  0  0  0
 24 25  2  0  0  0
 25 26  1  0  0  0
 26 27  2  0  0  0
 27 28  1  0  0  0
 27 22  1  0  0  0
  6  1  1  0  0  0
 16  8  1  0  0  0
 17  4  1  0  0  0
 15 10  1  0  0  0
 20 21  1  0  0  0
M  END
> <minimizedAffinity>
-9.16259

> <CNNscore>
0.2679021955

> <CNNaffinity>
5.7030272484

> <CNN_VS>
1.5278534889

> <CNNaffinity_variance>
0.3297922313

$$$$
[H]c1c([H])c([H])c2c(c1[H])C([H])([H])[C@]1([H])C([H])([H])c3c([H])c(N([H])C(=O)c4c([H])c([H])c(F)c(C(F)(F)F)c4[H])c([H])c([H])c3C([H])([H])[C@]21[H]


 32 36  0  0  0  0  0  0  0  0999 V2000
   41.0932   13.1621  -15.2609 C   0  0  0  0  0  0  0  0  0  0  0  0
   41.7520   12.7073  -16.3671 C   0  0  0  0  0  0  0  0  0  0  0  0
   43.1539   12.6696  -16.4096 C   0  0  0  0  0  0  0  0  0  0  0  0
   43.8841   13.1037  -15.3043 C   0  0  0  0  0  0  0  0  0  0  0  0
   43.2431   13.5681  -14.1754 C   0  0  0  0  0  0  0  0  0  0  0  0
   41.8785   13.5930  -14.1626 C   0  0  0  0  0  0  0  0  0  0  0  0
   44.1241   14.0136  -13.0663 C   0  0  0  0  0  0  0  0  0  0  0  0
   45.0375   15.0453  -13.7459 C   0  0  0  0  0  0  0  0  0  0  0  0
   45.9645   14.2836  -14.6542 C   0  0  0  0  0  0  0  0  0  0  0  0
   47.1257   13.9887  -13.8043 C   0  0  0  0  0  0  0  0  0  0  0  0
   47.1142   14.8355  -12.7301 C   0  0  0  0  0  0  0  0  0  0  0  0
   48.0858   14.8163  -11.7366 C   0  0  0  0  0  0  0  0  0  0  0  0
   49.1271   13.9131  -11.8036 C   0  0  0  0  0  0  0  0  0  0  0  0
   49.1499   13.0569  -12.8773 C   0  0  0  0  0  0  0  0  0  0  0  0
   48.1811   13.0837  -13.8583 C   0  0  0  0  0  0  0  0  0  0  0  0
   45.9230   15.7575  -12.7817 C   0  0  0  0  0  0  0  0  0  0  0  0
   45.3639   13.0762  -15.2870 C   0  0  0  0  0  0  0  0  0  0  0  0
   38.7331   12.3109  -15.5828 C   0  0  0  0  0  0  0  0  0  0  0  0
   39.0000   11.2367  -16.1994 O   0  0  0  0  0  0  0  0  0  0  0  0
   39.6838   13.2195  -15.1340 N   0  0  0  0  0  0  0  0  0  0  0  0
   39.2970   14.0787  -14.6177 H   0  0  0  0  0  0  0  0  0  0  0  0
   35.0000   11.8910  -15.5885 C   0  0  0  0  0  0  0  0  0  0  0  0
   36.3422   11.6744  -15.7829 C   0  0  0  0  0  0  0  0  0  0  0  0
   37.3006   12.5921  -15.3363 C   0  0  0  0  0  0  0  0  0  0  0  0
   36.8772   13.7207  -14.6964 C   0  0  0  0  0  0  0  0  0  0  0  0
   35.5083   13.9607  -14.4875 C   0  0  0  0  0  0  0  0  0  0  0  0
   34.5918   13.0327  -14.9420 C   0  0  0  0  0  0  0  0  0  0  0  0
   33.2624   13.2895  -14.7263 F   0  0  0  0  0  0  0  0  0  0  0  0
   34.0084   10.9067  -16.0697 C   0  0  0  0  0  0  0  0  0  0  0  0
   33.1885   10.5707  -15.0037 F   0  0  0  0  0  0  0  0  0  0  0  0
   34.5969    9.7877  -16.6265 F   0  0  0  0  0  0  0  0  0  0  0  0
   33.1858   11.4466  -17.0393 F   0  0  0  0  0  0  0  0  0  0  0  0
 22 29  1  0  0  0
 29 30  1  0  0  0
 29 31  1  0  0  0
 29 32  1  0  0  0
 22 23  2  0  0  0
 23 24  1  0  0  0
 24 18  1  0  0  0
 18 19  2  0  0  0
 18 20  1  0  0  0
 20  1  1  0  0  0
  1  2  2  0  0  0
  2  3  1  0  0  0
  3  4  2  0  0  0
  4  5  1  0  0  0
  5  6  2  0  0  0
  5  7  1  0  0  0
  7  8  1  0  0  0
  8  9  1  0  0  0
  9 10  1  0  0  0
 10 11  2  0  0  0
 11 12  1  0  0  0
 12 13  2  0  0  0
 13 14  1  0  0  0
 14 15  2  0  0  0
 11 16  1  0  0  0
  9 17  1  0  0  0
 24 25  2  0  0  0
 25 26  1  0  0  0
 26 27  2  0  0  0
 27 28  1  0  0  0
 27 22  1  0  0  0
  6  1  1  0  0  0
 16  8  1  0  0  0
 17  4  1  0  0  0
 15 10  1  0  0  0
 20 21  1  0  0  0
M  END
> <minimizedAffinity>
-9.53803

> <CNNscore>
0.2332925200

> <CNNaffinity>
6.1783990860

> <CNN_VS>
1.4413743019

> <CNNaffinity_variance>
0.0822413191

$$$$
[H]c1c([H])c([H])c2c(c1[H])C([H])([H])[C@]1([H])C([H])([H])c3c([H])c(N([H])C(=O)c4c([H])c([H])c(F)c(C(F)(F)F)c4[H])c([H])c([H])c3C([H])([H])[C@]21[H]


 32 36  0  0  0  0  0  0  0  0999 V2000
   35.8010   14.4527  -12.0560 C   0  0  0  0  0  0  0  0  0  0  0  0
   34.7379   15.2871  -11.8601 C   0  0  0  0  0  0  0  0  0  0  0  0
   34.5326   15.9192  -10.6246 C   0  0  0  0  0  0  0  0  0  0  0  0
   35.4286   15.6906   -9.5815 C   0  0  0  0  0  0  0  0  0  0  0  0
   36.5096   14.8520   -9.7530 C   0  0  0  0  0  0  0  0  0  0  0  0
   36.6842   14.2512  -10.9660 C   0  0  0  0  0  0  0  0  0  0  0  0
   37.3886   14.6765   -8.5692 C   0  0  0  0  0  0  0  0  0  0  0  0
   36.4069   14.2289   -7.4753 C   0  0  0  0  0  0  0  0  0  0  0  0
   35.5657   15.4253   -7.1210 C   0  0  0  0  0  0  0  0  0  0  0  0
   36.3090   16.0666   -6.0283 C   0  0  0  0  0  0  0  0  0  0  0  0
   37.1819   15.1587   -5.4946 C   0  0  0  0  0  0  0  0  0  0  0  0
   38.0319   15.4534   -4.4353 C   0  0  0  0  0  0  0  0  0  0  0  0
   38.0227   16.7121   -3.8694 C   0  0  0  0  0  0  0  0  0  0  0  0
   37.1507   17.6331   -4.3966 C   0  0  0  0  0  0  0  0  0  0  0  0
   36.3110   17.3311   -5.4480 C   0  0  0  0  0  0  0  0  0  0  0  0
   37.0904   13.8356   -6.2108 C   0  0  0  0  0  0  0  0  0  0  0  0
   35.2697   16.3384   -8.2602 C   0  0  0  0  0  0  0  0  0  0  0  0
   35.5776   12.5842  -13.7462 C   0  0  0  0  0  0  0  0  0  0  0  0
   34.7363   11.8666  -13.1276 O   0  0  0  0  0  0  0  0  0  0  0  0
   36.0852   13.7884  -13.2740 N   0  0  0  0  0  0  0  0  0  0  0  0
   36.7840   14.2835  -13.9228 H   0  0  0  0  0  0  0  0  0  0  0  0
   37.8739   11.6811  -16.5789 C   0  0  0  0  0  0  0  0  0  0  0  0
   37.3987   12.1263  -15.3696 C   0  0  0  0  0  0  0  0  0  0  0  0
   36.0336   12.0809  -15.0617 C   0  0  0  0  0  0  0  0  0  0  0  0
   35.1695   11.5815  -15.9925 C   0  0  0  0  0  0  0  0  0  0  0  0
   35.6358   11.1208  -17.2356 C   0  0  0  0  0  0  0  0  0  0  0  0
   36.9893   11.1812  -17.5039 C   0  0  0  0  0  0  0  0  0  0  0  0
   37.4195   10.7258  -18.7235 F   0  0  0  0  0  0  0  0  0  0  0  0
   39.3195   11.7399  -16.8795 C   0  0  0  0  0  0  0  0  0  0  0  0
   39.9919   11.9954  -15.6945 F   0  0  0  0  0  0  0  0  0  0  0  0
   39.6239   12.6794  -17.8456 F   0  0  0  0  0  0  0  0  0  0  0  0
   39.7920   10.5272  -17.3423 F   0  0  0  0  0  0  0  0  0  0  0  0
 22 29  1  0  0  0
 29 30  1  0  0  0
 29 31  1  0  0  0
 29 32  1  0  0  0
 22 23  2  0  0  0
 23 24  1  0  0  0
 24 18  1  0  0  0
 18 19  2  0  0  0
 18 20  1  0  0  0
 20  1  1  0  0  0
  1  2  2  0  0  0
  2  3  1  0  0  0
  3  4  2  0  0  0
  4  5  1  0  0  0
  5  6  2  0  0  0
  5  7  1  0  0  0
  7  8  1  0  0  0
  8  9  1  0  0  0
  9 10  1  0  0  0
 10 11  2  0  0  0
 11 12  1  0  0  0
 12 13  2  0  0  0
 13 14  1  0  0  0
 14 15  2  0  0  0
 11 16  1  0  0  0
  9 17  1  0  0  0
 24 25  2  0  0  0
 25 26  1  0  0  0
 26 27  2  0  0  0
 27 28  1  0  0  0
 27 22  1  0  0  0
  6  1  1  0  0  0
 16  8  1  0  0  0
 17  4  1  0  0  0
 15 10  1  0  0  0
 20 21  1  0  0  0
M  END
> <minimizedAffinity>
-9.60931

> <CNNscore>
0.2121247798

> <CNNaffinity>
5.7989726067

> <CNN_VS>
1.2301057577

> <CNNaffinity_variance>
0.3274949789

$$$$
[H]c1c([H])c([H])c2c(c1[H])C([H])([H])[C@]1([H])C([H])([H])c3c([H])c(N([H])C(=O)c4c([H])c([H])c(F)c(C(F)(F)F)c4[H])c([H])c([H])c3C([H])([H])[C@]21[H]


 32 36  0  0  0  0  0  0  0  0999 V2000
   36.5410   14.4582  -12.8382 C   0  0  0  0  0  0  0  0  0  0  0  0
   35.3182   14.9348  -12.4609 C   0  0  0  0  0  0  0  0  0  0  0  0
   35.1581   15.6485  -11.2636 C   0  0  0  0  0  0  0  0  0  0  0  0
   36.2656   15.8736  -10.4475 C   0  0  0  0  0  0  0  0  0  0  0  0
   37.5110   15.4024  -10.8052 C   0  0  0  0  0  0  0  0  0  0  0  0
   37.6367   14.7117  -11.9758 C   0  0  0  0  0  0  0  0  0  0  0  0
   38.6126   15.6930   -9.8529 C   0  0  0  0  0  0  0  0  0  0  0  0
   38.0786   15.1291   -8.5272 C   0  0  0  0  0  0  0  0  0  0  0  0
   36.9678   16.0385   -8.0763 C   0  0  0  0  0  0  0  0  0  0  0  0
   37.6483   17.0381   -7.2423 C   0  0  0  0  0  0  0  0  0  0  0  0
   38.8654   16.5426   -6.8624 C   0  0  0  0  0  0  0  0  0  0  0  0
   39.7555   17.2460   -6.0596 C   0  0  0  0  0  0  0  0  0  0  0  0
   39.4299   18.5078   -5.6052 C   0  0  0  0  0  0  0  0  0  0  0  0
   38.2104   19.0169   -5.9800 C   0  0  0  0  0  0  0  0  0  0  0  0
   37.3339   18.3110   -6.7770 C   0  0  0  0  0  0  0  0  0  0  0  0
   39.0906   15.1662   -7.4338 C   0  0  0  0  0  0  0  0  0  0  0  0
   36.1597   16.6295   -9.1794 C   0  0  0  0  0  0  0  0  0  0  0  0
   37.2235   12.4314  -14.1889 C   0  0  0  0  0  0  0  0  0  0  0  0
   37.4715   11.6389  -13.2319 O   0  0  0  0  0  0  0  0  0  0  0  0
   36.7881   13.7419  -14.0347 N   0  0  0  0  0  0  0  0  0  0  0  0
   36.6113   14.2823  -14.9464 H   0  0  0  0  0  0  0  0  0  0  0  0
   38.9135   11.5373  -17.4226 C   0  0  0  0  0  0  0  0  0  0  0  0
   38.6803   12.0076  -16.1535 C   0  0  0  0  0  0  0  0  0  0  0  0
   37.4190   11.8974  -15.5558 C   0  0  0  0  0  0  0  0  0  0  0  0
   36.4102   11.3083  -16.2612 C   0  0  0  0  0  0  0  0  0  0  0  0
   36.6284   10.8205  -17.5610 C   0  0  0  0  0  0  0  0  0  0  0  0
   37.8859   10.9468  -18.1181 C   0  0  0  0  0  0  0  0  0  0  0  0
   38.0737   10.4633  -19.3873 F   0  0  0  0  0  0  0  0  0  0  0  0
   40.2539   11.6659  -18.0311 C   0  0  0  0  0  0  0  0  0  0  0  0
   40.2154   12.7206  -18.9298 F   0  0  0  0  0  0  0  0  0  0  0  0
   40.6759   10.4994  -18.6392 F   0  0  0  0  0  0  0  0  0  0  0  0
   41.2105   11.9910  -17.0891 F   0  0  0  0  0  0  0  0  0  0  0  0
 22 29  1  0  0  0
 29 30  1  0  0  0
 29 31  1  0  0  0
 29 32  1  0  0  0
 22 23  2  0  0  0
 23 24  1  0  0  0
 24 18  1  0  0  0
 18 19  2  0  0  0
 18 20  1  0  0  0
 20  1  1  0  0  0
  1  2  2  0  0  0
  2  3  1  0  0  0
  3  4  2  0  0  0
  4  5  1  0  0  0
  5  6  2  0  0  0
  5  7  1  0  0  0
  7  8  1  0  0  0
  8  9  1  0  0  0
  9 10  1  0  0  0
 10 11  2  0  0  0
 11 12  1  0  0  0
 12 13  2  0  0  0
 13 14  1  0  0  0
 14 15  2  0  0  0
 11 16  1  0  0  0
  9 17  1  0  0  0
 24 25  2  0  0  0
 25 26  1  0  0  0
 26 27  2  0  0  0
 27 28  1  0  0  0
 27 22  1  0  0  0
  6  1  1  0  0  0
 16  8  1  0  0  0
 17  4  1  0  0  0
 15 10  1  0  0  0
 20 21  1  0  0  0
M  END
> <minimizedAffinity>
-10.13207

> <CNNscore>
0.1710487306

> <CNNaffinity>
5.7437906265

> <CNN_VS>
0.9824680686

> <CNNaffinity_variance>
0.3033096194

$$$$
[H]c1c([H])c([H])c2c(c1[H])C([H])([H])[C@]1([H])C([H])([H])c3c([H])c(N([H])C(=O)c4c([H])c([H])c(F)c(C(F)(F)F)c4[H])c([H])c([H])c3C([H])([H])[C@]21[H]


 32 36  0  0  0  0  0  0  0  0999 V2000
   36.0488   14.3755  -12.0445 C   0  0  0  0  0  0  0  0  0  0  0  0
   34.8911   15.0958  -12.1190 C   0  0  0  0  0  0  0  0  0  0  0  0
   34.3596   15.7300  -10.9860 C   0  0  0  0  0  0  0  0  0  0  0  0
   35.0249   15.6219   -9.7658 C   0  0  0  0  0  0  0  0  0  0  0  0
   36.1951   14.8998   -9.6635 C   0  0  0  0  0  0  0  0  0  0  0  0
   36.6887   14.2939  -10.7825 C   0  0  0  0  0  0  0  0  0  0  0  0
   36.8078   14.8457   -8.3121 C   0  0  0  0  0  0  0  0  0  0  0  0
   35.6607   14.3206   -7.4351 C   0  0  0  0  0  0  0  0  0  0  0  0
   34.6479   15.4280   -7.3237 C   0  0  0  0  0  0  0  0  0  0  0  0
   35.0676   16.1693   -6.1271 C   0  0  0  0  0  0  0  0  0  0  0  0
   35.8890   15.3720   -5.3782 C   0  0  0  0  0  0  0  0  0  0  0  0
   36.4540   15.7795   -4.1756 C   0  0  0  0  0  0  0  0  0  0  0  0
   36.1966   17.0424   -3.6822 C   0  0  0  0  0  0  0  0  0  0  0  0
   35.3735   17.8530   -4.4251 C   0  0  0  0  0  0  0  0  0  0  0  0
   34.8174   17.4395   -5.6175 C   0  0  0  0  0  0  0  0  0  0  0  0
   36.0877   14.0311   -6.0370 C   0  0  0  0  0  0  0  0  0  0  0  0
   34.5182   16.2785   -8.5399 C   0  0  0  0  0  0  0  0  0  0  0  0
   37.8850   13.9757  -13.7375 C   0  0  0  0  0  0  0  0  0  0  0  0
   38.6896   14.8805  -13.3639 O   0  0  0  0  0  0  0  0  0  0  0  0
   36.6563   13.7182  -13.1420 N   0  0  0  0  0  0  0  0  0  0  0  0
   36.0942   12.9085  -13.5696 H   0  0  0  0  0  0  0  0  0  0  0  0
   37.6924   11.5982  -16.6398 C   0  0  0  0  0  0  0  0  0  0  0  0
   37.3508   12.3885  -15.5697 C   0  0  0  0  0  0  0  0  0  0  0  0
   38.3096   13.1500  -14.8907 C   0  0  0  0  0  0  0  0  0  0  0  0
   39.6064   13.0955  -15.3122 C   0  0  0  0  0  0  0  0  0  0  0  0
   39.9764   12.2932  -16.4052 C   0  0  0  0  0  0  0  0  0  0  0  0
   39.0030   11.5558  -17.0505 C   0  0  0  0  0  0  0  0  0  0  0  0
   39.3889   10.7809  -18.1138 F   0  0  0  0  0  0  0  0  0  0  0  0
   36.6615   10.8038  -17.3394 C   0  0  0  0  0  0  0  0  0  0  0  0
   35.6252   10.5703  -16.4489 F   0  0  0  0  0  0  0  0  0  0  0  0
   37.1595    9.6231  -17.8556 F   0  0  0  0  0  0  0  0  0  0  0  0
   36.1151   11.5012  -18.3993 F   0  0  0  0  0  0  0  0  0  0  0  0
 22 29  1  0  0  0
 29 30  1  0  0  0
 29 31  1  0  0  0
 29 32  1  0  0  0
 22 23  2  0  0  0
 23 24  1  0  0  0
 24 18  1  0  0  0
 18 19  2  0  0  0
 18 20  1  0  0  0
 20  1  1  0  0  0
  1  2  2  0  0  0
  2  3  1  0  0  0
  3  4  2  0  0  0
  4  5  1  0  0  0
  5  6  2  0  0  0
  5  7  1  0  0  0
  7  8  1  0  0  0
  8  9  1  0  0  0
  9 10  1  0  0  0
 10 11  2  0  0  0
 11 12  1  0  0  0
 12 13  2  0  0  0
 13 14  1  0  0  0
 14 15  2  0  0  0
 11 16  1  0  0  0
  9 17  1  0  0  0
 24 25  2  0  0  0
 25 26  1  0  0  0
 26 27  2  0  0  0
 27 28  1  0  0  0
 27 22  1  0  0  0
  6  1  1  0  0  0
 16  8  1  0  0  0
 17  4  1  0  0  0
 15 10  1  0  0  0
 20 21  1  0  0  0
M  END
> <minimizedAffinity>
-9.41951

> <CNNscore>
0.1644253582

> <CNNaffinity>
5.7411508560

> <CNN_VS>
0.9439907670

> <CNNaffinity_variance>
0.2362334728

$$$$
[H]c1c([H])c([H])c2c(c1[H])C([H])([H])[C@]1([H])C([H])([H])c3c([H])c(N([H])C(=O)c4c([H])c([H])c(F)c(C(F)(F)F)c4[H])c([H])c([H])c3C([H])([H])[C@]21[H]


 32 36  0  0  0  0  0  0  0  0999 V2000
   36.0632   14.2936  -13.2700 C   0  0  0  0  0  0  0  0  0  0  0  0
   36.4899   15.3105  -12.4647 C   0  0  0  0  0  0  0  0  0  0  0  0
   35.6494   15.8576  -11.4837 C   0  0  0  0  0  0  0  0  0  0  0  0
   34.3586   15.3542  -11.3300 C   0  0  0  0  0  0  0  0  0  0  0  0
   33.9031   14.3283  -12.1307 C   0  0  0  0  0  0  0  0  0  0  0  0
   34.7431   13.8155  -13.0764 C   0  0  0  0  0  0  0  0  0  0  0  0
   32.5086   13.8824  -11.8830 C   0  0  0  0  0  0  0  0  0  0  0  0
   31.7041   15.1858  -12.0042 C   0  0  0  0  0  0  0  0  0  0  0  0
   32.0318   16.0207  -10.7960 C   0  0  0  0  0  0  0  0  0  0  0  0
   31.0185   15.6241   -9.8092 C   0  0  0  0  0  0  0  0  0  0  0  0
   29.9773   15.0229  -10.4615 C   0  0  0  0  0  0  0  0  0  0  0  0
   28.8510   14.5361   -9.8089 C   0  0  0  0  0  0  0  0  0  0  0  0
   28.7431   14.6468   -8.4375 C   0  0  0  0  0  0  0  0  0  0  0  0
   29.7824   15.2484   -7.7707 C   0  0  0  0  0  0  0  0  0  0  0  0
   30.8960   15.7285   -8.4272 C   0  0  0  0  0  0  0  0  0  0  0  0
   30.2316   14.9638  -11.9459 C   0  0  0  0  0  0  0  0  0  0  0  0
   33.4315   15.8836  -10.3048 C   0  0  0  0  0  0  0  0  0  0  0  0
   36.5501   12.5778  -15.0636 C   0  0  0  0  0  0  0  0  0  0  0  0
   35.4634   11.9287  -15.0071 O   0  0  0  0  0  0  0  0  0  0  0  0
   36.8527   13.6793  -14.2725 N   0  0  0  0  0  0  0  0  0  0  0  0
   37.8133   14.1271  -14.4487 H   0  0  0  0  0  0  0  0  0  0  0  0
   39.8312   12.1705  -16.8472 C   0  0  0  0  0  0  0  0  0  0  0  0
   38.8678   12.5670  -15.9522 C   0  0  0  0  0  0  0  0  0  0  0  0
   37.5486   12.1085  -16.0509 C   0  0  0  0  0  0  0  0  0  0  0  0
   37.2283   11.2505  -17.0626 C   0  0  0  0  0  0  0  0  0  0  0  0
   38.1995   10.8327  -17.9885 C   0  0  0  0  0  0  0  0  0  0  0  0
   39.4907   11.3058  -17.8595 C   0  0  0  0  0  0  0  0  0  0  0  0
   40.4200   10.8838  -18.7750 F   0  0  0  0  0  0  0  0  0  0  0  0
   41.2166   12.6689  -16.7213 C   0  0  0  0  0  0  0  0  0  0  0  0
   41.5846   12.5749  -15.3882 F   0  0  0  0  0  0  0  0  0  0  0  0
   41.3630   13.9581  -17.1960 F   0  0  0  0  0  0  0  0  0  0  0  0
   42.1057   11.8824  -17.4277 F   0  0  0  0  0  0  0  0  0  0  0  0
 22 29  1  0  0  0
 29 30  1  0  0  0
 29 31  1  0  0  0
 29 32  1  0  0  0
 22 23  2  0  0  0
 23 24  1  0  0  0
 24 18  1  0  0  0
 18 19  2  0  0  0
 18 20  1  0  0  0
 20  1  1  0  0  0
  1  2  2  0  0  0
  2  3  1  0  0  0
  3  4  2  0  0  0
  4  5  1  0  0  0
  5  6  2  0  0  0
  5  7  1  0  0  0
  7  8  1  0  0  0
  8  9  1  0  0  0
  9 10  1  0  0  0
 10 11  2  0  0  0
 11 12  1  0  0  0
 12 13  2  0  0  0
 13 14  1  0  0  0
 14 15  2  0  0  0
 11 16  1  0  0  0
  9 17  1  0  0  0
 24 25  2  0  0  0
 25 26  1  0  0  0
 26 27  2  0  0  0
 27 28  1  0  0  0
 27 22  1  0  0  0
  6  1  1  0  0  0
 16  8  1  0  0  0
 17  4  1  0  0  0
 15 10  1  0  0  0
 20 21  1  0  0  0
M  END
> <minimizedAffinity>
-9.11287

> <CNNscore>
0.1625552475

> <CNNaffinity>
5.7572493553

> <CNN_VS>
0.9358710647

> <CNNaffinity_variance>
0.2329494953

$$$$
[H]c1c([H])c([H])c2c(c1[H])C([H])([H])[C@]1([H])C([H])([H])c3c([H])c(N([H])C(=O)c4c([H])c([H])c(F)c(C(F)(F)F)c4[H])c([H])c([H])c3C([H])([H])[C@]21[H]


 32 36  0  0  0  0  0  0  0  0999 V2000
   40.1080   14.0643  -13.9330 C   0  0  0  0  0  0  0  0  0  0  0  0
   40.0256   15.2138  -13.2005 C   0  0  0  0  0  0  0  0  0  0  0  0
   41.1762   15.8204  -12.6746 C   0  0  0  0  0  0  0  0  0  0  0  0
   42.4222   15.2391  -12.9041 C   0  0  0  0  0  0  0  0  0  0  0  0
   42.5327   14.0782  -13.6398 C   0  0  0  0  0  0  0  0  0  0  0  0
   41.3962   13.5107  -14.1392 C   0  0  0  0  0  0  0  0  0  0  0  0
   43.9085   13.5459  -13.8090 C   0  0  0  0  0  0  0  0  0  0  0  0
   44.4125   13.4296  -12.3622 C   0  0  0  0  0  0  0  0  0  0  0  0
   44.6313   14.8301  -11.8571 C   0  0  0  0  0  0  0  0  0  0  0  0
   46.0317   15.1125  -12.1989 C   0  0  0  0  0  0  0  0  0  0  0  0
   46.6785   13.9291  -12.4274 C   0  0  0  0  0  0  0  0  0  0  0  0
   48.0234   13.8516  -12.7692 C   0  0  0  0  0  0  0  0  0  0  0  0
   48.7739   15.0031  -12.8933 C   0  0  0  0  0  0  0  0  0  0  0  0
   48.1358   16.1982  -12.6667 C   0  0  0  0  0  0  0  0  0  0  0  0
   46.8007   16.2648  -12.3279 C   0  0  0  0  0  0  0  0  0  0  0  0
   45.7406   12.7605  -12.2648 C   0  0  0  0  0  0  0  0  0  0  0  0
   43.6712   15.8398  -12.3845 C   0  0  0  0  0  0  0  0  0  0  0  0
   38.9344   12.6842  -15.6983 C   0  0  0  0  0  0  0  0  0  0  0  0
   39.9125   12.5075  -16.4840 O   0  0  0  0  0  0  0  0  0  0  0  0
   38.9981   13.3987  -14.5082 N   0  0  0  0  0  0  0  0  0  0  0  0
   38.0829   13.4488  -13.9477 H   0  0  0  0  0  0  0  0  0  0  0  0
   35.3080   11.7080  -15.6047 C   0  0  0  0  0  0  0  0  0  0  0  0
   36.5244   12.2587  -15.2832 C   0  0  0  0  0  0  0  0  0  0  0  0
   37.6463   12.0753  -16.1005 C   0  0  0  0  0  0  0  0  0  0  0  0
   37.5131   11.3313  -17.2367 C   0  0  0  0  0  0  0  0  0  0  0  0
   36.2770   10.7595  -17.5836 C   0  0  0  0  0  0  0  0  0  0  0  0
   35.1923   10.9621  -16.7529 C   0  0  0  0  0  0  0  0  0  0  0  0
   33.9974   10.3940  -17.1128 F   0  0  0  0  0  0  0  0  0  0  0  0
   34.1390   11.9164  -14.7251 C   0  0  0  0  0  0  0  0  0  0  0  0
   34.6076   12.2618  -13.4671 F   0  0  0  0  0  0  0  0  0  0  0  0
   33.3114   10.8117  -14.6701 F   0  0  0  0  0  0  0  0  0  0  0  0
   33.3614   12.9740  -15.1555 F   0  0  0  0  0  0  0  0  0  0  0  0
 22 29  1  0  0  0
 29 30  1  0  0  0
 29 31  1  0  0  0
 29 32  1  0  0  0
 22 23  2  0  0  0
 23 24  1  0  0  0
 24 18  1  0  0  0
 18 19  2  0  0  0
 18 20  1  0  0  0
 20  1  1  0  0  0
  1  2  2  0  0  0
  2  3  1  0  0  0
  3  4  2  0  0  0
  4  5  1  0  0  0
  5  6  2  0  0  0
  5  7  1  0  0  0
  7  8  1  0  0  0
  8  9  1  0  0  0
  9 10  1  0  0  0
 10 11  2  0  0  0
 11 12  1  0  0  0
 12 13  2  0  0  0
 13 14  1  0  0  0
 14 15  2  0  0  0
 11 16  1  0  0  0
  9 17  1  0  0  0
 24 25  2  0  0  0
 25 26  1  0  0  0
 26 27  2  0  0  0
 27 28  1  0  0  0
 27 22  1  0  0  0
  6  1  1  0  0  0
 16  8  1  0  0  0
 17  4  1  0  0  0
 15 10  1  0  0  0
 20 21  1  0  0  0
M  END
> <minimizedAffinity>
-9.61743

> <CNNscore>
0.1594770998

> <CNNaffinity>
6.1062064171

> <CNN_VS>
0.9738000631

> <CNNaffinity_variance>
0.0887359753

$$$$
[H]c1nnc(-c2c([H])c([H])c([H])c(C(=O)N([H])c3c([H])c([H])c(C([H])([H])[H])c(-c4c([H])c(OC([H])([H])C([H])(F)F)nc(C5([H])OC([H])([H])C([H])([H])OC5([H])[H])c4[H])c3[H])c2[H])o1


 39 43  0  0  0  0  0  0  0  0999 V2000
   37.4439   11.0025  -17.5720 C   0  0  0  0  0  0  0  0  0  0  0  0
   38.7531   11.5265  -17.1730 C   0  0  0  0  0  0  0  0  0  0  0  0
   39.8142   11.2814  -18.0216 C   0  0  0  0  0  0  0  0  0  0  0  0
   41.0519   11.7480  -17.7287 C   0  0  0  0  0  0  0  0  0  0  0  0
   41.2818   12.4840  -16.5673 C   0  0  0  0  0  0  0  0  0  0  0  0
   40.2087   12.7114  -15.7425 C   0  0  0  0  0  0  0  0  0  0  0  0
   38.9166   12.2410  -16.0195 C   0  0  0  0  0  0  0  0  0  0  0  0
   37.8145   12.4826  -15.1189 C   0  0  0  0  0  0  0  0  0  0  0  0
   36.5908   11.8903  -15.2760 C   0  0  0  0  0  0  0  0  0  0  0  0
   35.5038   12.1011  -14.4383 C   0  0  0  0  0  0  0  0  0  0  0  0
   35.6922   12.9345  -13.4288 N   0  0  0  0  0  0  0  0  0  0  0  0
   36.8620   13.5481  -13.2153 C   0  0  0  0  0  0  0  0  0  0  0  0
   37.9627   13.3435  -14.0522 C   0  0  0  0  0  0  0  0  0  0  0  0
   36.9589   14.4630  -12.0486 C   0  0  0  0  0  0  0  0  0  0  0  0
   36.3142   15.8062  -12.3971 C   0  0  0  0  0  0  0  0  0  0  0  0
   36.5750   16.6557  -11.3226 O   0  0  0  0  0  0  0  0  0  0  0  0
   35.8242   16.1777  -10.2363 C   0  0  0  0  0  0  0  0  0  0  0  0
   36.3520   14.8003   -9.9027 C   0  0  0  0  0  0  0  0  0  0  0  0
   36.2099   13.9399  -10.9942 O   0  0  0  0  0  0  0  0  0  0  0  0
   34.3604   11.4152  -14.7590 O   0  0  0  0  0  0  0  0  0  0  0  0
   33.6265   11.6948  -15.9157 C   0  0  0  0  0  0  0  0  0  0  0  0
   33.8935   10.7144  -17.0116 C   0  0  0  0  0  0  0  0  0  0  0  0
   34.3632    9.5071  -16.4942 F   0  0  0  0  0  0  0  0  0  0  0  0
   32.6291   10.3801  -17.5381 F   0  0  0  0  0  0  0  0  0  0  0  0
   42.5918   12.9380  -16.2894 N   0  0  0  0  0  0  0  0  0  0  0  0
   43.1673   13.2885  -15.0648 C   0  0  0  0  0  0  0  0  0  0  0  0
   42.5022   13.2317  -13.9977 O   0  0  0  0  0  0  0  0  0  0  0  0
   43.2203   13.0143  -17.1644 H   0  0  0  0  0  0  0  0  0  0  0  0
   44.5479   13.7362  -14.9318 C   0  0  0  0  0  0  0  0  0  0  0  0
   45.5958   12.9068  -15.2265 C   0  0  0  0  0  0  0  0  0  0  0  0
   46.9116   13.2903  -15.1193 C   0  0  0  0  0  0  0  0  0  0  0  0
   47.2023   14.5669  -14.6965 C   0  0  0  0  0  0  0  0  0  0  0  0
   46.1766   15.4334  -14.3899 C   0  0  0  0  0  0  0  0  0  0  0  0
   44.8504   15.0064  -14.5114 C   0  0  0  0  0  0  0  0  0  0  0  0
   46.4951   16.7783  -13.9448 C   0  0  0  0  0  0  0  0  0  0  0  0
   46.7560   17.8767  -14.6668 N   0  0  0  0  0  0  0  0  0  0  0  0
   46.9906   18.8686  -13.8172 N   0  0  0  0  0  0  0  0  0  0  0  0
   46.8748   18.3834  -12.5611 C   0  0  0  0  0  0  0  0  0  0  0  0
   46.5782   17.1323  -12.6887 O   0  0  0  0  0  0  0  0  0  0  0  0
  1  2  1  0  0  0
  2  3  2  0  0  0
  3  4  1  0  0  0
  4  5  2  0  0  0
  5 25  1  0  0  0
 25 26  1  0  0  0
 26 27  2  0  0  0
 26 29  1  0  0  0
 29 30  2  0  0  0
 30 31  1  0  0  0
 31 32  2  0  0  0
 32 33  1  0  0  0
 33 34  2  0  0  0
 33 35  1  0  0  0
 35 36  2  0  0  0
 36 37  1  0  0  0
 37 38  2  0  0  0
 38 39  1  0  0  0
  5  6  1  0  0  0
  6  7  2  0  0  0
  7  8  1  0  0  0
  8  9  2  0  0  0
  9 10  1  0  0  0
 10 20  1  0  0  0
 20 21  1  0  0  0
 21 22  1  0  0  0
 22 23  1  0  0  0
 22 24  1  0  0  0
 10 11  2  0  0  0
 11 12  1  0  0  0
 12 13  2  0  0  0
 12 14  1  0  0  0
 14 15  1  0  0  0
 15 16  1  0  0  0
 16 17  1  0  0  0
 17 18  1  0  0  0
 18 19  1  0  0  0
  7  2  1  0  0  0
 13  8  1  0  0  0
 19 14  1  0  0  0
 34 29  1  0  0  0
 39 35  1  0  0  0
 25 28  1  0  0  0
M  END
> <minimizedAffinity>
-10.58978

> <CNNscore>
0.4422253370

> <CNNaffinity>
7.1472425461

> <CNN_VS>
3.1606917381

> <CNNaffinity_variance>
0.0612889826

$$$$
[H]c1nnc(-c2c([H])c([H])c([H])c(C(=O)N([H])c3c([H])c([H])c(C([H])([H])[H])c(-c4c([H])c(OC([H])([H])C([H])(F)F)nc(C5([H])OC([H])([H])C([H])([H])OC5([H])[H])c4[H])c3[H])c2[H])o1


 39 43  0  0  0  0  0  0  0  0999 V2000
   36.3255   17.3016   -8.4646 C   0  0  0  0  0  0  0  0  0  0  0  0
   36.4528   16.4166   -9.6258 C   0  0  0  0  0  0  0  0  0  0  0  0
   36.2140   16.9701  -10.8679 C   0  0  0  0  0  0  0  0  0  0  0  0
   36.3281   16.2191  -11.9897 C   0  0  0  0  0  0  0  0  0  0  0  0
   36.6880   14.8743  -11.9158 C   0  0  0  0  0  0  0  0  0  0  0  0
   36.9184   14.3511  -10.6681 C   0  0  0  0  0  0  0  0  0  0  0  0
   36.8080   15.1040   -9.4896 C   0  0  0  0  0  0  0  0  0  0  0  0
   37.0388   14.5155   -8.1918 C   0  0  0  0  0  0  0  0  0  0  0  0
   36.0220   14.2219   -7.3242 C   0  0  0  0  0  0  0  0  0  0  0  0
   36.2011   13.6635   -6.0656 C   0  0  0  0  0  0  0  0  0  0  0  0
   37.4484   13.4084   -5.7075 N   0  0  0  0  0  0  0  0  0  0  0  0
   38.4904   13.6697   -6.5055 C   0  0  0  0  0  0  0  0  0  0  0  0
   38.3218   14.2317   -7.7740 C   0  0  0  0  0  0  0  0  0  0  0  0
   39.8477   13.3402   -5.9986 C   0  0  0  0  0  0  0  0  0  0  0  0
   40.5308   12.3667   -6.9614 C   0  0  0  0  0  0  0  0  0  0  0  0
   41.7255   11.9867   -6.3512 O   0  0  0  0  0  0  0  0  0  0  0  0
   42.5571   13.1184   -6.3481 C   0  0  0  0  0  0  0  0  0  0  0  0
   41.8842   14.1623   -5.4852 C   0  0  0  0  0  0  0  0  0  0  0  0
   40.6297   14.4955   -6.0020 O   0  0  0  0  0  0  0  0  0  0  0  0
   35.0574   13.4412   -5.3423 O   0  0  0  0  0  0  0  0  0  0  0  0
   34.2389   14.4877   -4.9069 C   0  0  0  0  0  0  0  0  0  0  0  0
   32.8028   14.2738   -5.2609 C   0  0  0  0  0  0  0  0  0  0  0  0
   32.1539   15.4922   -5.4616 F   0  0  0  0  0  0  0  0  0  0  0  0
   32.8113   13.6874   -6.5431 F   0  0  0  0  0  0  0  0  0  0  0  0
   36.7789   14.1206  -13.1087 N   0  0  0  0  0  0  0  0  0  0  0  0
   35.9916   13.0506  -13.5434 C   0  0  0  0  0  0  0  0  0  0  0  0
   35.0434   12.6169  -12.8384 O   0  0  0  0  0  0  0  0  0  0  0  0
   37.5774   14.4375  -13.7634 H   0  0  0  0  0  0  0  0  0  0  0  0
   36.2025   12.3706  -14.8151 C   0  0  0  0  0  0  0  0  0  0  0  0
   35.1746   11.7427  -15.4647 C   0  0  0  0  0  0  0  0  0  0  0  0
   35.3292   11.0942  -16.6670 C   0  0  0  0  0  0  0  0  0  0  0  0
   36.5723   11.0681  -17.2561 C   0  0  0  0  0  0  0  0  0  0  0  0
   37.6338   11.6882  -16.6352 C   0  0  0  0  0  0  0  0  0  0  0  0
   37.4370   12.3377  -15.4124 C   0  0  0  0  0  0  0  0  0  0  0  0
   38.9411   11.6545  -17.2661 C   0  0  0  0  0  0  0  0  0  0  0  0
   39.2899   11.2164  -18.4836 N   0  0  0  0  0  0  0  0  0  0  0  0
   40.5994   11.3886  -18.6118 N   0  0  0  0  0  0  0  0  0  0  0  0
   41.0659   11.9365  -17.4678 C   0  0  0  0  0  0  0  0  0  0  0  0
   40.0395   12.0763  -16.6956 O   0  0  0  0  0  0  0  0  0  0  0  0
  1  2  1  0  0  0
  2  3  2  0  0  0
  3  4  1  0  0  0
  4  5  2  0  0  0
  5 25  1  0  0  0
 25 26  1  0  0  0
 26 27  2  0  0  0
 26 29  1  0  0  0
 29 30  2  0  0  0
 30 31  1  0  0  0
 31 32  2  0  0  0
 32 33  1  0  0  0
 33 34  2  0  0  0
 33 35  1  0  0  0
 35 36  2  0  0  0
 36 37  1  0  0  0
 37 38  2  0  0  0
 38 39  1  0  0  0
  5  6  1  0  0  0
  6  7  2  0  0  0
  7  8  1  0  0  0
  8  9  2  0  0  0
  9 10  1  0  0  0
 10 20  1  0  0  0
 20 21  1  0  0  0
 21 22  1  0  0  0
 22 23  1  0  0  0
 22 24  1  0  0  0
 10 11  2  0  0  0
 11 12  1  0  0  0
 12 13  2  0  0  0
 12 14  1  0  0  0
 14 15  1  0  0  0
 15 16  1  0  0  0
 16 17  1  0  0  0
 17 18  1  0  0  0
 18 19  1  0  0  0
  7  2  1  0  0  0
 13  8  1  0  0  0
 19 14  1  0  0  0
 34 29  1  0  0  0
 39 35  1  0  0  0
 25 28  1  0  0  0
M  END
> <minimizedAffinity>
-9.32342

> <CNNscore>
0.2367510051

> <CNNaffinity>
6.3676204681

> <CNN_VS>
1.5075405836

> <CNNaffinity_variance>
0.1555779427

$$$$
[H]c1nnc(-c2c([H])c([H])c([H])c(C(=O)N([H])c3c([H])c([H])c(C([H])([H])[H])c(-c4c([H])c(OC([H])([H])C([H])(F)F)nc(C5([H])OC([H])([H])C([H])([H])OC5([H])[H])c4[H])c3[H])c2[H])o1


 39 43  0  0  0  0  0  0  0  0999 V2000
   37.5079   11.5518  -17.0736 C   0  0  0  0  0  0  0  0  0  0  0  0
   38.7203   12.0754  -16.4381 C   0  0  0  0  0  0  0  0  0  0  0  0
   39.8941   11.9954  -17.1605 C   0  0  0  0  0  0  0  0  0  0  0  0
   41.0529   12.4732  -16.6462 C   0  0  0  0  0  0  0  0  0  0  0  0
   41.0864   13.0549  -15.3798 C   0  0  0  0  0  0  0  0  0  0  0  0
   39.9048   13.1202  -14.6846 C   0  0  0  0  0  0  0  0  0  0  0  0
   38.6904   12.6339  -15.1911 C   0  0  0  0  0  0  0  0  0  0  0  0
   37.4696   12.7016  -14.4237 C   0  0  0  0  0  0  0  0  0  0  0  0
   36.3225   12.0605  -14.8055 C   0  0  0  0  0  0  0  0  0  0  0  0
   35.1266   12.1060  -14.1014 C   0  0  0  0  0  0  0  0  0  0  0  0
   35.1251   12.8241  -12.9908 N   0  0  0  0  0  0  0  0  0  0  0  0
   36.2104   13.4765  -12.5581 C   0  0  0  0  0  0  0  0  0  0  0  0
   37.4191   13.4379  -13.2590 C   0  0  0  0  0  0  0  0  0  0  0  0
   36.0926   14.2513  -11.2958 C   0  0  0  0  0  0  0  0  0  0  0  0
   37.3745   15.0548  -11.0674 C   0  0  0  0  0  0  0  0  0  0  0  0
   37.2553   15.6306   -9.8031 O   0  0  0  0  0  0  0  0  0  0  0  0
   36.2443   16.6012   -9.8933 C   0  0  0  0  0  0  0  0  0  0  0  0
   34.9580   15.8748  -10.2170 C   0  0  0  0  0  0  0  0  0  0  0  0
   35.0697   15.1905  -11.4299 O   0  0  0  0  0  0  0  0  0  0  0  0
   34.0863   11.3962  -14.6440 O   0  0  0  0  0  0  0  0  0  0  0  0
   33.5515   11.7044  -15.8985 C   0  0  0  0  0  0  0  0  0  0  0  0
   33.9148   10.6934  -16.9375 C   0  0  0  0  0  0  0  0  0  0  0  0
   34.2795    9.4834  -16.3469 F   0  0  0  0  0  0  0  0  0  0  0  0
   32.7119   10.3870  -17.6059 F   0  0  0  0  0  0  0  0  0  0  0  0
   42.3194   13.5255  -14.8721 N   0  0  0  0  0  0  0  0  0  0  0  0
   43.6212   13.2021  -15.2650 C   0  0  0  0  0  0  0  0  0  0  0  0
   43.8309   12.3770  -16.1921 O   0  0  0  0  0  0  0  0  0  0  0  0
   42.2145   14.2383  -14.0674 H   0  0  0  0  0  0  0  0  0  0  0  0
   44.8075   13.7805  -14.6467 C   0  0  0  0  0  0  0  0  0  0  0  0
   45.0591   15.1242  -14.7107 C   0  0  0  0  0  0  0  0  0  0  0  0
   46.1626   15.7108  -14.1378 C   0  0  0  0  0  0  0  0  0  0  0  0
   47.0651   14.9198  -13.4649 C   0  0  0  0  0  0  0  0  0  0  0  0
   46.8489   13.5624  -13.3771 C   0  0  0  0  0  0  0  0  0  0  0  0
   45.7144   13.0025  -13.9731 C   0  0  0  0  0  0  0  0  0  0  0  0
   47.8079   12.7375  -12.6643 C   0  0  0  0  0  0  0  0  0  0  0  0
   48.5760   13.0404  -11.6088 N   0  0  0  0  0  0  0  0  0  0  0  0
   49.2906   11.9629  -11.3104 N   0  0  0  0  0  0  0  0  0  0  0  0
   48.9644   10.9859  -12.1854 C   0  0  0  0  0  0  0  0  0  0  0  0
   48.0762   11.4955  -12.9733 O   0  0  0  0  0  0  0  0  0  0  0  0
  1  2  1  0  0  0
  2  3  2  0  0  0
  3  4  1  0  0  0
  4  5  2  0  0  0
  5 25  1  0  0  0
 25 26  1  0  0  0
 26 27  2  0  0  0
 26 29  1  0  0  0
 29 30  2  0  0  0
 30 31  1  0  0  0
 31 32  2  0  0  0
 32 33  1  0  0  0
 33 34  2  0  0  0
 33 35  1  0  0  0
 35 36  2  0  0  0
 36 37  1  0  0  0
 37 38  2  0  0  0
 38 39  1  0  0  0
  5  6  1  0  0  0
  6  7  2  0  0  0
  7  8  1  0  0  0
  8  9  2  0  0  0
  9 10  1  0  0  0
 10 20  1  0  0  0
 20 21  1  0  0  0
 21 22  1  0  0  0
 22 23  1  0  0  0
 22 24  1  0  0  0
 10 11  2  0  0  0
 11 12  1  0  0  0
 12 13  2  0  0  0
 12 14  1  0  0  0
 14 15  1  0  0  0
 15 16  1  0  0  0
 16 17  1  0  0  0
 17 18  1  0  0  0
 18 19  1  0  0  0
  7  2  1  0  0  0
 13  8  1  0  0  0
 19 14  1  0  0  0
 34 29  1  0  0  0
 39 35  1  0  0  0
 25 28  1  0  0  0
M  END
> <minimizedAffinity>
-9.21594

> <CNNscore>
0.2296653539

> <CNNaffinity>
6.8471322060

> <CNN_VS>
1.5725489855

> <CNNaffinity_variance>
0.0842872262

$$$$
[H]c1nnc(-c2c([H])c([H])c([H])c(C(=O)N([H])c3c([H])c([H])c(C([H])([H])[H])c(-c4c([H])c(OC([H])([H])C([H])(F)F)nc(C5([H])OC([H])([H])C([H])([H])OC5([H])[H])c4[H])c3[H])c2[H])o1


 39 43  0  0  0  0  0  0  0  0999 V2000
   40.0018   11.8743  -17.4183 C   0  0  0  0  0  0  0  0  0  0  0  0
   40.6513   12.5510  -16.2924 C   0  0  0  0  0  0  0  0  0  0  0  0
   42.0142   12.7529  -16.3810 C   0  0  0  0  0  0  0  0  0  0  0  0
   42.6825   13.3861  -15.3870 C   0  0  0  0  0  0  0  0  0  0  0  0
   42.0112   13.8470  -14.2554 C   0  0  0  0  0  0  0  0  0  0  0  0
   40.6572   13.6316  -14.1944 C   0  0  0  0  0  0  0  0  0  0  0  0
   39.9390   12.9793  -15.2075 C   0  0  0  0  0  0  0  0  0  0  0  0
   38.5173   12.7526  -15.1009 C   0  0  0  0  0  0  0  0  0  0  0  0
   37.8074   12.0656  -16.0480 C   0  0  0  0  0  0  0  0  0  0  0  0
   36.4400   11.8324  -15.9877 C   0  0  0  0  0  0  0  0  0  0  0  0
   35.8066   12.3179  -14.9330 N   0  0  0  0  0  0  0  0  0  0  0  0
   36.4376   12.9988  -13.9693 C   0  0  0  0  0  0  0  0  0  0  0  0
   37.8135   13.2396  -14.0198 C   0  0  0  0  0  0  0  0  0  0  0  0
   35.6242   13.4966  -12.8299 C   0  0  0  0  0  0  0  0  0  0  0  0
   36.5001   14.3503  -11.9106 C   0  0  0  0  0  0  0  0  0  0  0  0
   35.7187   14.6531  -10.7962 O   0  0  0  0  0  0  0  0  0  0  0  0
   34.7113   15.5286  -11.2331 C   0  0  0  0  0  0  0  0  0  0  0  0
   33.8619   14.7685  -12.2271 C   0  0  0  0  0  0  0  0  0  0  0  0
   34.6319   14.3490  -13.3147 O   0  0  0  0  0  0  0  0  0  0  0  0
   35.9083   11.1220  -17.0332 O   0  0  0  0  0  0  0  0  0  0  0  0
   34.8410   10.2352  -16.8620 C   0  0  0  0  0  0  0  0  0  0  0  0
   33.5137   10.9004  -17.0326 C   0  0  0  0  0  0  0  0  0  0  0  0
   32.6419   10.0901  -17.7600 F   0  0  0  0  0  0  0  0  0  0  0  0
   32.9385   10.9352  -15.7459 F   0  0  0  0  0  0  0  0  0  0  0  0
   42.7481   14.4873  -13.2324 N   0  0  0  0  0  0  0  0  0  0  0  0
   42.4808   15.6859  -12.5649 C   0  0  0  0  0  0  0  0  0  0  0  0
   41.4641   16.3715  -12.8487 O   0  0  0  0  0  0  0  0  0  0  0  0
   43.6401   13.9532  -12.9398 H   0  0  0  0  0  0  0  0  0  0  0  0
   43.3377   16.2218  -11.5148 C   0  0  0  0  0  0  0  0  0  0  0  0
   44.5462   16.7940  -11.8062 C   0  0  0  0  0  0  0  0  0  0  0  0
   45.3822   17.3153  -10.8473 C   0  0  0  0  0  0  0  0  0  0  0  0
   44.9968   17.2656   -9.5275 C   0  0  0  0  0  0  0  0  0  0  0  0
   43.7876   16.6982   -9.1915 C   0  0  0  0  0  0  0  0  0  0  0  0
   42.9644   16.1783  -10.1955 C   0  0  0  0  0  0  0  0  0  0  0  0
   43.3910   16.6513   -7.7955 C   0  0  0  0  0  0  0  0  0  0  0  0
   42.8613   15.6410   -7.0924 N   0  0  0  0  0  0  0  0  0  0  0  0
   42.6676   16.0732   -5.8529 N   0  0  0  0  0  0  0  0  0  0  0  0
   43.0795   17.3588   -5.7862 C   0  0  0  0  0  0  0  0  0  0  0  0
   43.5028   17.6588   -6.9695 O   0  0  0  0  0  0  0  0  0  0  0  0
  1  2  1  0  0  0
  2  3  2  0  0  0
  3  4  1  0  0  0
  4  5  2  0  0  0
  5 25  1  0  0  0
 25 26  1  0  0  0
 26 27  2  0  0  0
 26 29  1  0  0  0
 29 30  2  0  0  0
 30 31  1  0  0  0
 31 32  2  0  0  0
 32 33  1  0  0  0
 33 34  2  0  0  0
 33 35  1  0  0  0
 35 36  2  0  0  0
 36 37  1  0  0  0
 37 38  2  0  0  0
 38 39  1  0  0  0
  5  6  1  0  0  0
  6  7  2  0  0  0
  7  8  1  0  0  0
  8  9  2  0  0  0
  9 10  1  0  0  0
 10 20  1  0  0  0
 20 21  1  0  0  0
 21 22  1  0  0  0
 22 23  1  0  0  0
 22 24  1  0  0  0
 10 11  2  0  0  0
 11 12  1  0  0  0
 12 13  2  0  0  0
 12 14  1  0  0  0
 14 15  1  0  0  0
 15 16  1  0  0  0
 16 17  1  0  0  0
 17 18  1  0  0  0
 18 19  1  0  0  0
  7  2  1  0  0  0
 13  8  1  0  0  0
 19 14  1  0  0  0
 34 29  1  0  0  0
 39 35  1  0  0  0
 25 28  1  0  0  0
M  END
> <minimizedAffinity>
-9.71086

> <CNNscore>
0.2274662256

> <CNNaffinity>
6.5088486671

> <CNN_VS>
1.4805432558

> <CNNaffinity_variance>
0.1026956290

$$$$
[H]c1nnc(-c2c([H])c([H])c([H])c(C(=O)N([H])c3c([H])c([H])c(C([H])([H])[H])c(-c4c([H])c(OC([H])([H])C([H])(F)F)nc(C5([H])OC([H])([H])C([H])([H])OC5([H])[H])c4[H])c3[H])c2[H])o1


 39 43  0  0  0  0  0  0  0  0999 V2000
   40.4470   12.0998  -17.7484 C   0  0  0  0  0  0  0  0  0  0  0  0
   41.2405   12.5360  -16.5961 C   0  0  0  0  0  0  0  0  0  0  0  0
   42.6136   12.5354  -16.7412 C   0  0  0  0  0  0  0  0  0  0  0  0
   43.4133   12.9410  -15.7256 C   0  0  0  0  0  0  0  0  0  0  0  0
   42.8698   13.3670  -14.5145 C   0  0  0  0  0  0  0  0  0  0  0  0
   41.5023   13.3562  -14.3988 C   0  0  0  0  0  0  0  0  0  0  0  0
   40.6495   12.9417  -15.4326 C   0  0  0  0  0  0  0  0  0  0  0  0
   39.2153   12.9249  -15.2689 C   0  0  0  0  0  0  0  0  0  0  0  0
   38.4123   12.0128  -15.8983 C   0  0  0  0  0  0  0  0  0  0  0  0
   37.0301   11.9668  -15.7743 C   0  0  0  0  0  0  0  0  0  0  0  0
   36.4796   12.8772  -14.9887 N   0  0  0  0  0  0  0  0  0  0  0  0
   37.2040   13.7984  -14.3427 C   0  0  0  0  0  0  0  0  0  0  0  0
   38.5956   13.8540  -14.4604 C   0  0  0  0  0  0  0  0  0  0  0  0
   36.4780   14.7712  -13.4858 C   0  0  0  0  0  0  0  0  0  0  0  0
   35.2655   14.0877  -12.8503 C   0  0  0  0  0  0  0  0  0  0  0  0
   34.5538   15.0885  -12.1900 O   0  0  0  0  0  0  0  0  0  0  0  0
   35.3402   15.4928  -11.0990 C   0  0  0  0  0  0  0  0  0  0  0  0
   36.6084   16.0933  -11.6632 C   0  0  0  0  0  0  0  0  0  0  0  0
   37.3027   15.1518  -12.4268 O   0  0  0  0  0  0  0  0  0  0  0  0
   36.3992   10.9773  -16.4837 O   0  0  0  0  0  0  0  0  0  0  0  0
   35.2266   11.2145  -17.2073 C   0  0  0  0  0  0  0  0  0  0  0  0
   34.0451   10.5069  -16.6268 C   0  0  0  0  0  0  0  0  0  0  0  0
   32.9562   10.5623  -17.4969 F   0  0  0  0  0  0  0  0  0  0  0  0
   34.3901    9.1399  -16.6139 F   0  0  0  0  0  0  0  0  0  0  0  0
   43.7395   13.7658  -13.4734 N   0  0  0  0  0  0  0  0  0  0  0  0
   44.5752   14.8836  -13.3957 C   0  0  0  0  0  0  0  0  0  0  0  0
   44.6381   15.7111  -14.3419 O   0  0  0  0  0  0  0  0  0  0  0  0
   43.7390   13.0961  -12.6260 H   0  0  0  0  0  0  0  0  0  0  0  0
   45.4180   15.1702  -12.2417 C   0  0  0  0  0  0  0  0  0  0  0  0
   46.7811   15.0726  -12.3150 C   0  0  0  0  0  0  0  0  0  0  0  0
   47.6123   15.3382  -11.2527 C   0  0  0  0  0  0  0  0  0  0  0  0
   47.0596   15.7217  -10.0525 C   0  0  0  0  0  0  0  0  0  0  0  0
   45.6916   15.8324   -9.9366 C   0  0  0  0  0  0  0  0  0  0  0  0
   44.8789   15.5535  -11.0400 C   0  0  0  0  0  0  0  0  0  0  0  0
   45.1194   16.2381   -8.6653 C   0  0  0  0  0  0  0  0  0  0  0  0
   45.4776   15.8956   -7.4202 N   0  0  0  0  0  0  0  0  0  0  0  0
   44.6591   16.5184   -6.5818 N   0  0  0  0  0  0  0  0  0  0  0  0
   43.7881   17.2513   -7.3104 C   0  0  0  0  0  0  0  0  0  0  0  0
   44.1026   17.0518   -8.5476 O   0  0  0  0  0  0  0  0  0  0  0  0
  1  2  1  0  0  0
  2  3  2  0  0  0
  3  4  1  0  0  0
  4  5  2  0  0  0
  5 25  1  0  0  0
 25 26  1  0  0  0
 26 27  2  0  0  0
 26 29  1  0  0  0
 29 30  2  0  0  0
 30 31  1  0  0  0
 31 32  2  0  0  0
 32 33  1  0  0  0
 33 34  2  0  0  0
 33 35  1  0  0  0
 35 36  2  0  0  0
 36 37  1  0  0  0
 37 38  2  0  0  0
 38 39  1  0  0  0
  5  6  1  0  0  0
  6  7  2  0  0  0
  7  8  1  0  0  0
  8  9  2  0  0  0
  9 10  1  0  0  0
 10 20  1  0  0  0
 20 21  1  0  0  0
 21 22  1  0  0  0
 22 23  1  0  0  0
 22 24  1  0  0  0
 10 11  2  0  0  0
 11 12  1  0  0  0
 12 13  2  0  0  0
 12 14  1  0  0  0
 14 15  1  0  0  0
 15 16  1  0  0  0
 16 17  1  0  0  0
 17 18  1  0  0  0
 18 19  1  0  0  0
  7  2  1  0  0  0
 13  8  1  0  0  0
 19 14  1  0  0  0
 34 29  1  0  0  0
 39 35  1  0  0  0
 25 28  1  0  0  0
M  END
> <minimizedAffinity>
-8.79373

> <CNNscore>
0.2162775993

> <CNNaffinity>
6.5020055771

> <CNN_VS>
1.4062381983

> <CNNaffinity_variance>
0.0932282433

$$$$
[H]c1nnc(-c2c([H])c([H])c([H])c(C(=O)N([H])c3c([H])c([H])c(C([H])([H])[H])c(-c4c([H])c(OC([H])([H])C([H])(F)F)nc(C5([H])OC([H])([H])C([H])([H])OC5([H])[H])c4[H])c3[H])c2[H])o1


 39 43  0  0  0  0  0  0  0  0999 V2000
   36.9126   17.4362   -8.7793 C   0  0  0  0  0  0  0  0  0  0  0  0
   36.9710   16.5243   -9.9251 C   0  0  0  0  0  0  0  0  0  0  0  0
   36.1999   16.8452  -11.0245 C   0  0  0  0  0  0  0  0  0  0  0  0
   36.2138   16.0594  -12.1281 C   0  0  0  0  0  0  0  0  0  0  0  0
   37.0046   14.9125  -12.1788 C   0  0  0  0  0  0  0  0  0  0  0  0
   37.7599   14.6182  -11.0713 C   0  0  0  0  0  0  0  0  0  0  0  0
   37.7657   15.4125   -9.9151 C   0  0  0  0  0  0  0  0  0  0  0  0
   38.5582   15.0619   -8.7605 C   0  0  0  0  0  0  0  0  0  0  0  0
   38.0158   14.4971   -7.6382 C   0  0  0  0  0  0  0  0  0  0  0  0
   38.7401   14.1523   -6.5049 C   0  0  0  0  0  0  0  0  0  0  0  0
   40.0393   14.3969   -6.5404 N   0  0  0  0  0  0  0  0  0  0  0  0
   40.6358   14.9467   -7.6047 C   0  0  0  0  0  0  0  0  0  0  0  0
   39.9166   15.2979   -8.7505 C   0  0  0  0  0  0  0  0  0  0  0  0
   42.1023   15.1748   -7.5329 C   0  0  0  0  0  0  0  0  0  0  0  0
   42.8297   14.0738   -8.3074 C   0  0  0  0  0  0  0  0  0  0  0  0
   44.1908   14.2632   -8.0712 O   0  0  0  0  0  0  0  0  0  0  0  0
   44.5545   15.4513   -8.7256 C   0  0  0  0  0  0  0  0  0  0  0  0
   43.7881   16.5754   -8.0651 C   0  0  0  0  0  0  0  0  0  0  0  0
   42.4114   16.3698   -8.1832 O   0  0  0  0  0  0  0  0  0  0  0  0
   38.0180   13.5955   -5.4807 O   0  0  0  0  0  0  0  0  0  0  0  0
   37.7640   14.2846   -4.2909 C   0  0  0  0  0  0  0  0  0  0  0  0
   36.3441   14.7394   -4.1872 C   0  0  0  0  0  0  0  0  0  0  0  0
   36.1342   15.8895   -4.9481 F   0  0  0  0  0  0  0  0  0  0  0  0
   35.5817   13.7577   -4.8526 F   0  0  0  0  0  0  0  0  0  0  0  0
   36.9774   14.1098  -13.3425 N   0  0  0  0  0  0  0  0  0  0  0  0
   36.1416   13.0348  -13.6585 C   0  0  0  0  0  0  0  0  0  0  0  0
   35.2573   12.6443  -12.8525 O   0  0  0  0  0  0  0  0  0  0  0  0
   37.7159   14.3879  -14.0799 H   0  0  0  0  0  0  0  0  0  0  0  0
   36.2274   12.3007  -14.9147 C   0  0  0  0  0  0  0  0  0  0  0  0
   35.1390   11.6568  -15.4376 C   0  0  0  0  0  0  0  0  0  0  0  0
   35.1755   10.9576  -16.6207 C   0  0  0  0  0  0  0  0  0  0  0  0
   36.3572   10.8948  -17.3226 C   0  0  0  0  0  0  0  0  0  0  0  0
   37.4763   11.5295  -16.8310 C   0  0  0  0  0  0  0  0  0  0  0  0
   37.3998   12.2309  -15.6235 C   0  0  0  0  0  0  0  0  0  0  0  0
   38.7180   11.4566  -17.5801 C   0  0  0  0  0  0  0  0  0  0  0  0
   38.9514   10.9475  -18.7976 N   0  0  0  0  0  0  0  0  0  0  0  0
   40.2421   11.1096  -19.0593 N   0  0  0  0  0  0  0  0  0  0  0  0
   40.8130   11.7226  -17.9987 C   0  0  0  0  0  0  0  0  0  0  0  0
   39.8640   11.9091  -17.1420 O   0  0  0  0  0  0  0  0  0  0  0  0
  1  2  1  0  0  0
  2  3  2  0  0  0
  3  4  1  0  0  0
  4  5  2  0  0  0
  5 25  1  0  0  0
 25 26  1  0  0  0
 26 27  2  0  0  0
 26 29  1  0  0  0
 29 30  2  0  0  0
 30 31  1  0  0  0
 31 32  2  0  0  0
 32 33  1  0  0  0
 33 34  2  0  0  0
 33 35  1  0  0  0
 35 36  2  0  0  0
 36 37  1  0  0  0
 37 38  2  0  0  0
 38 39  1  0  0  0
  5  6  1  0  0  0
  6  7  2  0  0  0
  7  8  1  0  0  0
  8  9  2  0  0  0
  9 10  1  0  0  0
 10 20  1  0  0  0
 20 21  1  0  0  0
 21 22  1  0  0  0
 22 23  1  0  0  0
 22 24  1  0  0  0
 10 11  2  0  0  0
 11 12  1  0  0  0
 12 13  2  0  0  0
 12 14  1  0  0  0
 14 15  1  0  0  0
 15 16  1  0  0  0
 16 17  1  0  0  0
 17 18  1  0  0  0
 18 19  1  0  0  0
  7  2  1  0  0  0
 13  8  1  0  0  0
 19 14  1  0  0  0
 34 29  1  0  0  0
 39 35  1  0  0  0
 25 28  1  0  0  0
M  END
> <minimizedAffinity>
-8.63835

> <CNNscore>
0.2145762295

> <CNNaffinity>
6.4183449745

> <CNN_VS>
1.3772242069

> <CNNaffinity_variance>
0.1684123129

$$$$
[H]c1nnc(-c2c([H])c([H])c([H])c(C(=O)N([H])c3c([H])c([H])c(C([H])([H])[H])c(-c4c([H])c(OC([H])([H])C([H])(F)F)nc(C5([H])OC([H])([H])C([H])([H])OC5([H])[H])c4[H])c3[H])c2[H])o1


 39 43  0  0  0  0  0  0  0  0999 V2000
   35.3270   12.7343  -14.6470 C   0  0  0  0  0  0  0  0  0  0  0  0
   35.5569   13.7593  -13.6251 C   0  0  0  0  0  0  0  0  0  0  0  0
   34.4510   14.2294  -12.9454 C   0  0  0  0  0  0  0  0  0  0  0  0
   34.5857   15.1655  -11.9753 C   0  0  0  0  0  0  0  0  0  0  0  0
   35.8403   15.6738  -11.6421 C   0  0  0  0  0  0  0  0  0  0  0  0
   36.9212   15.1887  -12.3348 C   0  0  0  0  0  0  0  0  0  0  0  0
   36.8124   14.2202  -13.3437 C   0  0  0  0  0  0  0  0  0  0  0  0
   37.9694   13.7467  -14.0655 C   0  0  0  0  0  0  0  0  0  0  0  0
   39.2383   14.1780  -13.7886 C   0  0  0  0  0  0  0  0  0  0  0  0
   40.3757   13.7543  -14.4629 C   0  0  0  0  0  0  0  0  0  0  0  0
   40.1908   12.8744  -15.4327 N   0  0  0  0  0  0  0  0  0  0  0  0
   38.9785   12.4097  -15.7568 C   0  0  0  0  0  0  0  0  0  0  0  0
   37.8269   12.8293  -15.0850 C   0  0  0  0  0  0  0  0  0  0  0  0
   38.8908   11.4222  -16.8636 C   0  0  0  0  0  0  0  0  0  0  0  0
   37.4269   11.2356  -17.2677 C   0  0  0  0  0  0  0  0  0  0  0  0
   37.4068   10.1945  -18.1950 O   0  0  0  0  0  0  0  0  0  0  0  0
   38.0330   10.6742  -19.3569 C   0  0  0  0  0  0  0  0  0  0  0  0
   39.4710   10.9726  -18.9961 C   0  0  0  0  0  0  0  0  0  0  0  0
   39.5367   11.9373  -17.9878 O   0  0  0  0  0  0  0  0  0  0  0  0
   41.5599   14.3007  -14.0391 O   0  0  0  0  0  0  0  0  0  0  0  0
   42.6687   13.5121  -13.7175 C   0  0  0  0  0  0  0  0  0  0  0  0
   43.6888   13.4897  -14.8095 C   0  0  0  0  0  0  0  0  0  0  0  0
   44.9122   13.0147  -14.3366 F   0  0  0  0  0  0  0  0  0  0  0  0
   43.2658   12.4846  -15.7032 F   0  0  0  0  0  0  0  0  0  0  0  0
   35.9361   16.6626  -10.6358 N   0  0  0  0  0  0  0  0  0  0  0  0
   37.0696   17.3040  -10.1284 C   0  0  0  0  0  0  0  0  0  0  0  0
   38.2184   17.0254  -10.5606 O   0  0  0  0  0  0  0  0  0  0  0  0
   34.9832   16.9490  -10.2157 H   0  0  0  0  0  0  0  0  0  0  0  0
   37.0107   18.3200   -9.0850 C   0  0  0  0  0  0  0  0  0  0  0  0
   37.8431   19.4061   -9.1025 C   0  0  0  0  0  0  0  0  0  0  0  0
   37.8174   20.3889   -8.1415 C   0  0  0  0  0  0  0  0  0  0  0  0
   36.9158   20.2873   -7.1071 C   0  0  0  0  0  0  0  0  0  0  0  0
   36.0599   19.2097   -7.0525 C   0  0  0  0  0  0  0  0  0  0  0  0
   36.1163   18.2300   -8.0489 C   0  0  0  0  0  0  0  0  0  0  0  0
   35.1125   19.1129   -5.9564 C   0  0  0  0  0  0  0  0  0  0  0  0
   35.1850   18.3956   -4.8267 N   0  0  0  0  0  0  0  0  0  0  0  0
   34.0799   18.6307   -4.1309 N   0  0  0  0  0  0  0  0  0  0  0  0
   33.3174   19.4986   -4.8323 C   0  0  0  0  0  0  0  0  0  0  0  0
   33.9754   19.7571   -5.9138 O   0  0  0  0  0  0  0  0  0  0  0  0
  1  2  1  0  0  0
  2  3  2  0  0  0
  3  4  1  0  0  0
  4  5  2  0  0  0
  5 25  1  0  0  0
 25 26  1  0  0  0
 26 27  2  0  0  0
 26 29  1  0  0  0
 29 30  2  0  0  0
 30 31  1  0  0  0
 31 32  2  0  0  0
 32 33  1  0  0  0
 33 34  2  0  0  0
 33 35  1  0  0  0
 35 36  2  0  0  0
 36 37  1  0  0  0
 37 38  2  0  0  0
 38 39  1  0  0  0
  5  6  1  0  0  0
  6  7  2  0  0  0
  7  8  1  0  0  0
  8  9  2  0  0  0
  9 10  1  0  0  0
 10 20  1  0  0  0
 20 21  1  0  0  0
 21 22  1  0  0  0
 22 23  1  0  0  0
 22 24  1  0  0  0
 10 11  2  0  0  0
 11 12  1  0  0  0
 12 13  2  0  0  0
 12 14  1  0  0  0
 14 15  1  0  0  0
 15 16  1  0  0  0
 16 17  1  0  0  0
 17 18  1  0  0  0
 18 19  1  0  0  0
  7  2  1  0  0  0
 13  8  1  0  0  0
 19 14  1  0  0  0
 34 29  1  0  0  0
 39 35  1  0  0  0
 25 28  1  0  0  0
M  END
> <minimizedAffinity>
-8.83574

> <CNNscore>
0.2115009278

> <CNNaffinity>
6.6905202866

> <CNN_VS>
1.4150512218

> <CNNaffinity_variance>
0.0867875963

$$$$
[H]c1nnc(-c2c([H])c([H])c([H])c(C(=O)N([H])c3c([H])c([H])c(C([H])([H])[H])c(-c4c([H])c(OC([H])([H])C([H])(F)F)nc(C5([H])OC([H])([H])C([H])([H])OC5([H])[H])c4[H])c3[H])c2[H])o1


 39 43  0  0  0  0  0  0  0  0999 V2000
   33.6670   13.5448  -14.1234 C   0  0  0  0  0  0  0  0  0  0  0  0
   34.4358   14.2891  -13.1221 C   0  0  0  0  0  0  0  0  0  0  0  0
   33.7196   14.9875  -12.1704 C   0  0  0  0  0  0  0  0  0  0  0  0
   34.3600   15.6860  -11.2022 C   0  0  0  0  0  0  0  0  0  0  0  0
   35.7526   15.7155  -11.1448 C   0  0  0  0  0  0  0  0  0  0  0  0
   36.4380   15.0129  -12.1040 C   0  0  0  0  0  0  0  0  0  0  0  0
   35.8024   14.2812  -13.1180 C   0  0  0  0  0  0  0  0  0  0  0  0
   36.5558   13.5692  -14.1228 C   0  0  0  0  0  0  0  0  0  0  0  0
   35.9607   12.9425  -15.1838 C   0  0  0  0  0  0  0  0  0  0  0  0
   36.6469   12.2415  -16.1666 C   0  0  0  0  0  0  0  0  0  0  0  0
   37.9628   12.1930  -16.0440 N   0  0  0  0  0  0  0  0  0  0  0  0
   38.6102   12.7830  -15.0324 C   0  0  0  0  0  0  0  0  0  0  0  0
   37.9298   13.4909  -14.0377 C   0  0  0  0  0  0  0  0  0  0  0  0
   40.0908   12.6636  -14.9971 C   0  0  0  0  0  0  0  0  0  0  0  0
   40.6438   12.7348  -16.4220 C   0  0  0  0  0  0  0  0  0  0  0  0
   42.0085   12.4653  -16.3259 O   0  0  0  0  0  0  0  0  0  0  0  0
   42.5926   13.5599  -15.6679 C   0  0  0  0  0  0  0  0  0  0  0  0
   42.0091   13.6036  -14.2734 C   0  0  0  0  0  0  0  0  0  0  0  0
   40.6222   13.7640  -14.3238 O   0  0  0  0  0  0  0  0  0  0  0  0
   35.8739   11.6823  -17.1517 O   0  0  0  0  0  0  0  0  0  0  0  0
   35.0153   10.6076  -16.9017 C   0  0  0  0  0  0  0  0  0  0  0  0
   33.5766   11.0118  -16.9154 C   0  0  0  0  0  0  0  0  0  0  0  0
   32.8215   10.1341  -17.6935 F   0  0  0  0  0  0  0  0  0  0  0  0
   33.1058   10.7834  -15.6062 F   0  0  0  0  0  0  0  0  0  0  0  0
   36.3827   16.4708  -10.1289 N   0  0  0  0  0  0  0  0  0  0  0  0
   36.8884   16.0498   -8.8957 C   0  0  0  0  0  0  0  0  0  0  0  0
   36.8137   14.8437   -8.5438 O   0  0  0  0  0  0  0  0  0  0  0  0
   36.4778   17.5208  -10.3635 H   0  0  0  0  0  0  0  0  0  0  0  0
   37.5252   16.9525   -7.9451 C   0  0  0  0  0  0  0  0  0  0  0  0
   38.6087   16.5591   -7.2075 C   0  0  0  0  0  0  0  0  0  0  0  0
   39.2416   17.3798   -6.3041 C   0  0  0  0  0  0  0  0  0  0  0  0
   38.7728   18.6607   -6.1238 C   0  0  0  0  0  0  0  0  0  0  0  0
   37.6845   19.0962   -6.8469 C   0  0  0  0  0  0  0  0  0  0  0  0
   37.0672   18.2317   -7.7566 C   0  0  0  0  0  0  0  0  0  0  0  0
   37.1985   20.4500   -6.6486 C   0  0  0  0  0  0  0  0  0  0  0  0
   36.7019   21.0252   -5.5447 N   0  0  0  0  0  0  0  0  0  0  0  0
   36.3913   22.2785   -5.8507 N   0  0  0  0  0  0  0  0  0  0  0  0
   36.6967   22.4823   -7.1514 C   0  0  0  0  0  0  0  0  0  0  0  0
   37.1751   21.3629   -7.5845 O   0  0  0  0  0  0  0  0  0  0  0  0
  1  2  1  0  0  0
  2  3  2  0  0  0
  3  4  1  0  0  0
  4  5  2  0  0  0
  5 25  1  0  0  0
 25 26  1  0  0  0
 26 27  2  0  0  0
 26 29  1  0  0  0
 29 30  2  0  0  0
 30 31  1  0  0  0
 31 32  2  0  0  0
 32 33  1  0  0  0
 33 34  2  0  0  0
 33 35  1  0  0  0
 35 36  2  0  0  0
 36 37  1  0  0  0
 37 38  2  0  0  0
 38 39  1  0  0  0
  5  6  1  0  0  0
  6  7  2  0  0  0
  7  8  1  0  0  0
  8  9  2  0  0  0
  9 10  1  0  0  0
 10 20  1  0  0  0
 20 21  1  0  0  0
 21 22  1  0  0  0
 22 23  1  0  0  0
 22 24  1  0  0  0
 10 11  2  0  0  0
 11 12  1  0  0  0
 12 13  2  0  0  0
 12 14  1  0  0  0
 14 15  1  0  0  0
 15 16  1  0  0  0
 16 17  1  0  0  0
 17 18  1  0  0  0
 18 19  1  0  0  0
  7  2  1  0  0  0
 13  8  1  0  0  0
 19 14  1  0  0  0
 34 29  1  0  0  0
 39 35  1  0  0  0
 25 28  1  0  0  0
M  END
> <minimizedAffinity>
-9.01048

> <CNNscore>
0.1944895387

> <CNNaffinity>
6.6731863022

> <CNN_VS>
1.2978649139

> <CNNaffinity_variance>
0.3160841167

$$$$
[H]c1nnc(-c2c([H])c([H])c([H])c(C(=O)N([H])c3c([H])c([H])c(C([H])([H])[H])c(-c4c([H])c(OC([H])([H])C([H])(F)F)nc(C5([H])OC([H])([H])C([H])([H])OC5([H])[H])c4[H])c3[H])c2[H])o1


 39 43  0  0  0  0  0  0  0  0999 V2000
   39.8995   12.1434  -17.5368 C   0  0  0  0  0  0  0  0  0  0  0  0
   40.9131   12.5246  -16.5493 C   0  0  0  0  0  0  0  0  0  0  0  0
   42.2344   12.4490  -16.9425 C   0  0  0  0  0  0  0  0  0  0  0  0
   43.2274   12.8004  -16.0904 C   0  0  0  0  0  0  0  0  0  0  0  0
   42.9386   13.2452  -14.8011 C   0  0  0  0  0  0  0  0  0  0  0  0
   41.6167   13.3094  -14.4378 C   0  0  0  0  0  0  0  0  0  0  0  0
   40.5678   12.9521  -15.2980 C   0  0  0  0  0  0  0  0  0  0  0  0
   39.1888   13.0136  -14.8754 C   0  0  0  0  0  0  0  0  0  0  0  0
   38.1798   12.3920  -15.5597 C   0  0  0  0  0  0  0  0  0  0  0  0
   36.8414   12.4325  -15.1922 C   0  0  0  0  0  0  0  0  0  0  0  0
   36.5512   13.1251  -14.1036 N   0  0  0  0  0  0  0  0  0  0  0  0
   37.4873   13.7574  -13.3862 C   0  0  0  0  0  0  0  0  0  0  0  0
   38.8372   13.7236  -13.7469 C   0  0  0  0  0  0  0  0  0  0  0  0
   37.0453   14.5044  -12.1802 C   0  0  0  0  0  0  0  0  0  0  0  0
   38.1423   15.4820  -11.7535 C   0  0  0  0  0  0  0  0  0  0  0  0
   37.7267   16.0316  -10.5414 O   0  0  0  0  0  0  0  0  0  0  0  0
   36.6199   16.8484  -10.8248 C   0  0  0  0  0  0  0  0  0  0  0  0
   35.5242   15.9467  -11.3478 C   0  0  0  0  0  0  0  0  0  0  0  0
   35.9389   15.2884  -12.5082 O   0  0  0  0  0  0  0  0  0  0  0  0
   35.9774   11.7449  -16.0054 O   0  0  0  0  0  0  0  0  0  0  0  0
   34.5987   11.7229  -15.7743 C   0  0  0  0  0  0  0  0  0  0  0  0
   33.9241   10.5776  -16.4573 C   0  0  0  0  0  0  0  0  0  0  0  0
   33.3515   10.9853  -17.6623 F   0  0  0  0  0  0  0  0  0  0  0  0
   34.9612    9.7113  -16.8592 F   0  0  0  0  0  0  0  0  0  0  0  0
   44.0046   13.5858  -13.9367 N   0  0  0  0  0  0  0  0  0  0  0  0
   44.9165   14.6412  -14.0271 C   0  0  0  0  0  0  0  0  0  0  0  0
   44.8683   15.4575  -14.9840 O   0  0  0  0  0  0  0  0  0  0  0  0
   44.1074   12.9220  -13.0910 H   0  0  0  0  0  0  0  0  0  0  0  0
   45.9682   14.8724  -13.0450 C   0  0  0  0  0  0  0  0  0  0  0  0
   46.7390   16.0026  -13.0813 C   0  0  0  0  0  0  0  0  0  0  0  0
   47.7373   16.2616  -12.1723 C   0  0  0  0  0  0  0  0  0  0  0  0
   47.9832   15.3486  -11.1729 C   0  0  0  0  0  0  0  0  0  0  0  0
   47.2298   14.1979  -11.1007 C   0  0  0  0  0  0  0  0  0  0  0  0
   46.2229   13.9697  -12.0439 C   0  0  0  0  0  0  0  0  0  0  0  0
   47.4980   13.2414  -10.0416 C   0  0  0  0  0  0  0  0  0  0  0  0
   46.8632   12.0999   -9.7419 N   0  0  0  0  0  0  0  0  0  0  0  0
   47.4711   11.5675   -8.6894 N   0  0  0  0  0  0  0  0  0  0  0  0
   48.4887   12.3828   -8.3340 C   0  0  0  0  0  0  0  0  0  0  0  0
   48.4646   13.3676   -9.1700 O   0  0  0  0  0  0  0  0  0  0  0  0
  1  2  1  0  0  0
  2  3  2  0  0  0
  3  4  1  0  0  0
  4  5  2  0  0  0
  5 25  1  0  0  0
 25 26  1  0  0  0
 26 27  2  0  0  0
 26 29  1  0  0  0
 29 30  2  0  0  0
 30 31  1  0  0  0
 31 32  2  0  0  0
 32 33  1  0  0  0
 33 34  2  0  0  0
 33 35  1  0  0  0
 35 36  2  0  0  0
 36 37  1  0  0  0
 37 38  2  0  0  0
 38 39  1  0  0  0
  5  6  1  0  0  0
  6  7  2  0  0  0
  7  8  1  0  0  0
  8  9  2  0  0  0
  9 10  1  0  0  0
 10 20  1  0  0  0
 20 21  1  0  0  0
 21 22  1  0  0  0
 22 23  1  0  0  0
 22 24  1  0  0  0
 10 11  2  0  0  0
 11 12  1  0  0  0
 12 13  2  0  0  0
 12 14  1  0  0  0
 14 15  1  0  0  0
 15 16  1  0  0  0
 16 17  1  0  0  0
 17 18  1  0  0  0
 18 19  1  0  0  0
  7  2  1  0  0  0
 13  8  1  0  0  0
 19 14  1  0  0  0
 34 29  1  0  0  0
 39 35  1  0  0  0
 25 28  1  0  0  0
M  END
> <minimizedAffinity>
-8.39287

> <CNNscore>
0.1689539701

> <CNNaffinity>
6.5132966042

> <CNN_VS>
1.1004472971

> <CNNaffinity_variance>
0.1336350292

$$$$
[H]OC(=O)C([H])([H])C(=O)N([H])C([H])([H])C([H])([H])O[H]


 13 12  0  0  0  0  0  0  0  0999 V2000
   35.8236   12.6682  -15.2396 N   0  0  0  0  0  0  0  0  0  0  0  0
   34.7350   12.0698  -14.5299 C   0  0  0  0  0  0  0  0  0  0  0  0
   34.6729   12.0775  -13.2758 O   0  0  0  0  0  0  0  0  0  0  0  0
   35.8183   12.6298  -16.2805 H   0  0  0  0  0  0  0  0  0  0  0  0
   36.9094   13.3122  -14.5664 C   0  0  0  0  0  0  0  0  0  0  0  0
   39.2061   12.9168  -14.7207 O   0  0  0  0  0  0  0  0  0  0  0  0
   38.0255   12.3616  -14.1767 C   0  0  0  0  0  0  0  0  0  0  0  0
   39.0840   13.0904  -15.7028 H   0  0  0  0  0  0  0  0  0  0  0  0
   33.6230   11.4087  -15.2552 C   0  0  0  0  0  0  0  0  0  0  0  0
   33.9663   10.9007  -16.5806 C   0  0  0  0  0  0  0  0  0  0  0  0
   35.2383   10.3814  -16.7696 O   0  0  0  0  0  0  0  0  0  0  0  0
   33.1447   10.9284  -17.5241 O   0  0  0  0  0  0  0  0  0  0  0  0
   36.0888   10.8891  -16.5489 H   0  0  0  0  0  0  0  0  0  0  0  0
  6  7  1  0  0  0
  7  5  1  0  0  0
  5  1  1  0  0  0
  1  2  1  0  0  0
  2  3  2  0  0  0
  2  9  1  0  0  0
  9 10  1  0  0  0
 10 11  1  0  0  0
 10 12  2  0  0  0
  6  8  1  0  0  0
  1  4  1  0  0  0
 11 13  1  0  0  0
M  END
> <minimizedAffinity>
-3.85701

> <CNNscore>
0.5821706653

> <CNNaffinity>
3.5159702301

> <CNN_VS>
2.0468947887

> <CNNaffinity_variance>
0.0495774783

$$$$
[H]OC(=O)C([H])([H])C(=O)N([H])C([H])([H])C([H])([H])O[H]


 13 12  0  0  0  0  0  0  0  0999 V2000
   35.3095   13.0848  -15.0755 N   0  0  0  0  0  0  0  0  0  0  0  0
   35.9767   11.9628  -15.6610 C   0  0  0  0  0  0  0  0  0  0  0  0
   37.1765   11.6939  -15.4062 O   0  0  0  0  0  0  0  0  0  0  0  0
   34.3129   13.2556  -15.3259 H   0  0  0  0  0  0  0  0  0  0  0  0
   35.9661   13.9708  -14.1641 C   0  0  0  0  0  0  0  0  0  0  0  0
   34.4812   12.8839  -12.7257 O   0  0  0  0  0  0  0  0  0  0  0  0
   35.3055   14.0297  -12.7997 C   0  0  0  0  0  0  0  0  0  0  0  0
   33.8691   12.8482  -13.5219 H   0  0  0  0  0  0  0  0  0  0  0  0
   35.2700   11.0615  -16.6032 C   0  0  0  0  0  0  0  0  0  0  0  0
   33.8182   11.0241  -16.4501 C   0  0  0  0  0  0  0  0  0  0  0  0
   33.2950   11.1430  -15.1713 O   0  0  0  0  0  0  0  0  0  0  0  0
   33.0602   10.8893  -17.4367 O   0  0  0  0  0  0  0  0  0  0  0  0
   33.5701   10.5484  -14.3963 H   0  0  0  0  0  0  0  0  0  0  0  0
  6  7  1  0  0  0
  7  5  1  0  0  0
  5  1  1  0  0  0
  1  2  1  0  0  0
  2  3  2  0  0  0
  2  9  1  0  0  0
  9 10  1  0  0  0
 10 11  1  0  0  0
 10 12  2  0  0  0
  6  8  1  0  0  0
  1  4  1  0  0  0
 11 13  1  0  0  0
M  END
> <minimizedAffinity>
-4.24733

> <CNNscore>
0.5359905958

> <CNNaffinity>
3.4845867157

> <CNN_VS>
1.8677057028

> <CNNaffinity_variance>
0.0770973414

$$$$
[H]OC(=O)C([H])([H])C(=O)N([H])C([H])([H])C([H])([H])O[H]


 13 12  0  0  0  0  0  0  0  0999 V2000
   42.0914   13.1828  -16.7830 N   0  0  0  0  0  0  0  0  0  0  0  0
   42.9528   13.2606  -15.6434 C   0  0  0  0  0  0  0  0  0  0  0  0
   42.5290   13.0836  -14.4747 O   0  0  0  0  0  0  0  0  0  0  0  0
   42.5024   13.3388  -17.7273 H   0  0  0  0  0  0  0  0  0  0  0  0
   40.6943   12.8990  -16.6637 C   0  0  0  0  0  0  0  0  0  0  0  0
   41.0842   11.9070  -18.7420 O   0  0  0  0  0  0  0  0  0  0  0  0
   40.2101   11.8375  -17.6333 C   0  0  0  0  0  0  0  0  0  0  0  0
   41.1259   12.8491  -19.0888 H   0  0  0  0  0  0  0  0  0  0  0  0
   44.3977   13.5569  -15.7981 C   0  0  0  0  0  0  0  0  0  0  0  0
   45.1749   12.5116  -16.4585 C   0  0  0  0  0  0  0  0  0  0  0  0
   46.4946   12.7881  -16.7829 O   0  0  0  0  0  0  0  0  0  0  0  0
   44.6746   11.3966  -16.7278 O   0  0  0  0  0  0  0  0  0  0  0  0
   46.7796   13.5934  -17.3307 H   0  0  0  0  0  0  0  0  0  0  0  0
  6  7  1  0  0  0
  7  5  1  0  0  0
  5  1  1  0  0  0
  1  2  1  0  0  0
  2  3  2  0  0  0
  2  9  1  0  0  0
  9 10  1  0  0  0
 10 11  1  0  0  0
 10 12  2  0  0  0
  6  8  1  0  0  0
  1  4  1  0  0  0
 11 13  1  0  0  0
M  END
> <minimizedAffinity>
-4.49271

> <CNNscore>
0.5084512234

> <CNNaffinity>
3.3339385986

> <CNN_VS>
1.6951451302

> <CNNaffinity_variance>
0.0342804305

$$$$
[H]OC(=O)C([H])([H])C(=O)N([H])C([H])([H])C([H])([H])O[H]


 13 12  0  0  0  0  0  0  0  0999 V2000
   38.1046   12.0142  -16.7220 N   0  0  0  0  0  0  0  0  0  0  0  0
   37.3498   11.9513  -15.5083 C   0  0  0  0  0  0  0  0  0  0  0  0
   37.8881   11.7044  -14.4011 O   0  0  0  0  0  0  0  0  0  0  0  0
   37.6010   12.2237  -17.6094 H   0  0  0  0  0  0  0  0  0  0  0  0
   39.5188   11.7996  -16.7514 C   0  0  0  0  0  0  0  0  0  0  0  0
   40.6119   12.4059  -18.7244 O   0  0  0  0  0  0  0  0  0  0  0  0
   40.0232   11.2895  -18.0881 C   0  0  0  0  0  0  0  0  0  0  0  0
   39.9605   13.1705  -18.7503 H   0  0  0  0  0  0  0  0  0  0  0  0
   35.8841   12.1780  -15.5089 C   0  0  0  0  0  0  0  0  0  0  0  0
   35.1155   11.2446  -16.3278 C   0  0  0  0  0  0  0  0  0  0  0  0
   33.7319   11.3293  -16.2868 O   0  0  0  0  0  0  0  0  0  0  0  0
   35.6787   10.3904  -17.0483 O   0  0  0  0  0  0  0  0  0  0  0  0
   33.1940   11.2948  -15.4269 H   0  0  0  0  0  0  0  0  0  0  0  0
  6  7  1  0  0  0
  7  5  1  0  0  0
  5  1  1  0  0  0
  1  2  1  0  0  0
  2  3  2  0  0  0
  2  9  1  0  0  0
  9 10  1  0  0  0
 10 11  1  0  0  0
 10 12  2  0  0  0
  6  8  1  0  0  0
  1  4  1  0  0  0
 11 13  1  0  0  0
M  END
> <minimizedAffinity>
-4.18357

> <CNNscore>
0.4456675649

> <CNNaffinity>
3.4208381176

> <CNN_VS>
1.5245566368

> <CNNaffinity_variance>
0.0935975462

$$$$
[H]OC(=O)C([H])([H])C(=O)N([H])C([H])([H])C([H])([H])O[H]


 13 12  0  0  0  0  0  0  0  0999 V2000
   39.7537   12.6563  -15.9795 N   0  0  0  0  0  0  0  0  0  0  0  0
   38.6647   11.8287  -16.3989 C   0  0  0  0  0  0  0  0  0  0  0  0
   38.7245   11.1247  -17.4370 O   0  0  0  0  0  0  0  0  0  0  0  0
   39.6440   13.2172  -15.1086 H   0  0  0  0  0  0  0  0  0  0  0  0
   40.9782   12.7346  -16.7152 C   0  0  0  0  0  0  0  0  0  0  0  0
   43.3098   12.8711  -16.7100 O   0  0  0  0  0  0  0  0  0  0  0  0
   42.2014   12.9001  -15.8334 C   0  0  0  0  0  0  0  0  0  0  0  0
   43.2747   12.0458  -17.2821 H   0  0  0  0  0  0  0  0  0  0  0  0
   37.4069   11.7681  -15.6155 C   0  0  0  0  0  0  0  0  0  0  0  0
   37.4619   12.4168  -14.3083 C   0  0  0  0  0  0  0  0  0  0  0  0
   37.4813   13.8029  -14.2696 O   0  0  0  0  0  0  0  0  0  0  0  0
   37.4911   11.7511  -13.2491 O   0  0  0  0  0  0  0  0  0  0  0  0
   38.1551   14.3679  -14.7761 H   0  0  0  0  0  0  0  0  0  0  0  0
  6  7  1  0  0  0
  7  5  1  0  0  0
  5  1  1  0  0  0
  1  2  1  0  0  0
  2  3  2  0  0  0
  2  9  1  0  0  0
  9 10  1  0  0  0
 10 11  1  0  0  0
 10 12  2  0  0  0
  6  8  1  0  0  0
  1  4  1  0  0  0
 11 13  1  0  0  0
M  END
> <minimizedAffinity>
-3.86005

> <CNNscore>
0.3905931711

> <CNNaffinity>
3.2819228172

> <CNN_VS>
1.2818965912

> <CNNaffinity_variance>
0.0551535487

$$$$
[H]OC(=O)C([H])([H])C(=O)N([H])C([H])([H])C([H])([H])O[H]


 13 12  0  0  0  0  0  0  0  0999 V2000
   38.4002   12.3364  -15.9499 N   0  0  0  0  0  0  0  0  0  0  0  0
   36.9820   12.1603  -15.8836 C   0  0  0  0  0  0  0  0  0  0  0  0
   36.3576   11.4621  -16.7198 O   0  0  0  0  0  0  0  0  0  0  0  0
   38.8613   12.9274  -15.2266 H   0  0  0  0  0  0  0  0  0  0  0  0
   39.1961   11.7293  -16.9721 C   0  0  0  0  0  0  0  0  0  0  0  0
   40.6694   12.1156  -18.7427 O   0  0  0  0  0  0  0  0  0  0  0  0
   40.3197   12.6191  -17.4691 C   0  0  0  0  0  0  0  0  0  0  0  0
   40.8664   11.1322  -18.6819 H   0  0  0  0  0  0  0  0  0  0  0  0
   36.1829   12.8027  -14.8120 C   0  0  0  0  0  0  0  0  0  0  0  0
   36.3485   12.2186  -13.4839 C   0  0  0  0  0  0  0  0  0  0  0  0
   35.2403   12.1683  -12.6518 O   0  0  0  0  0  0  0  0  0  0  0  0
   37.4530   11.7739  -13.0986 O   0  0  0  0  0  0  0  0  0  0  0  0
   34.6774   12.9800  -12.4192 H   0  0  0  0  0  0  0  0  0  0  0  0
  6  7  1  0  0  0
  7  5  1  0  0  0
  5  1  1  0  0  0
  1  2  1  0  0  0
  2  3  2  0  0  0
  2  9  1  0  0  0
  9 10  1  0  0  0
 10 11  1  0  0  0
 10 12  2  0  0  0
  6  8  1  0  0  0
  1  4  1  0  0  0
 11 13  1  0  0  0
M  END
> <minimizedAffinity>
-4.34619

> <CNNscore>
0.3756689429

> <CNNaffinity>
3.2794203758

> <CNN_VS>
1.2319763899

> <CNNaffinity_variance>
0.0823415369

$$$$
[H]OC(=O)C([H])([H])C(=O)N([H])C([H])([H])C([H])([H])O[H]


 13 12  0  0  0  0  0  0  0  0999 V2000
   37.4078   11.7737  -15.9758 N   0  0  0  0  0  0  0  0  0  0  0  0
   38.7615   11.8813  -16.4262 C   0  0  0  0  0  0  0  0  0  0  0  0
   39.5552   12.7318  -15.9535 O   0  0  0  0  0  0  0  0  0  0  0  0
   36.7978   11.0475  -16.4065 H   0  0  0  0  0  0  0  0  0  0  0  0
   36.8730   12.6273  -14.9599 C   0  0  0  0  0  0  0  0  0  0  0  0
   38.2624   12.8467  -13.0953 O   0  0  0  0  0  0  0  0  0  0  0  0
   37.1355   12.1263  -13.5522 C   0  0  0  0  0  0  0  0  0  0  0  0
   39.0169   12.7590  -13.7531 H   0  0  0  0  0  0  0  0  0  0  0  0
   39.2880   10.9823  -17.4817 C   0  0  0  0  0  0  0  0  0  0  0  0
   40.2706   11.5890  -18.3756 C   0  0  0  0  0  0  0  0  0  0  0  0
   41.4815   11.9933  -17.8338 O   0  0  0  0  0  0  0  0  0  0  0  0
   40.0369   11.7437  -19.5952 O   0  0  0  0  0  0  0  0  0  0  0  0
   41.5580   12.6172  -17.0371 H   0  0  0  0  0  0  0  0  0  0  0  0
  6  7  1  0  0  0
  7  5  1  0  0  0
  5  1  1  0  0  0
  1  2  1  0  0  0
  2  3  2  0  0  0
  2  9  1  0  0  0
  9 10  1  0  0  0
 10 11  1  0  0  0
 10 12  2  0  0  0
  6  8  1  0  0  0
  1  4  1  0  0  0
 11 13  1  0  0  0
M  END
> <minimizedAffinity>
-4.36233

> <CNNscore>
0.3742971122

> <CNNaffinity>
3.2269616127

> <CNN_VS>
1.2078424692

> <CNNaffinity_variance>
0.0922868475

$$$$
[H]OC(=O)C([H])([H])C(=O)N([H])C([H])([H])C([H])([H])O[H]


 13 12  0  0  0  0  0  0  0  0999 V2000
   41.4802   13.3651  -15.5404 N   0  0  0  0  0  0  0  0  0  0  0  0
   41.4292   12.6277  -16.7653 C   0  0  0  0  0  0  0  0  0  0  0  0
   42.3766   11.8945  -17.1414 O   0  0  0  0  0  0  0  0  0  0  0  0
   40.6620   13.9560  -15.2824 H   0  0  0  0  0  0  0  0  0  0  0  0
   42.6125   13.3144  -14.6674 C   0  0  0  0  0  0  0  0  0  0  0  0
   41.0009   14.2562  -13.2636 O   0  0  0  0  0  0  0  0  0  0  0  0
   42.3954   14.0454  -13.3560 C   0  0  0  0  0  0  0  0  0  0  0  0
   40.6658   14.7115  -14.0944 H   0  0  0  0  0  0  0  0  0  0  0  0
   40.2415   12.7003  -17.6505 C   0  0  0  0  0  0  0  0  0  0  0  0
   39.7723   11.4149  -18.1606 C   0  0  0  0  0  0  0  0  0  0  0  0
   40.0377   11.1041  -19.4858 O   0  0  0  0  0  0  0  0  0  0  0  0
   39.1487   10.6109  -17.4321 O   0  0  0  0  0  0  0  0  0  0  0  0
   39.7858   11.7057  -20.2633 H   0  0  0  0  0  0  0  0  0  0  0  0
  6  7  1  0  0  0
  7  5  1  0  0  0
  5  1  1  0  0  0
  1  2  1  0  0  0
  2  3  2  0  0  0
  2  9  1  0  0  0
  9 10  1  0  0  0
 10 11  1  0  0  0
 10 12  2  0  0  0
  6  8  1  0  0  0
  1  4  1  0  0  0
 11 13  1  0  0  0
M  END
> <minimizedAffinity>
-3.71950

> <CNNscore>
0.3678224087

> <CNNaffinity>
2.9980001450

> <CNN_VS>
1.1027315855

> <CNNaffinity_variance>
0.1306132078

$$$$
[H]OC(=O)C([H])([H])C(=O)N([H])C([H])([H])C([H])([H])O[H]


 13 12  0  0  0  0  0  0  0  0999 V2000
   36.2215   12.1567  -14.2566 N   0  0  0  0  0  0  0  0  0  0  0  0
   34.7928   12.1471  -14.3298 C   0  0  0  0  0  0  0  0  0  0  0  0
   34.0726   12.3203  -13.3158 O   0  0  0  0  0  0  0  0  0  0  0  0
   36.7644   12.0075  -15.1330 H   0  0  0  0  0  0  0  0  0  0  0  0
   36.9197   12.3636  -13.0251 C   0  0  0  0  0  0  0  0  0  0  0  0
   35.9047   13.6225  -11.3398 O   0  0  0  0  0  0  0  0  0  0  0  0
   36.7499   13.7628  -12.4640 C   0  0  0  0  0  0  0  0  0  0  0  0
   35.0648   13.1357  -11.5992 H   0  0  0  0  0  0  0  0  0  0  0  0
   34.0966   11.9297  -15.6211 C   0  0  0  0  0  0  0  0  0  0  0  0
   34.8122   11.0854  -16.5738 C   0  0  0  0  0  0  0  0  0  0  0  0
   34.3434    9.7969  -16.7821 O   0  0  0  0  0  0  0  0  0  0  0  0
   35.8191   11.5023  -17.1888 O   0  0  0  0  0  0  0  0  0  0  0  0
   34.1903    9.1289  -16.0337 H   0  0  0  0  0  0  0  0  0  0  0  0
  6  7  1  0  0  0
  7  5  1  0  0  0
  5  1  1  0  0  0
  1  2  1  0  0  0
  2  3  2  0  0  0
  2  9  1  0  0  0
  9 10  1  0  0  0
 10 11  1  0  0  0
 10 12  2  0  0  0
  6  8  1  0  0  0
  1  4  1  0  0  0
 11 13  1  0  0  0
M  END
> <minimizedAffinity>
-3.59407

> <CNNscore>
0.3663054705

> <CNNaffinity>
3.1739478111

> <CNN_VS>
1.1626344919

> <CNNaffinity_variance>
0.0851786360

$$$$
[H]OC(=O)[C@@]([H])(N([H])C(=O)[C@@]([H])(N([H])[H])C([H])([H])C([H])([H])SC([H])([H])[H])C([H])([H])c1c([H])c([H])c(-c2c([H])c([H])c([H])c([H])c2[H])c([H])c1[H]


 30 31  0  0  0  0  0  0  0  0999 V2000
   36.9372   14.3656  -13.1132 C   0  0  0  0  0  0  0  0  0  0  0  0
   34.9663   12.8235  -13.3572 C   0  0  0  0  0  0  0  0  0  0  0  0
   35.5047   11.9309  -12.6158 O   0  0  0  0  0  0  0  0  0  0  0  0
   35.6058   14.0382  -13.6454 N   0  0  0  0  0  0  0  0  0  0  0  0
   35.1541   14.7423  -14.2451 H   0  0  0  0  0  0  0  0  0  0  0  0
   33.6084   12.5633  -13.9364 C   0  0  0  0  0  0  0  0  0  0  0  0
   33.2079   13.7013  -14.6893 N   0  0  0  0  0  0  0  0  0  0  0  0
   33.8636   13.8470  -15.4794 H   0  0  0  0  0  0  0  0  0  0  0  0
   33.1380   14.5572  -14.1310 H   0  0  0  0  0  0  0  0  0  0  0  0
   33.6983   11.3428  -14.7645 C   0  0  0  0  0  0  0  0  0  0  0  0
   33.8735   11.4011  -16.2162 C   0  0  0  0  0  0  0  0  0  0  0  0
   36.8889   11.7241  -16.4430 C   0  0  0  0  0  0  0  0  0  0  0  0
   35.3914   10.9551  -16.9881 S   0  0  0  0  0  0  0  0  0  0  0  0
   36.7688   15.3497  -12.0334 C   0  0  0  0  0  0  0  0  0  0  0  0
   36.1768   16.5962  -12.1658 O   0  0  0  0  0  0  0  0  0  0  0  0
   37.1871   15.0718  -10.8760 O   0  0  0  0  0  0  0  0  0  0  0  0
   35.6549   17.0315  -11.4113 H   0  0  0  0  0  0  0  0  0  0  0  0
   37.7296   14.8343  -14.2899 C   0  0  0  0  0  0  0  0  0  0  0  0
   39.1605   14.4917  -14.2619 C   0  0  0  0  0  0  0  0  0  0  0  0
   39.6651   13.5676  -15.1694 C   0  0  0  0  0  0  0  0  0  0  0  0
   40.9900   13.2082  -15.2154 C   0  0  0  0  0  0  0  0  0  0  0  0
   41.8867   13.7908  -14.3130 C   0  0  0  0  0  0  0  0  0  0  0  0
   41.3870   14.6952  -13.4263 C   0  0  0  0  0  0  0  0  0  0  0  0
   40.0383   15.0527  -13.3890 C   0  0  0  0  0  0  0  0  0  0  0  0
   43.2798   13.4165  -14.3561 C   0  0  0  0  0  0  0  0  0  0  0  0
   43.8640   13.0269  -15.5510 C   0  0  0  0  0  0  0  0  0  0  0  0
   45.2042   12.6689  -15.5924 C   0  0  0  0  0  0  0  0  0  0  0  0
   45.9916   12.6889  -14.4555 C   0  0  0  0  0  0  0  0  0  0  0  0
   45.3862   13.0811  -13.2754 C   0  0  0  0  0  0  0  0  0  0  0  0
   44.0693   13.4326  -13.2364 C   0  0  0  0  0  0  0  0  0  0  0  0
 12 13  1  0  0  0
 13 11  1  0  0  0
 11 10  1  0  0  0
 10  6  1  0  0  0
  6  7  1  0  0  0
  6  2  1  0  0  0
  2  3  2  0  0  0
  2  4  1  0  0  0
  4  1  1  0  0  0
  1 18  1  0  0  0
 18 19  1  0  0  0
 19 20  2  0  0  0
 20 21  1  0  0  0
 21 22  2  0  0  0
 22 23  1  0  0  0
 23 24  2  0  0  0
 22 25  1  0  0  0
 25 26  2  0  0  0
 26 27  1  0  0  0
 27 28  2  0  0  0
 28 29  1  0  0  0
 29 30  2  0  0  0
  1 14  1  0  0  0
 14 15  1  0  0  0
 14 16  2  0  0  0
 24 19  1  0  0  0
 30 25  1  0  0  0
  7  8  1  0  0  0
  7  9  1  0  0  0
  4  5  1  0  0  0
 15 17  1  0  0  0
M  END
> <minimizedAffinity>
-7.17308

> <CNNscore>
0.3622121513

> <CNNaffinity>
5.9431190491

> <CNN_VS>
2.1526699066

> <CNNaffinity_variance>
0.1413669884

$$$$
[H]OC(=O)[C@@]([H])(N([H])C(=O)[C@@]([H])(N([H])[H])C([H])([H])C([H])([H])SC([H])([H])[H])C([H])([H])c1c([H])c([H])c(-c2c([H])c([H])c([H])c([H])c2[H])c([H])c1[H]


 30 31  0  0  0  0  0  0  0  0999 V2000
   37.2010   14.0153  -12.3586 C   0  0  0  0  0  0  0  0  0  0  0  0
   35.2965   13.4836  -13.9118 C   0  0  0  0  0  0  0  0  0  0  0  0
   36.0717   12.9115  -14.7532 O   0  0  0  0  0  0  0  0  0  0  0  0
   35.7756   14.0467  -12.7197 N   0  0  0  0  0  0  0  0  0  0  0  0
   35.1337   14.5029  -12.0570 H   0  0  0  0  0  0  0  0  0  0  0  0
   33.8289   13.5545  -14.2089 C   0  0  0  0  0  0  0  0  0  0  0  0
   33.4406   12.3606  -14.8770 N   0  0  0  0  0  0  0  0  0  0  0  0
   33.5960   11.5451  -14.2555 H   0  0  0  0  0  0  0  0  0  0  0  0
   33.9218   12.2163  -15.7696 H   0  0  0  0  0  0  0  0  0  0  0  0
   33.1182   13.7396  -12.9268 C   0  0  0  0  0  0  0  0  0  0  0  0
   32.8636   15.0668  -12.3651 C   0  0  0  0  0  0  0  0  0  0  0  0
   29.9206   14.6872  -11.6995 C   0  0  0  0  0  0  0  0  0  0  0  0
   31.4991   15.3784  -11.2975 S   0  0  0  0  0  0  0  0  0  0  0  0
   37.3212   14.3790  -10.9388 C   0  0  0  0  0  0  0  0  0  0  0  0
   38.4757   14.8315  -10.3190 O   0  0  0  0  0  0  0  0  0  0  0  0
   36.3100   14.2827  -10.1905 O   0  0  0  0  0  0  0  0  0  0  0  0
   38.4541   15.4936   -9.5494 H   0  0  0  0  0  0  0  0  0  0  0  0
   37.8728   14.9436  -13.3174 C   0  0  0  0  0  0  0  0  0  0  0  0
   39.1505   14.4636  -13.8677 C   0  0  0  0  0  0  0  0  0  0  0  0
   40.3472   14.9068  -13.3169 C   0  0  0  0  0  0  0  0  0  0  0  0
   41.5778   14.4930  -13.7652 C   0  0  0  0  0  0  0  0  0  0  0  0
   41.6470   13.5827  -14.8257 C   0  0  0  0  0  0  0  0  0  0  0  0
   40.4716   13.1521  -15.3614 C   0  0  0  0  0  0  0  0  0  0  0  0
   39.2267   13.5797  -14.8973 C   0  0  0  0  0  0  0  0  0  0  0  0
   42.9371   13.1449  -15.3014 C   0  0  0  0  0  0  0  0  0  0  0  0
   43.0372   12.3847  -16.4559 C   0  0  0  0  0  0  0  0  0  0  0  0
   44.2783   11.9655  -16.9140 C   0  0  0  0  0  0  0  0  0  0  0  0
   45.4426   12.2888  -16.2411 C   0  0  0  0  0  0  0  0  0  0  0  0
   45.3170   13.0481  -15.0919 C   0  0  0  0  0  0  0  0  0  0  0  0
   44.0969   13.4593  -14.6430 C   0  0  0  0  0  0  0  0  0  0  0  0
 12 13  1  0  0  0
 13 11  1  0  0  0
 11 10  1  0  0  0
 10  6  1  0  0  0
  6  7  1  0  0  0
  6  2  1  0  0  0
  2  3  2  0  0  0
  2  4  1  0  0  0
  4  1  1  0  0  0
  1 18  1  0  0  0
 18 19  1  0  0  0
 19 20  2  0  0  0
 20 21  1  0  0  0
 21 22  2  0  0  0
 22 23  1  0  0  0
 23 24  2  0  0  0
 22 25  1  0  0  0
 25 26  2  0  0  0
 26 27  1  0  0  0
 27 28  2  0  0  0
 28 29  1  0  0  0
 29 30  2  0  0  0
  1 14  1  0  0  0
 14 15  1  0  0  0
 14 16  2  0  0  0
 24 19  1  0  0  0
 30 25  1  0  0  0
  7  8  1  0  0  0
  7  9  1  0  0  0
  4  5  1  0  0  0
 15 17  1  0  0  0
M  END
> <minimizedAffinity>
-7.04578

> <CNNscore>
0.3335833848

> <CNNaffinity>
5.6862106323

> <CNN_VS>
1.8968254328

> <CNNaffinity_variance>
0.0381719731

$$$$
[H]OC(=O)[C@@]([H])(N([H])C(=O)[C@@]([H])(N([H])[H])C([H])([H])C([H])([H])SC([H])([H])[H])C([H])([H])c1c([H])c([H])c(-c2c([H])c([H])c([H])c([H])c2[H])c([H])c1[H]


 30 31  0  0  0  0  0  0  0  0999 V2000
   36.1822   14.5127  -11.1928 C   0  0  0  0  0  0  0  0  0  0  0  0
   35.4425   14.8207   -8.8094 C   0  0  0  0  0  0  0  0  0  0  0  0
   36.5352   14.3387   -8.3515 O   0  0  0  0  0  0  0  0  0  0  0  0
   35.1977   14.9369  -10.1858 N   0  0  0  0  0  0  0  0  0  0  0  0
   34.3107   15.3273  -10.5322 H   0  0  0  0  0  0  0  0  0  0  0  0
   34.3897   15.2765   -7.8445 C   0  0  0  0  0  0  0  0  0  0  0  0
   34.9293   16.3162   -7.0382 N   0  0  0  0  0  0  0  0  0  0  0  0
   35.1810   17.1267   -7.6341 H   0  0  0  0  0  0  0  0  0  0  0  0
   35.7399   16.0251   -6.4838 H   0  0  0  0  0  0  0  0  0  0  0  0
   33.2207   15.7220   -8.6307 C   0  0  0  0  0  0  0  0  0  0  0  0
   31.8870   15.1546   -8.4278 C   0  0  0  0  0  0  0  0  0  0  0  0
   29.0467   14.6159   -9.3716 C   0  0  0  0  0  0  0  0  0  0  0  0
   30.7334   14.9960   -9.7479 S   0  0  0  0  0  0  0  0  0  0  0  0
   36.8764   15.7111  -11.6869 C   0  0  0  0  0  0  0  0  0  0  0  0
   38.2358   15.8060  -11.9416 O   0  0  0  0  0  0  0  0  0  0  0  0
   36.2121   16.7607  -11.9078 O   0  0  0  0  0  0  0  0  0  0  0  0
   38.6095   16.3961  -12.6786 H   0  0  0  0  0  0  0  0  0  0  0  0
   35.4001   13.7567  -12.2170 C   0  0  0  0  0  0  0  0  0  0  0  0
   36.1853   13.2250  -13.3424 C   0  0  0  0  0  0  0  0  0  0  0  0
   35.6985   13.3443  -14.6389 C   0  0  0  0  0  0  0  0  0  0  0  0
   36.3794   12.8874  -15.7407 C   0  0  0  0  0  0  0  0  0  0  0  0
   37.6231   12.2703  -15.5666 C   0  0  0  0  0  0  0  0  0  0  0  0
   38.0951   12.1559  -14.2946 C   0  0  0  0  0  0  0  0  0  0  0  0
   37.3939   12.6244  -13.1824 C   0  0  0  0  0  0  0  0  0  0  0  0
   38.3429   11.7875  -16.7205 C   0  0  0  0  0  0  0  0  0  0  0  0
   39.6914   12.0686  -16.8733 C   0  0  0  0  0  0  0  0  0  0  0  0
   40.3835   11.6026  -17.9822 C   0  0  0  0  0  0  0  0  0  0  0  0
   39.7574   10.8511  -18.9600 C   0  0  0  0  0  0  0  0  0  0  0  0
   38.4117   10.5837  -18.7853 C   0  0  0  0  0  0  0  0  0  0  0  0
   37.7330   11.0422  -17.6952 C   0  0  0  0  0  0  0  0  0  0  0  0
 12 13  1  0  0  0
 13 11  1  0  0  0
 11 10  1  0  0  0
 10  6  1  0  0  0
  6  7  1  0  0  0
  6  2  1  0  0  0
  2  3  2  0  0  0
  2  4  1  0  0  0
  4  1  1  0  0  0
  1 18  1  0  0  0
 18 19  1  0  0  0
 19 20  2  0  0  0
 20 21  1  0  0  0
 21 22  2  0  0  0
 22 23  1  0  0  0
 23 24  2  0  0  0
 22 25  1  0  0  0
 25 26  2  0  0  0
 26 27  1  0  0  0
 27 28  2  0  0  0
 28 29  1  0  0  0
 29 30  2  0  0  0
  1 14  1  0  0  0
 14 15  1  0  0  0
 14 16  2  0  0  0
 24 19  1  0  0  0
 30 25  1  0  0  0
  7  8  1  0  0  0
  7  9  1  0  0  0
  4  5  1  0  0  0
 15 17  1  0  0  0
M  END
> <minimizedAffinity>
-7.59268

> <CNNscore>
0.2629528642

> <CNNaffinity>
5.4100890160

> <CNN_VS>
1.4225983620

> <CNNaffinity_variance>
0.2888164818

$$$$
[H]OC(=O)[C@@]([H])(N([H])C(=O)[C@@]([H])(N([H])[H])C([H])([H])C([H])([H])SC([H])([H])[H])C([H])([H])c1c([H])c([H])c(-c2c([H])c([H])c([H])c([H])c2[H])c([H])c1[H]


 30 31  0  0  0  0  0  0  0  0999 V2000
   36.9120   14.0805  -11.7039 C   0  0  0  0  0  0  0  0  0  0  0  0
   34.5469   14.2150  -12.5469 C   0  0  0  0  0  0  0  0  0  0  0  0
   34.4981   15.4806  -12.3677 O   0  0  0  0  0  0  0  0  0  0  0  0
   35.6919   13.4630  -12.2452 N   0  0  0  0  0  0  0  0  0  0  0  0
   35.7089   12.4451  -12.3968 H   0  0  0  0  0  0  0  0  0  0  0  0
   33.3420   13.5130  -13.0970 C   0  0  0  0  0  0  0  0  0  0  0  0
   32.1880   14.2914  -12.8058 N   0  0  0  0  0  0  0  0  0  0  0  0
   32.2580   15.2119  -13.2782 H   0  0  0  0  0  0  0  0  0  0  0  0
   32.0269   14.4246  -11.8030 H   0  0  0  0  0  0  0  0  0  0  0  0
   33.5492   13.3337  -14.5490 C   0  0  0  0  0  0  0  0  0  0  0  0
   33.9941   12.0610  -15.1182 C   0  0  0  0  0  0  0  0  0  0  0  0
   35.8618   11.2387  -17.3729 C   0  0  0  0  0  0  0  0  0  0  0  0
   35.6317   11.8349  -15.7229 S   0  0  0  0  0  0  0  0  0  0  0  0
   36.5602   14.7675  -10.4522 C   0  0  0  0  0  0  0  0  0  0  0  0
   35.8028   14.2285   -9.4238 O   0  0  0  0  0  0  0  0  0  0  0  0
   36.9625   15.9483  -10.2635 O   0  0  0  0  0  0  0  0  0  0  0  0
   35.9586   14.4719   -8.4505 H   0  0  0  0  0  0  0  0  0  0  0  0
   37.4278   14.9609  -12.7953 C   0  0  0  0  0  0  0  0  0  0  0  0
   38.6721   14.5058  -13.4359 C   0  0  0  0  0  0  0  0  0  0  0  0
   39.8833   15.0855  -13.0766 C   0  0  0  0  0  0  0  0  0  0  0  0
   41.0868   14.7046  -13.6179 C   0  0  0  0  0  0  0  0  0  0  0  0
   41.1117   13.6865  -14.5776 C   0  0  0  0  0  0  0  0  0  0  0  0
   39.9223   13.1224  -14.9258 C   0  0  0  0  0  0  0  0  0  0  0  0
   38.7053   13.5178  -14.3686 C   0  0  0  0  0  0  0  0  0  0  0  0
   42.3731   13.2825  -15.1503 C   0  0  0  0  0  0  0  0  0  0  0  0
   43.5664   13.6942  -14.5782 C   0  0  0  0  0  0  0  0  0  0  0  0
   44.7792   13.3039  -15.1283 C   0  0  0  0  0  0  0  0  0  0  0  0
   44.8362   12.5006  -16.2526 C   0  0  0  0  0  0  0  0  0  0  0  0
   43.6324   12.1026  -16.8054 C   0  0  0  0  0  0  0  0  0  0  0  0
   42.4415   12.4869  -16.2638 C   0  0  0  0  0  0  0  0  0  0  0  0
 12 13  1  0  0  0
 13 11  1  0  0  0
 11 10  1  0  0  0
 10  6  1  0  0  0
  6  7  1  0  0  0
  6  2  1  0  0  0
  2  3  2  0  0  0
  2  4  1  0  0  0
  4  1  1  0  0  0
  1 18  1  0  0  0
 18 19  1  0  0  0
 19 20  2  0  0  0
 20 21  1  0  0  0
 21 22  2  0  0  0
 22 23  1  0  0  0
 23 24  2  0  0  0
 22 25  1  0  0  0
 25 26  2  0  0  0
 26 27  1  0  0  0
 27 28  2  0  0  0
 28 29  1  0  0  0
 29 30  2  0  0  0
  1 14  1  0  0  0
 14 15  1  0  0  0
 14 16  2  0  0  0
 24 19  1  0  0  0
 30 25  1  0  0  0
  7  8  1  0  0  0
  7  9  1  0  0  0
  4  5  1  0  0  0
 15 17  1  0  0  0
M  END
> <minimizedAffinity>
-7.38339

> <CNNscore>
0.2556950152

> <CNNaffinity>
5.8571348190

> <CNN_VS>
1.4976401329

> <CNNaffinity_variance>
0.2535131574

$$$$
[H]OC(=O)[C@@]([H])(N([H])C(=O)[C@@]([H])(N([H])[H])C([H])([H])C([H])([H])SC([H])([H])[H])C([H])([H])c1c([H])c([H])c(-c2c([H])c([H])c([H])c([H])c2[H])c([H])c1[H]


 30 31  0  0  0  0  0  0  0  0999 V2000
   34.7554   14.4880  -12.3857 C   0  0  0  0  0  0  0  0  0  0  0  0
   35.7070   16.1962  -10.8049 C   0  0  0  0  0  0  0  0  0  0  0  0
   36.1778   16.9000  -11.7637 O   0  0  0  0  0  0  0  0  0  0  0  0
   35.0012   15.0053  -11.0310 N   0  0  0  0  0  0  0  0  0  0  0  0
   34.6315   14.4543  -10.2442 H   0  0  0  0  0  0  0  0  0  0  0  0
   35.9160   16.6590   -9.3945 C   0  0  0  0  0  0  0  0  0  0  0  0
   35.9915   15.5196   -8.5470 N   0  0  0  0  0  0  0  0  0  0  0  0
   36.8097   14.9399   -8.8116 H   0  0  0  0  0  0  0  0  0  0  0  0
   35.1416   14.9480   -8.5534 H   0  0  0  0  0  0  0  0  0  0  0  0
   37.1527   17.4670   -9.3642 C   0  0  0  0  0  0  0  0  0  0  0  0
   37.4473   18.3944   -8.2711 C   0  0  0  0  0  0  0  0  0  0  0  0
   36.9501   21.2784   -7.4445 C   0  0  0  0  0  0  0  0  0  0  0  0
   37.6921   20.1148   -8.5519 S   0  0  0  0  0  0  0  0  0  0  0  0
   33.3100   14.5595  -12.6472 C   0  0  0  0  0  0  0  0  0  0  0  0
   32.6285   13.8257  -13.6057 O   0  0  0  0  0  0  0  0  0  0  0  0
   32.5982   15.3444  -11.9625 O   0  0  0  0  0  0  0  0  0  0  0  0
   31.6689   13.5209  -13.4743 H   0  0  0  0  0  0  0  0  0  0  0  0
   35.3419   13.1139  -12.3972 C   0  0  0  0  0  0  0  0  0  0  0  0
   36.1197   12.7716  -13.5987 C   0  0  0  0  0  0  0  0  0  0  0  0
   37.4561   12.4103  -13.4739 C   0  0  0  0  0  0  0  0  0  0  0  0
   38.2423   12.0631  -14.5453 C   0  0  0  0  0  0  0  0  0  0  0  0
   37.6866   12.0685  -15.8295 C   0  0  0  0  0  0  0  0  0  0  0  0
   36.3772   12.4233  -15.9458 C   0  0  0  0  0  0  0  0  0  0  0  0
   35.5880   12.7741  -14.8494 C   0  0  0  0  0  0  0  0  0  0  0  0
   38.5080   11.7053  -16.9591 C   0  0  0  0  0  0  0  0  0  0  0  0
   39.8432   12.0742  -17.0020 C   0  0  0  0  0  0  0  0  0  0  0  0
   40.6331   11.7230  -18.0877 C   0  0  0  0  0  0  0  0  0  0  0  0
   40.1196   11.0018  -19.1502 C   0  0  0  0  0  0  0  0  0  0  0  0
   38.7849   10.6452  -19.0844 C   0  0  0  0  0  0  0  0  0  0  0  0
   38.0100   10.9909  -18.0170 C   0  0  0  0  0  0  0  0  0  0  0  0
 12 13  1  0  0  0
 13 11  1  0  0  0
 11 10  1  0  0  0
 10  6  1  0  0  0
  6  7  1  0  0  0
  6  2  1  0  0  0
  2  3  2  0  0  0
  2  4  1  0  0  0
  4  1  1  0  0  0
  1 18  1  0  0  0
 18 19  1  0  0  0
 19 20  2  0  0  0
 20 21  1  0  0  0
 21 22  2  0  0  0
 22 23  1  0  0  0
 23 24  2  0  0  0
 22 25  1  0  0  0
 25 26  2  0  0  0
 26 27  1  0  0  0
 27 28  2  0  0  0
 28 29  1  0  0  0
 29 30  2  0  0  0
  1 14  1  0  0  0
 14 15  1  0  0  0
 14 16  2  0  0  0
 24 19  1  0  0  0
 30 25  1  0  0  0
  7  8  1  0  0  0
  7  9  1  0  0  0
  4  5  1  0  0  0
 15 17  1  0  0  0
M  END
> <minimizedAffinity>
-8.09906

> <CNNscore>
0.2543064952

> <CNNaffinity>
5.1653490067

> <CNN_VS>
1.3135818243

> <CNNaffinity_variance>
0.2986876369

$$$$
[H]OC(=O)[C@@]([H])(N([H])C(=O)[C@@]([H])(N([H])[H])C([H])([H])C([H])([H])SC([H])([H])[H])C([H])([H])c1c([H])c([H])c(-c2c([H])c([H])c([H])c([H])c2[H])c([H])c1[H]


 30 31  0  0  0  0  0  0  0  0999 V2000
   34.6279   14.4918  -12.5317 C   0  0  0  0  0  0  0  0  0  0  0  0
   36.2859   15.9426  -11.3198 C   0  0  0  0  0  0  0  0  0  0  0  0
   37.0336   16.0437  -12.3527 O   0  0  0  0  0  0  0  0  0  0  0  0
   35.0952   15.2010  -11.3310 N   0  0  0  0  0  0  0  0  0  0  0  0
   34.5090   15.1326  -10.4878 H   0  0  0  0  0  0  0  0  0  0  0  0
   36.6949   16.6389  -10.0569 C   0  0  0  0  0  0  0  0  0  0  0  0
   37.0741   17.9724  -10.3736 N   0  0  0  0  0  0  0  0  0  0  0  0
   36.2614   18.4840  -10.7651 H   0  0  0  0  0  0  0  0  0  0  0  0
   37.8671   18.0298  -11.0193 H   0  0  0  0  0  0  0  0  0  0  0  0
   35.5517   16.5849   -9.1223 C   0  0  0  0  0  0  0  0  0  0  0  0
   35.6402   15.9115   -7.8260 C   0  0  0  0  0  0  0  0  0  0  0  0
   36.4176   13.4691   -6.1893 C   0  0  0  0  0  0  0  0  0  0  0  0
   36.7213   14.5483   -7.5583 S   0  0  0  0  0  0  0  0  0  0  0  0
   33.1583   14.5420  -12.5496 C   0  0  0  0  0  0  0  0  0  0  0  0
   32.3395   13.8349  -13.4164 O   0  0  0  0  0  0  0  0  0  0  0  0
   32.5571   15.2806  -11.7222 O   0  0  0  0  0  0  0  0  0  0  0  0
   31.4193   13.5034  -13.1438 H   0  0  0  0  0  0  0  0  0  0  0  0
   35.2216   13.1238  -12.4396 C   0  0  0  0  0  0  0  0  0  0  0  0
   36.1036   12.7441  -13.5548 C   0  0  0  0  0  0  0  0  0  0  0  0
   35.5571   12.4764  -14.8045 C   0  0  0  0  0  0  0  0  0  0  0  0
   36.3155   12.1313  -15.8964 C   0  0  0  0  0  0  0  0  0  0  0  0
   37.7052   12.0406  -15.7607 C   0  0  0  0  0  0  0  0  0  0  0  0
   38.2351   12.3036  -14.5343 C   0  0  0  0  0  0  0  0  0  0  0  0
   37.4541   12.6536  -13.4318 C   0  0  0  0  0  0  0  0  0  0  0  0
   38.5072   11.6778  -16.9043 C   0  0  0  0  0  0  0  0  0  0  0  0
   37.9458   10.9765  -17.9597 C   0  0  0  0  0  0  0  0  0  0  0  0
   38.7170   10.6294  -19.0600 C   0  0  0  0  0  0  0  0  0  0  0  0
   40.0557   10.9681  -19.1385 C   0  0  0  0  0  0  0  0  0  0  0  0
   40.5930   11.6677  -18.0732 C   0  0  0  0  0  0  0  0  0  0  0  0
   39.8341   12.0080  -16.9928 C   0  0  0  0  0  0  0  0  0  0  0  0
 12 13  1  0  0  0
 13 11  1  0  0  0
 11 10  1  0  0  0
 10  6  1  0  0  0
  6  7  1  0  0  0
  6  2  1  0  0  0
  2  3  2  0  0  0
  2  4  1  0  0  0
  4  1  1  0  0  0
  1 18  1  0  0  0
 18 19  1  0  0  0
 19 20  2  0  0  0
 20 21  1  0  0  0
 21 22  2  0  0  0
 22 23  1  0  0  0
 23 24  2  0  0  0
 22 25  1  0  0  0
 25 26  2  0  0  0
 26 27  1  0  0  0
 27 28  2  0  0  0
 28 29  1  0  0  0
 29 30  2  0  0  0
  1 14  1  0  0  0
 14 15  1  0  0  0
 14 16  2  0  0  0
 24 19  1  0  0  0
 30 25  1  0  0  0
  7  8  1  0  0  0
  7  9  1  0  0  0
  4  5  1  0  0  0
 15 17  1  0  0  0
M  END
> <minimizedAffinity>
-8.06804

> <CNNscore>
0.2349046767

> <CNNaffinity>
5.3234515190

> <CNN_VS>
1.2505036592

> <CNNaffinity_variance>
0.4070579112

$$$$
[H]OC(=O)[C@@]([H])(N([H])C(=O)[C@@]([H])(N([H])[H])C([H])([H])C([H])([H])SC([H])([H])[H])C([H])([H])c1c([H])c([H])c(-c2c([H])c([H])c([H])c([H])c2[H])c([H])c1[H]


 30 31  0  0  0  0  0  0  0  0999 V2000
   36.0971   13.9178  -14.3893 C   0  0  0  0  0  0  0  0  0  0  0  0
   34.5674   14.6539  -12.5345 C   0  0  0  0  0  0  0  0  0  0  0  0
   35.4125   14.3222  -11.6333 O   0  0  0  0  0  0  0  0  0  0  0  0
   34.8311   14.4857  -13.9019 N   0  0  0  0  0  0  0  0  0  0  0  0
   34.1360   14.7591  -14.6101 H   0  0  0  0  0  0  0  0  0  0  0  0
   33.2533   15.2413  -12.1159 C   0  0  0  0  0  0  0  0  0  0  0  0
   32.2326   14.2746  -12.3304 N   0  0  0  0  0  0  0  0  0  0  0  0
   32.4078   13.4425  -11.7367 H   0  0  0  0  0  0  0  0  0  0  0  0
   32.1371   13.9910  -13.3100 H   0  0  0  0  0  0  0  0  0  0  0  0
   33.3676   15.6348  -10.6963 C   0  0  0  0  0  0  0  0  0  0  0  0
   32.1989   15.7282   -9.8204 C   0  0  0  0  0  0  0  0  0  0  0  0
   30.8292   16.6561   -7.2687 C   0  0  0  0  0  0  0  0  0  0  0  0
   32.3162   16.3475   -8.1768 S   0  0  0  0  0  0  0  0  0  0  0  0
   36.1266   12.4918  -14.0313 C   0  0  0  0  0  0  0  0  0  0  0  0
   36.5521   11.9756  -12.8171 O   0  0  0  0  0  0  0  0  0  0  0  0
   35.7410   11.6367  -14.8750 O   0  0  0  0  0  0  0  0  0  0  0  0
   36.1492   11.1352  -12.4141 H   0  0  0  0  0  0  0  0  0  0  0  0
   37.1699   14.7557  -13.7736 C   0  0  0  0  0  0  0  0  0  0  0  0
   38.5472   14.3666  -14.1162 C   0  0  0  0  0  0  0  0  0  0  0  0
   38.7738   13.5031  -15.1817 C   0  0  0  0  0  0  0  0  0  0  0  0
   40.0297   13.1064  -15.5715 C   0  0  0  0  0  0  0  0  0  0  0  0
   41.1438   13.5853  -14.8734 C   0  0  0  0  0  0  0  0  0  0  0  0
   40.9160   14.4307  -13.8306 C   0  0  0  0  0  0  0  0  0  0  0  0
   39.6348   14.8269  -13.4437 C   0  0  0  0  0  0  0  0  0  0  0  0
   42.4658   13.1716  -15.2780 C   0  0  0  0  0  0  0  0  0  0  0  0
   42.6382   12.3737  -16.3980 C   0  0  0  0  0  0  0  0  0  0  0  0
   43.9099   11.9776  -16.7878 C   0  0  0  0  0  0  0  0  0  0  0  0
   45.0339   12.3616  -16.0793 C   0  0  0  0  0  0  0  0  0  0  0  0
   44.8364   13.1576  -14.9656 C   0  0  0  0  0  0  0  0  0  0  0  0
   43.5863   13.5460  -14.5839 C   0  0  0  0  0  0  0  0  0  0  0  0
 12 13  1  0  0  0
 13 11  1  0  0  0
 11 10  1  0  0  0
 10  6  1  0  0  0
  6  7  1  0  0  0
  6  2  1  0  0  0
  2  3  2  0  0  0
  2  4  1  0  0  0
  4  1  1  0  0  0
  1 18  1  0  0  0
 18 19  1  0  0  0
 19 20  2  0  0  0
 20 21  1  0  0  0
 21 22  2  0  0  0
 22 23  1  0  0  0
 23 24  2  0  0  0
 22 25  1  0  0  0
 25 26  2  0  0  0
 26 27  1  0  0  0
 27 28  2  0  0  0
 28 29  1  0  0  0
 29 30  2  0  0  0
  1 14  1  0  0  0
 14 15  1  0  0  0
 14 16  2  0  0  0
 24 19  1  0  0  0
 30 25  1  0  0  0
  7  8  1  0  0  0
  7  9  1  0  0  0
  4  5  1  0  0  0
 15 17  1  0  0  0
M  END
> <minimizedAffinity>
-6.93705

> <CNNscore>
0.2263433486

> <CNNaffinity>
5.3741240501

> <CNN_VS>
1.2163972855

> <CNNaffinity_variance>
0.2739155591

$$$$
[H]OC(=O)[C@@]([H])(N([H])C(=O)[C@@]([H])(N([H])[H])C([H])([H])C([H])([H])SC([H])([H])[H])C([H])([H])c1c([H])c([H])c(-c2c([H])c([H])c([H])c([H])c2[H])c([H])c1[H]


 30 31  0  0  0  0  0  0  0  0999 V2000
   35.9119   14.8786   -9.4873 C   0  0  0  0  0  0  0  0  0  0  0  0
   34.2497   16.2056   -8.1463 C   0  0  0  0  0  0  0  0  0  0  0  0
   34.9276   17.2831   -8.2718 O   0  0  0  0  0  0  0  0  0  0  0  0
   34.6673   14.9918   -8.7119 N   0  0  0  0  0  0  0  0  0  0  0  0
   34.1063   14.1365   -8.5978 H   0  0  0  0  0  0  0  0  0  0  0  0
   32.9677   16.2411   -7.3702 C   0  0  0  0  0  0  0  0  0  0  0  0
   32.1034   17.2036   -7.9608 N   0  0  0  0  0  0  0  0  0  0  0  0
   31.8748   16.9200   -8.9317 H   0  0  0  0  0  0  0  0  0  0  0  0
   32.4851   18.1542   -7.9551 H   0  0  0  0  0  0  0  0  0  0  0  0
   32.3922   14.8803   -7.3886 C   0  0  0  0  0  0  0  0  0  0  0  0
   31.1388   14.5771   -8.0805 C   0  0  0  0  0  0  0  0  0  0  0  0
   28.7431   12.7321   -7.7564 C   0  0  0  0  0  0  0  0  0  0  0  0
   29.6785   14.1294   -7.2055 S   0  0  0  0  0  0  0  0  0  0  0  0
   36.9965   15.4876   -8.7028 C   0  0  0  0  0  0  0  0  0  0  0  0
   37.2197   15.2895   -7.3491 O   0  0  0  0  0  0  0  0  0  0  0  0
   37.8111   16.2622   -9.2757 O   0  0  0  0  0  0  0  0  0  0  0  0
   38.1518   15.2961   -6.9465 H   0  0  0  0  0  0  0  0  0  0  0  0
   35.6226   15.5343  -10.7983 C   0  0  0  0  0  0  0  0  0  0  0  0
   35.9265   14.7235  -11.9882 C   0  0  0  0  0  0  0  0  0  0  0  0
   37.2328   14.3124  -12.2260 C   0  0  0  0  0  0  0  0  0  0  0  0
   37.5920   13.5421  -13.3050 C   0  0  0  0  0  0  0  0  0  0  0  0
   36.6081   13.1443  -14.2170 C   0  0  0  0  0  0  0  0  0  0  0  0
   35.3303   13.5500  -13.9793 C   0  0  0  0  0  0  0  0  0  0  0  0
   34.9772   14.3327  -12.8790 C   0  0  0  0  0  0  0  0  0  0  0  0
   36.9797   12.3355  -15.3530 C   0  0  0  0  0  0  0  0  0  0  0  0
   38.3145   12.1617  -15.6829 C   0  0  0  0  0  0  0  0  0  0  0  0
   38.6713   11.3823  -16.7743 C   0  0  0  0  0  0  0  0  0  0  0  0
   37.7174   10.7606  -17.5595 C   0  0  0  0  0  0  0  0  0  0  0  0
   36.3924   10.9489  -17.2103 C   0  0  0  0  0  0  0  0  0  0  0  0
   36.0434   11.7149  -16.1377 C   0  0  0  0  0  0  0  0  0  0  0  0
 12 13  1  0  0  0
 13 11  1  0  0  0
 11 10  1  0  0  0
 10  6  1  0  0  0
  6  7  1  0  0  0
  6  2  1  0  0  0
  2  3  2  0  0  0
  2  4  1  0  0  0
  4  1  1  0  0  0
  1 18  1  0  0  0
 18 19  1  0  0  0
 19 20  2  0  0  0
 20 21  1  0  0  0
 21 22  2  0  0  0
 22 23  1  0  0  0
 23 24  2  0  0  0
 22 25  1  0  0  0
 25 26  2  0  0  0
 26 27  1  0  0  0
 27 28  2  0  0  0
 28 29  1  0  0  0
 29 30  2  0  0  0
  1 14  1  0  0  0
 14 15  1  0  0  0
 14 16  2  0  0  0
 24 19  1  0  0  0
 30 25  1  0  0  0
  7  8  1  0  0  0
  7  9  1  0  0  0
  4  5  1  0  0  0
 15 17  1  0  0  0
M  END
> <minimizedAffinity>
-6.76981

> <CNNscore>
0.2152252942

> <CNNaffinity>
5.0144243240

> <CNN_VS>
1.0792309046

> <CNNaffinity_variance>
0.4525694847

$$$$
[H]OC(=O)[C@@]([H])(N([H])C(=O)[C@@]([H])(N([H])[H])C([H])([H])C([H])([H])SC([H])([H])[H])C([H])([H])c1c([H])c([H])c(-c2c([H])c([H])c([H])c([H])c2[H])c([H])c1[H]


 30 31  0  0  0  0  0  0  0  0999 V2000
   38.4100   16.2135  -11.0131 C   0  0  0  0  0  0  0  0  0  0  0  0
   40.8970   16.2720  -11.3788 C   0  0  0  0  0  0  0  0  0  0  0  0
   40.7717   16.8687  -12.5033 O   0  0  0  0  0  0  0  0  0  0  0  0
   39.7889   15.9194  -10.5943 N   0  0  0  0  0  0  0  0  0  0  0  0
   39.9129   15.4390   -9.6926 H   0  0  0  0  0  0  0  0  0  0  0  0
   42.2720   15.9391  -10.8831 C   0  0  0  0  0  0  0  0  0  0  0  0
   42.2562   14.6235  -10.3435 N   0  0  0  0  0  0  0  0  0  0  0  0
   42.0175   13.9423  -11.0881 H   0  0  0  0  0  0  0  0  0  0  0  0
   41.6161   14.5140   -9.5513 H   0  0  0  0  0  0  0  0  0  0  0  0
   43.2050   16.0703  -12.0214 C   0  0  0  0  0  0  0  0  0  0  0  0
   44.1384   15.0039  -12.3867 C   0  0  0  0  0  0  0  0  0  0  0  0
   42.2621   13.5461  -14.2847 C   0  0  0  0  0  0  0  0  0  0  0  0
   43.9048   14.0162  -13.8249 S   0  0  0  0  0  0  0  0  0  0  0  0
   37.8971   17.3011  -10.1666 C   0  0  0  0  0  0  0  0  0  0  0  0
   37.3335   18.4812  -10.6263 O   0  0  0  0  0  0  0  0  0  0  0  0
   37.9595   17.1867   -8.9117 O   0  0  0  0  0  0  0  0  0  0  0  0
   36.5972   18.9637  -10.1203 H   0  0  0  0  0  0  0  0  0  0  0  0
   37.6777   14.9158  -10.9034 C   0  0  0  0  0  0  0  0  0  0  0  0
   37.5881   14.1365  -12.1486 C   0  0  0  0  0  0  0  0  0  0  0  0
   38.5065   14.3593  -13.1679 C   0  0  0  0  0  0  0  0  0  0  0  0
   38.4971   13.6623  -14.3514 C   0  0  0  0  0  0  0  0  0  0  0  0
   37.5236   12.6782  -14.5560 C   0  0  0  0  0  0  0  0  0  0  0  0
   36.6265   12.4643  -13.5542 C   0  0  0  0  0  0  0  0  0  0  0  0
   36.6461   13.1790  -12.3555 C   0  0  0  0  0  0  0  0  0  0  0  0
   37.5084   11.9431  -15.7977 C   0  0  0  0  0  0  0  0  0  0  0  0
   36.3059   11.5599  -16.3704 C   0  0  0  0  0  0  0  0  0  0  0  0
   36.2918   10.8546  -17.5655 C   0  0  0  0  0  0  0  0  0  0  0  0
   37.4638   10.5148  -18.2166 C   0  0  0  0  0  0  0  0  0  0  0  0
   38.6508   10.9083  -17.6256 C   0  0  0  0  0  0  0  0  0  0  0  0
   38.6631   11.6013  -16.4514 C   0  0  0  0  0  0  0  0  0  0  0  0
 12 13  1  0  0  0
 13 11  1  0  0  0
 11 10  1  0  0  0
 10  6  1  0  0  0
  6  7  1  0  0  0
  6  2  1  0  0  0
  2  3  2  0  0  0
  2  4  1  0  0  0
  4  1  1  0  0  0
  1 18  1  0  0  0
 18 19  1  0  0  0
 19 20  2  0  0  0
 20 21  1  0  0  0
 21 22  2  0  0  0
 22 23  1  0  0  0
 23 24  2  0  0  0
 22 25  1  0  0  0
 25 26  2  0  0  0
 26 27  1  0  0  0
 27 28  2  0  0  0
 28 29  1  0  0  0
 29 30  2  0  0  0
  1 14  1  0  0  0
 14 15  1  0  0  0
 14 16  2  0  0  0
 24 19  1  0  0  0
 30 25  1  0  0  0
  7  8  1  0  0  0
  7  9  1  0  0  0
  4  5  1  0  0  0
 15 17  1  0  0  0
M  END
> <minimizedAffinity>
-7.50418

> <CNNscore>
0.2036951780

> <CNNaffinity>
5.0878119469

> <CNN_VS>
1.0363627672

> <CNNaffinity_variance>
0.4211544991

$$$$
[H]c1nc([H])c([H])c(C([H])([H])OC(=O)c2c([H])c([H])c(-c3nn(C(F)(F)F)c([H])c3[H])c([H])c2[H])c1[H]


 25 27  0  0  0  0  0  0  0  0999 V2000
   36.6506   13.1117  -14.6774 C   0  0  0  0  0  0  0  0  0  0  0  0
   37.8635   13.3589  -15.3303 C   0  0  0  0  0  0  0  0  0  0  0  0
   38.8207   14.0717  -14.6266 C   0  0  0  0  0  0  0  0  0  0  0  0
   38.6203   14.5265  -13.3517 C   0  0  0  0  0  0  0  0  0  0  0  0
   37.4200   14.2653  -12.7447 C   0  0  0  0  0  0  0  0  0  0  0  0
   36.4120   13.5526  -13.3967 C   0  0  0  0  0  0  0  0  0  0  0  0
   39.6760   15.2655  -12.6866 C   0  0  0  0  0  0  0  0  0  0  0  0
   39.5878   15.8568  -11.4351 C   0  0  0  0  0  0  0  0  0  0  0  0
   40.8220   16.4341  -11.2314 C   0  0  0  0  0  0  0  0  0  0  0  0
   41.6310   16.2205  -12.2826 N   0  0  0  0  0  0  0  0  0  0  0  0
   40.9335   15.5167  -13.1533 N   0  0  0  0  0  0  0  0  0  0  0  0
   43.0215   16.6811  -12.4325 C   0  0  0  0  0  0  0  0  0  0  0  0
   43.6127   16.7877  -11.1875 F   0  0  0  0  0  0  0  0  0  0  0  0
   43.7174   15.6825  -13.1143 F   0  0  0  0  0  0  0  0  0  0  0  0
   43.0437   17.8692  -13.1166 F   0  0  0  0  0  0  0  0  0  0  0  0
   34.5200   12.1907  -14.8566 O   0  0  0  0  0  0  0  0  0  0  0  0
   35.6312   12.3575  -15.4151 C   0  0  0  0  0  0  0  0  0  0  0  0
   35.8445   11.8395  -16.6656 O   0  0  0  0  0  0  0  0  0  0  0  0
   36.5115   10.6446  -16.9459 C   0  0  0  0  0  0  0  0  0  0  0  0
   37.7588   10.7998  -17.7265 C   0  0  0  0  0  0  0  0  0  0  0  0
   38.9944   10.9959  -17.1560 C   0  0  0  0  0  0  0  0  0  0  0  0
   40.0884   11.1306  -17.9877 C   0  0  0  0  0  0  0  0  0  0  0  0
   39.9664   11.0734  -19.3411 N   0  0  0  0  0  0  0  0  0  0  0  0
   38.7676   10.8825  -19.9155 C   0  0  0  0  0  0  0  0  0  0  0  0
   37.6666   10.7457  -19.1197 C   0  0  0  0  0  0  0  0  0  0  0  0
 16 17  2  0  0  0
 17 18  1  0  0  0
 18 19  1  0  0  0
 19 20  1  0  0  0
 20 21  2  0  0  0
 21 22  1  0  0  0
 22 23  2  0  0  0
 23 24  1  0  0  0
 24 25  2  0  0  0
 17  1  1  0  0  0
  1  2  2  0  0  0
  2  3  1  0  0  0
  3  4  2  0  0  0
  4  5  1  0  0  0
  5  6  2  0  0  0
  4  7  1  0  0  0
  7  8  1  0  0  0
  8  9  2  0  0  0
  9 10  1  0  0  0
 10 11  1  0  0  0
 10 12  1  0  0  0
 12 13  1  0  0  0
 12 14  1  0  0  0
 12 15  1  0  0  0
 25 20  1  0  0  0
  6  1  1  0  0  0
 11  7  2  0  0  0
M  END
> <minimizedAffinity>
-7.00723

> <CNNscore>
0.4486715794

> <CNNaffinity>
6.1490640640

> <CNN_VS>
2.7589101791

> <CNNaffinity_variance>
0.0757415146

$$$$
[H]c1nc([H])c([H])c(C([H])([H])OC(=O)c2c([H])c([H])c(-c3nn(C(F)(F)F)c([H])c3[H])c([H])c2[H])c1[H]


 25 27  0  0  0  0  0  0  0  0999 V2000
   43.2847   13.4708  -14.9863 C   0  0  0  0  0  0  0  0  0  0  0  0
   42.9269   12.7711  -16.1443 C   0  0  0  0  0  0  0  0  0  0  0  0
   41.5800   12.4999  -16.3223 C   0  0  0  0  0  0  0  0  0  0  0  0
   40.6199   12.8845  -15.4264 C   0  0  0  0  0  0  0  0  0  0  0  0
   41.0080   13.5678  -14.3040 C   0  0  0  0  0  0  0  0  0  0  0  0
   42.3486   13.8739  -14.0628 C   0  0  0  0  0  0  0  0  0  0  0  0
   39.2312   12.5598  -15.6896 C   0  0  0  0  0  0  0  0  0  0  0  0
   38.1373   13.0490  -14.9913 C   0  0  0  0  0  0  0  0  0  0  0  0
   37.0451   12.4666  -15.5961 C   0  0  0  0  0  0  0  0  0  0  0  0
   37.4258   11.6659  -16.6056 N   0  0  0  0  0  0  0  0  0  0  0  0
   38.7426   11.7280  -16.6549 N   0  0  0  0  0  0  0  0  0  0  0  0
   36.5467   10.8756  -17.4834 C   0  0  0  0  0  0  0  0  0  0  0  0
   35.7217   10.0748  -16.7159 F   0  0  0  0  0  0  0  0  0  0  0  0
   35.7132   11.7731  -18.1514 F   0  0  0  0  0  0  0  0  0  0  0  0
   37.3056   10.1432  -18.3595 F   0  0  0  0  0  0  0  0  0  0  0  0
   45.5357   13.0193  -15.3719 O   0  0  0  0  0  0  0  0  0  0  0  0
   44.7090   13.7623  -14.7897 C   0  0  0  0  0  0  0  0  0  0  0  0
   45.1593   14.7948  -14.0096 O   0  0  0  0  0  0  0  0  0  0  0  0
   46.3290   15.5264  -14.2281 C   0  0  0  0  0  0  0  0  0  0  0  0
   46.2656   16.9399  -13.7954 C   0  0  0  0  0  0  0  0  0  0  0  0
   47.3736   17.6883  -13.4747 C   0  0  0  0  0  0  0  0  0  0  0  0
   47.1899   18.9987  -13.0801 C   0  0  0  0  0  0  0  0  0  0  0  0
   45.9505   19.5534  -13.0043 N   0  0  0  0  0  0  0  0  0  0  0  0
   44.8571   18.8374  -13.3137 C   0  0  0  0  0  0  0  0  0  0  0  0
   45.0061   17.5386  -13.7075 C   0  0  0  0  0  0  0  0  0  0  0  0
 16 17  2  0  0  0
 17 18  1  0  0  0
 18 19  1  0  0  0
 19 20  1  0  0  0
 20 21  2  0  0  0
 21 22  1  0  0  0
 22 23  2  0  0  0
 23 24  1  0  0  0
 24 25  2  0  0  0
 17  1  1  0  0  0
  1  2  2  0  0  0
  2  3  1  0  0  0
  3  4  2  0  0  0
  4  5  1  0  0  0
  5  6  2  0  0  0
  4  7  1  0  0  0
  7  8  1  0  0  0
  8  9  2  0  0  0
  9 10  1  0  0  0
 10 11  1  0  0  0
 10 12  1  0  0  0
 12 13  1  0  0  0
 12 14  1  0  0  0
 12 15  1  0  0  0
 25 20  1  0  0  0
  6  1  1  0  0  0
 11  7  2  0  0  0
M  END
> <minimizedAffinity>
-7.33773

> <CNNscore>
0.4385081828

> <CNNaffinity>
5.4792232513

> <CNN_VS>
2.4026842117

> <CNNaffinity_variance>
0.0604812205

$$$$
[H]c1nc([H])c([H])c(C([H])([H])OC(=O)c2c([H])c([H])c(-c3nn(C(F)(F)F)c([H])c3[H])c([H])c2[H])c1[H]


 25 27  0  0  0  0  0  0  0  0999 V2000
   36.1777   13.3592  -14.3414 C   0  0  0  0  0  0  0  0  0  0  0  0
   35.3591   13.8529  -13.3192 C   0  0  0  0  0  0  0  0  0  0  0  0
   35.9568   14.6782  -12.3805 C   0  0  0  0  0  0  0  0  0  0  0  0
   37.2827   15.0137  -12.4229 C   0  0  0  0  0  0  0  0  0  0  0  0
   38.0529   14.5112  -13.4386 C   0  0  0  0  0  0  0  0  0  0  0  0
   37.5144   13.6739  -14.4174 C   0  0  0  0  0  0  0  0  0  0  0  0
   37.8286   15.8843  -11.3996 C   0  0  0  0  0  0  0  0  0  0  0  0
   39.1521   15.9198  -10.9864 C   0  0  0  0  0  0  0  0  0  0  0  0
   39.1892   16.8901  -10.0091 C   0  0  0  0  0  0  0  0  0  0  0  0
   37.9726   17.4280   -9.8205 N   0  0  0  0  0  0  0  0  0  0  0  0
   37.1601   16.8171  -10.6612 N   0  0  0  0  0  0  0  0  0  0  0  0
   37.6168   18.4897   -8.8643 C   0  0  0  0  0  0  0  0  0  0  0  0
   36.2885   18.3638   -8.5029 F   0  0  0  0  0  0  0  0  0  0  0  0
   38.3622   18.2703   -7.7056 F   0  0  0  0  0  0  0  0  0  0  0  0
   37.8871   19.7164   -9.4140 F   0  0  0  0  0  0  0  0  0  0  0  0
   34.4105   12.0356  -15.0797 O   0  0  0  0  0  0  0  0  0  0  0  0
   35.5531   12.4845  -15.3398 C   0  0  0  0  0  0  0  0  0  0  0  0
   36.1597   12.1470  -16.5212 O   0  0  0  0  0  0  0  0  0  0  0  0
   36.8871   10.9776  -16.7546 C   0  0  0  0  0  0  0  0  0  0  0  0
   38.1478   11.1714  -17.5045 C   0  0  0  0  0  0  0  0  0  0  0  0
   38.3171   10.8006  -18.8177 C   0  0  0  0  0  0  0  0  0  0  0  0
   39.5422   11.0292  -19.4123 C   0  0  0  0  0  0  0  0  0  0  0  0
   40.5686   11.6061  -18.7317 N   0  0  0  0  0  0  0  0  0  0  0  0
   40.4211   11.9746  -17.4486 C   0  0  0  0  0  0  0  0  0  0  0  0
   39.2214   11.7618  -16.8326 C   0  0  0  0  0  0  0  0  0  0  0  0
 16 17  2  0  0  0
 17 18  1  0  0  0
 18 19  1  0  0  0
 19 20  1  0  0  0
 20 21  2  0  0  0
 21 22  1  0  0  0
 22 23  2  0  0  0
 23 24  1  0  0  0
 24 25  2  0  0  0
 17  1  1  0  0  0
  1  2  2  0  0  0
  2  3  1  0  0  0
  3  4  2  0  0  0
  4  5  1  0  0  0
  5  6  2  0  0  0
  4  7  1  0  0  0
  7  8  1  0  0  0
  8  9  2  0  0  0
  9 10  1  0  0  0
 10 11  1  0  0  0
 10 12  1  0  0  0
 12 13  1  0  0  0
 12 14  1  0  0  0
 12 15  1  0  0  0
 25 20  1  0  0  0
  6  1  1  0  0  0
 11  7  2  0  0  0
M  END
> <minimizedAffinity>
-7.38475

> <CNNscore>
0.3857069910

> <CNNaffinity>
5.7107620239

> <CNN_VS>
2.2026808262

> <CNNaffinity_variance>
0.0892777219

$$$$
[H]c1nc([H])c([H])c(C([H])([H])OC(=O)c2c([H])c([H])c(-c3nn(C(F)(F)F)c([H])c3[H])c([H])c2[H])c1[H]


 25 27  0  0  0  0  0  0  0  0999 V2000
   40.2213   14.3522  -13.9158 C   0  0  0  0  0  0  0  0  0  0  0  0
   40.6615   13.5166  -14.9485 C   0  0  0  0  0  0  0  0  0  0  0  0
   39.6981   12.7634  -15.5998 C   0  0  0  0  0  0  0  0  0  0  0  0
   38.3704   12.8118  -15.2724 C   0  0  0  0  0  0  0  0  0  0  0  0
   37.9767   13.6418  -14.2558 C   0  0  0  0  0  0  0  0  0  0  0  0
   38.8954   14.4280  -13.5580 C   0  0  0  0  0  0  0  0  0  0  0  0
   37.4272   11.9897  -16.0056 C   0  0  0  0  0  0  0  0  0  0  0  0
   37.6940   11.2980  -17.1778 C   0  0  0  0  0  0  0  0  0  0  0  0
   36.5087   10.6708  -17.4933 C   0  0  0  0  0  0  0  0  0  0  0  0
   35.5613   10.9489  -16.5822 N   0  0  0  0  0  0  0  0  0  0  0  0
   36.1224   11.7430  -15.6907 N   0  0  0  0  0  0  0  0  0  0  0  0
   34.1713   10.4630  -16.5795 C   0  0  0  0  0  0  0  0  0  0  0  0
   33.5388   10.8700  -15.4196 F   0  0  0  0  0  0  0  0  0  0  0  0
   33.5092   11.0963  -17.6316 F   0  0  0  0  0  0  0  0  0  0  0  0
   34.1580    9.0994  -16.7222 F   0  0  0  0  0  0  0  0  0  0  0  0
   40.9518   16.3499  -12.9696 O   0  0  0  0  0  0  0  0  0  0  0  0
   41.2347   15.1534  -13.2207 C   0  0  0  0  0  0  0  0  0  0  0  0
   42.4533   14.6529  -12.8439 O   0  0  0  0  0  0  0  0  0  0  0  0
   43.6931   15.1081  -13.2986 C   0  0  0  0  0  0  0  0  0  0  0  0
   44.4762   14.1125  -14.0632 C   0  0  0  0  0  0  0  0  0  0  0  0
   44.2208   13.7874  -15.3746 C   0  0  0  0  0  0  0  0  0  0  0  0
   45.0185   12.8393  -15.9840 C   0  0  0  0  0  0  0  0  0  0  0  0
   46.0372   12.2309  -15.3194 N   0  0  0  0  0  0  0  0  0  0  0  0
   46.3012   12.5360  -14.0384 C   0  0  0  0  0  0  0  0  0  0  0  0
   45.5300   13.4699  -13.4081 C   0  0  0  0  0  0  0  0  0  0  0  0
 16 17  2  0  0  0
 17 18  1  0  0  0
 18 19  1  0  0  0
 19 20  1  0  0  0
 20 21  2  0  0  0
 21 22  1  0  0  0
 22 23  2  0  0  0
 23 24  1  0  0  0
 24 25  2  0  0  0
 17  1  1  0  0  0
  1  2  2  0  0  0
  2  3  1  0  0  0
  3  4  2  0  0  0
  4  5  1  0  0  0
  5  6  2  0  0  0
  4  7  1  0  0  0
  7  8  1  0  0  0
  8  9  2  0  0  0
  9 10  1  0  0  0
 10 11  1  0  0  0
 10 12  1  0  0  0
 12 13  1  0  0  0
 12 14  1  0  0  0
 12 15  1  0  0  0
 25 20  1  0  0  0
  6  1  1  0  0  0
 11  7  2  0  0  0
M  END
> <minimizedAffinity>
-8.10808

> <CNNscore>
0.3742890060

> <CNNaffinity>
5.6837320328

> <CNN_VS>
2.1273584366

> <CNNaffinity_variance>
0.1715451926

$$$$
[H]c1nc([H])c([H])c(C([H])([H])OC(=O)c2c([H])c([H])c(-c3nn(C(F)(F)F)c([H])c3[H])c([H])c2[H])c1[H]


 25 27  0  0  0  0  0  0  0  0999 V2000
   40.0484   14.5942  -13.7579 C   0  0  0  0  0  0  0  0  0  0  0  0
   38.7010   14.4987  -13.3920 C   0  0  0  0  0  0  0  0  0  0  0  0
   37.9052   13.6505  -14.1449 C   0  0  0  0  0  0  0  0  0  0  0  0
   38.3839   12.9264  -15.2026 C   0  0  0  0  0  0  0  0  0  0  0  0
   39.7087   13.0456  -15.5314 C   0  0  0  0  0  0  0  0  0  0  0  0
   40.5663   13.8823  -14.8147 C   0  0  0  0  0  0  0  0  0  0  0  0
   37.4818   12.0613  -15.9381 C   0  0  0  0  0  0  0  0  0  0  0  0
   37.7977   11.3464  -17.0839 C   0  0  0  0  0  0  0  0  0  0  0  0
   36.6375   10.6806  -17.4136 C   0  0  0  0  0  0  0  0  0  0  0  0
   35.6590   10.9577  -16.5355 N   0  0  0  0  0  0  0  0  0  0  0  0
   36.1757   11.7891  -15.6512 N   0  0  0  0  0  0  0  0  0  0  0  0
   34.2822   10.4362  -16.5565 C   0  0  0  0  0  0  0  0  0  0  0  0
   33.6315   10.7950  -15.3908 F   0  0  0  0  0  0  0  0  0  0  0  0
   33.6110   11.0806  -17.5960 F   0  0  0  0  0  0  0  0  0  0  0  0
   34.3053    9.0771  -16.7361 F   0  0  0  0  0  0  0  0  0  0  0  0
   40.5517   16.6932  -12.8861 O   0  0  0  0  0  0  0  0  0  0  0  0
   40.8985   15.4900  -12.9661 C   0  0  0  0  0  0  0  0  0  0  0  0
   42.0336   15.0689  -12.3245 O   0  0  0  0  0  0  0  0  0  0  0  0
   43.1817   14.5742  -12.9476 C   0  0  0  0  0  0  0  0  0  0  0  0
   44.1766   15.6037  -13.3209 C   0  0  0  0  0  0  0  0  0  0  0  0
   45.1380   15.4187  -14.2864 C   0  0  0  0  0  0  0  0  0  0  0  0
   46.0156   16.4524  -14.5466 C   0  0  0  0  0  0  0  0  0  0  0  0
   45.9464   17.6327  -13.8744 N   0  0  0  0  0  0  0  0  0  0  0  0
   45.0140   17.8310  -12.9283 C   0  0  0  0  0  0  0  0  0  0  0  0
   44.1315   16.8276  -12.6481 C   0  0  0  0  0  0  0  0  0  0  0  0
 16 17  2  0  0  0
 17 18  1  0  0  0
 18 19  1  0  0  0
 19 20  1  0  0  0
 20 21  2  0  0  0
 21 22  1  0  0  0
 22 23  2  0  0  0
 23 24  1  0  0  0
 24 25  2  0  0  0
 17  1  1  0  0  0
  1  2  2  0  0  0
  2  3  1  0  0  0
  3  4  2  0  0  0
  4  5  1  0  0  0
  5  6  2  0  0  0
  4  7  1  0  0  0
  7  8  1  0  0  0
  8  9  2  0  0  0
  9 10  1  0  0  0
 10 11  1  0  0  0
 10 12  1  0  0  0
 12 13  1  0  0  0
 12 14  1  0  0  0
 12 15  1  0  0  0
 25 20  1  0  0  0
  6  1  1  0  0  0
 11  7  2  0  0  0
M  END
> <minimizedAffinity>
-7.84614

> <CNNscore>
0.3517470658

> <CNNaffinity>
5.4961280823

> <CNN_VS>
1.9332469702

> <CNNaffinity_variance>
0.1150841936

$$$$
[H]c1nc([H])c([H])c(C([H])([H])OC(=O)c2c([H])c([H])c(-c3nn(C(F)(F)F)c([H])c3[H])c([H])c2[H])c1[H]


 25 27  0  0  0  0  0  0  0  0999 V2000
   41.5299   12.5591  -16.3846 C   0  0  0  0  0  0  0  0  0  0  0  0
   40.7630   13.0597  -15.3263 C   0  0  0  0  0  0  0  0  0  0  0  0
   39.4060   12.7812  -15.3484 C   0  0  0  0  0  0  0  0  0  0  0  0
   38.8129   12.0536  -16.3440 C   0  0  0  0  0  0  0  0  0  0  0  0
   39.5958   11.5797  -17.3637 C   0  0  0  0  0  0  0  0  0  0  0  0
   40.9698   11.8238  -17.4031 C   0  0  0  0  0  0  0  0  0  0  0  0
   37.3847   11.8077  -16.2903 C   0  0  0  0  0  0  0  0  0  0  0  0
   36.6333   11.1743  -17.2690 C   0  0  0  0  0  0  0  0  0  0  0  0
   35.3459   11.1740  -16.7784 C   0  0  0  0  0  0  0  0  0  0  0  0
   35.2913   11.7666  -15.5738 N   0  0  0  0  0  0  0  0  0  0  0  0
   36.5223   12.1448  -15.2878 N   0  0  0  0  0  0  0  0  0  0  0  0
   34.0938   11.9562  -14.7383 C   0  0  0  0  0  0  0  0  0  0  0  0
   33.2772   10.8452  -14.8375 F   0  0  0  0  0  0  0  0  0  0  0  0
   34.5197   12.0141  -13.4111 F   0  0  0  0  0  0  0  0  0  0  0  0
   33.4468   13.1059  -15.1118 F   0  0  0  0  0  0  0  0  0  0  0  0
   43.7313   12.0109  -16.9067 O   0  0  0  0  0  0  0  0  0  0  0  0
   42.9678   12.8491  -16.3693 C   0  0  0  0  0  0  0  0  0  0  0  0
   43.4960   13.9786  -15.8011 O   0  0  0  0  0  0  0  0  0  0  0  0
   44.7308   14.0595  -15.1532 C   0  0  0  0  0  0  0  0  0  0  0  0
   44.7670   13.4418  -13.8093 C   0  0  0  0  0  0  0  0  0  0  0  0
   43.7569   13.5696  -12.8852 C   0  0  0  0  0  0  0  0  0  0  0  0
   43.9044   12.9495  -11.6603 C   0  0  0  0  0  0  0  0  0  0  0  0
   45.0149   12.2254  -11.3569 N   0  0  0  0  0  0  0  0  0  0  0  0
   46.0113   12.0898  -12.2471 C   0  0  0  0  0  0  0  0  0  0  0  0
   45.8950   12.6912  -13.4673 C   0  0  0  0  0  0  0  0  0  0  0  0
 16 17  2  0  0  0
 17 18  1  0  0  0
 18 19  1  0  0  0
 19 20  1  0  0  0
 20 21  2  0  0  0
 21 22  1  0  0  0
 22 23  2  0  0  0
 23 24  1  0  0  0
 24 25  2  0  0  0
 17  1  1  0  0  0
  1  2  2  0  0  0
  2  3  1  0  0  0
  3  4  2  0  0  0
  4  5  1  0  0  0
  5  6  2  0  0  0
  4  7  1  0  0  0
  7  8  1  0  0  0
  8  9  2  0  0  0
  9 10  1  0  0  0
 10 11  1  0  0  0
 10 12  1  0  0  0
 12 13  1  0  0  0
 12 14  1  0  0  0
 12 15  1  0  0  0
 25 20  1  0  0  0
  6  1  1  0  0  0
 11  7  2  0  0  0
M  END
> <minimizedAffinity>
-8.13183

> <CNNscore>
0.3404353857

> <CNNaffinity>
5.7048387527

> <CNN_VS>
1.9421290159

> <CNNaffinity_variance>
0.1190686226

$$$$
[H]c1nc([H])c([H])c(C([H])([H])OC(=O)c2c([H])c([H])c(-c3nn(C(F)(F)F)c([H])c3[H])c([H])c2[H])c1[H]


 25 27  0  0  0  0  0  0  0  0999 V2000
   40.7334   12.7648  -16.0274 C   0  0  0  0  0  0  0  0  0  0  0  0
   42.1088   12.6292  -16.2481 C   0  0  0  0  0  0  0  0  0  0  0  0
   42.9535   13.1550  -15.2840 C   0  0  0  0  0  0  0  0  0  0  0  0
   42.4960   13.7834  -14.1579 C   0  0  0  0  0  0  0  0  0  0  0  0
   41.1427   13.8974  -13.9760 C   0  0  0  0  0  0  0  0  0  0  0  0
   40.2356   13.3899  -14.9080 C   0  0  0  0  0  0  0  0  0  0  0  0
   43.4496   14.3057  -13.1983 C   0  0  0  0  0  0  0  0  0  0  0  0
   43.6805   13.8010  -11.9272 C   0  0  0  0  0  0  0  0  0  0  0  0
   44.6590   14.6141  -11.3987 C   0  0  0  0  0  0  0  0  0  0  0  0
   45.0188   15.5651  -12.2770 N   0  0  0  0  0  0  0  0  0  0  0  0
   44.2863   15.3721  -13.3569 N   0  0  0  0  0  0  0  0  0  0  0  0
   46.0310   16.6150  -12.0738 C   0  0  0  0  0  0  0  0  0  0  0  0
   46.2302   17.3035  -13.2559 F   0  0  0  0  0  0  0  0  0  0  0  0
   45.4991   17.5335  -11.1684 F   0  0  0  0  0  0  0  0  0  0  0  0
   47.1902   16.0546  -11.6026 F   0  0  0  0  0  0  0  0  0  0  0  0
   40.3553   11.6447  -18.0329 O   0  0  0  0  0  0  0  0  0  0  0  0
   39.8315   12.2109  -17.0431 C   0  0  0  0  0  0  0  0  0  0  0  0
   38.4665   12.2879  -16.9519 O   0  0  0  0  0  0  0  0  0  0  0  0
   37.5845   11.2094  -17.0518 C   0  0  0  0  0  0  0  0  0  0  0  0
   36.2667   11.4256  -16.4149 C   0  0  0  0  0  0  0  0  0  0  0  0
   36.0723   12.2420  -15.3257 C   0  0  0  0  0  0  0  0  0  0  0  0
   34.7952   12.3635  -14.8149 C   0  0  0  0  0  0  0  0  0  0  0  0
   33.7422   11.6996  -15.3626 N   0  0  0  0  0  0  0  0  0  0  0  0
   33.9134   10.8981  -16.4266 C   0  0  0  0  0  0  0  0  0  0  0  0
   35.1646   10.7573  -16.9547 C   0  0  0  0  0  0  0  0  0  0  0  0
 16 17  2  0  0  0
 17 18  1  0  0  0
 18 19  1  0  0  0
 19 20  1  0  0  0
 20 21  2  0  0  0
 21 22  1  0  0  0
 22 23  2  0  0  0
 23 24  1  0  0  0
 24 25  2  0  0  0
 17  1  1  0  0  0
  1  2  2  0  0  0
  2  3  1  0  0  0
  3  4  2  0  0  0
  4  5  1  0  0  0
  5  6  2  0  0  0
  4  7  1  0  0  0
  7  8  1  0  0  0
  8  9  2  0  0  0
  9 10  1  0  0  0
 10 11  1  0  0  0
 10 12  1  0  0  0
 12 13  1  0  0  0
 12 14  1  0  0  0
 12 15  1  0  0  0
 25 20  1  0  0  0
  6  1  1  0  0  0
 11  7  2  0  0  0
M  END
> <minimizedAffinity>
-7.25049

> <CNNscore>
0.3390719593

> <CNNaffinity>
5.6006169319

> <CNN_VS>
1.8990122080

> <CNNaffinity_variance>
0.0979623795

$$$$
[H]c1nc([H])c([H])c(C([H])([H])OC(=O)c2c([H])c([H])c(-c3nn(C(F)(F)F)c([H])c3[H])c([H])c2[H])c1[H]


 25 27  0  0  0  0  0  0  0  0999 V2000
   37.0458   11.7381  -16.2593 C   0  0  0  0  0  0  0  0  0  0  0  0
   37.8854   11.1415  -17.2069 C   0  0  0  0  0  0  0  0  0  0  0  0
   39.2356   11.4409  -17.1253 C   0  0  0  0  0  0  0  0  0  0  0  0
   39.7553   12.2768  -16.1747 C   0  0  0  0  0  0  0  0  0  0  0  0
   38.9025   12.8424  -15.2636 C   0  0  0  0  0  0  0  0  0  0  0  0
   37.5309   12.5835  -15.2890 C   0  0  0  0  0  0  0  0  0  0  0  0
   41.1820   12.5368  -16.1603 C   0  0  0  0  0  0  0  0  0  0  0  0
   41.8068   13.5967  -15.5201 C   0  0  0  0  0  0  0  0  0  0  0  0
   43.1480   13.4258  -15.7848 C   0  0  0  0  0  0  0  0  0  0  0  0
   43.3527   12.3333  -16.5396 N   0  0  0  0  0  0  0  0  0  0  0  0
   42.1645   11.8046  -16.7608 N   0  0  0  0  0  0  0  0  0  0  0  0
   44.6476   11.8267  -17.0240 C   0  0  0  0  0  0  0  0  0  0  0  0
   44.6866   11.8950  -18.4042 F   0  0  0  0  0  0  0  0  0  0  0  0
   45.6333   12.6976  -16.5590 F   0  0  0  0  0  0  0  0  0  0  0  0
   44.8449   10.5495  -16.5658 F   0  0  0  0  0  0  0  0  0  0  0  0
   35.2784   10.4243  -17.0141 O   0  0  0  0  0  0  0  0  0  0  0  0
   35.6144   11.4266  -16.3382 C   0  0  0  0  0  0  0  0  0  0  0  0
   34.6516   12.1751  -15.7136 O   0  0  0  0  0  0  0  0  0  0  0  0
   34.1389   11.9353  -14.4366 C   0  0  0  0  0  0  0  0  0  0  0  0
   34.4392   12.9874  -13.4407 C   0  0  0  0  0  0  0  0  0  0  0  0
   33.6407   14.0868  -13.2303 C   0  0  0  0  0  0  0  0  0  0  0  0
   34.0256   15.0054  -12.2739 C   0  0  0  0  0  0  0  0  0  0  0  0
   35.1639   14.8437  -11.5474 N   0  0  0  0  0  0  0  0  0  0  0  0
   35.9558   13.7761  -11.7394 C   0  0  0  0  0  0  0  0  0  0  0  0
   35.6021   12.8499  -12.6781 C   0  0  0  0  0  0  0  0  0  0  0  0
 16 17  2  0  0  0
 17 18  1  0  0  0
 18 19  1  0  0  0
 19 20  1  0  0  0
 20 21  2  0  0  0
 21 22  1  0  0  0
 22 23  2  0  0  0
 23 24  1  0  0  0
 24 25  2  0  0  0
 17  1  1  0  0  0
  1  2  2  0  0  0
  2  3  1  0  0  0
  3  4  2  0  0  0
  4  5  1  0  0  0
  5  6  2  0  0  0
  4  7  1  0  0  0
  7  8  1  0  0  0
  8  9  2  0  0  0
  9 10  1  0  0  0
 10 11  1  0  0  0
 10 12  1  0  0  0
 12 13  1  0  0  0
 12 14  1  0  0  0
 12 15  1  0  0  0
 25 20  1  0  0  0
  6  1  1  0  0  0
 11  7  2  0  0  0
M  END
> <minimizedAffinity>
-8.28191

> <CNNscore>
0.3280748129

> <CNNaffinity>
5.9578695297

> <CNN_VS>
1.9546269178

> <CNNaffinity_variance>
0.0267337225

$$$$
[H]c1nc([H])c([H])c(C([H])([H])OC(=O)c2c([H])c([H])c(-c3nn(C(F)(F)F)c([H])c3[H])c([H])c2[H])c1[H]


 25 27  0  0  0  0  0  0  0  0999 V2000
   41.6035   12.6262  -16.3255 C   0  0  0  0  0  0  0  0  0  0  0  0
   41.0039   11.8839  -17.3493 C   0  0  0  0  0  0  0  0  0  0  0  0
   39.6386   11.6698  -17.2519 C   0  0  0  0  0  0  0  0  0  0  0  0
   38.8835   12.1482  -16.2159 C   0  0  0  0  0  0  0  0  0  0  0  0
   39.5053   12.8708  -15.2318 C   0  0  0  0  0  0  0  0  0  0  0  0
   40.8779   13.1234  -15.2682 C   0  0  0  0  0  0  0  0  0  0  0  0
   37.4588   11.8781  -16.1909 C   0  0  0  0  0  0  0  0  0  0  0  0
   36.7429   11.2083  -17.1719 C   0  0  0  0  0  0  0  0  0  0  0  0
   35.4440   11.1967  -16.7128 C   0  0  0  0  0  0  0  0  0  0  0  0
   35.3494   11.8167  -15.5246 N   0  0  0  0  0  0  0  0  0  0  0  0
   36.5663   12.2235  -15.2181 N   0  0  0  0  0  0  0  0  0  0  0  0
   34.1286   12.0046  -14.7231 C   0  0  0  0  0  0  0  0  0  0  0  0
   33.3043   10.9042  -14.8668 F   0  0  0  0  0  0  0  0  0  0  0  0
   34.5138   12.0352  -13.3826 F   0  0  0  0  0  0  0  0  0  0  0  0
   33.5051   13.1674  -15.0961 F   0  0  0  0  0  0  0  0  0  0  0  0
   43.7508   11.9354  -16.9012 O   0  0  0  0  0  0  0  0  0  0  0  0
   43.0489   12.8578  -16.4206 C   0  0  0  0  0  0  0  0  0  0  0  0
   43.6475   14.0207  -16.0119 O   0  0  0  0  0  0  0  0  0  0  0  0
   44.7214   14.1116  -15.1234 C   0  0  0  0  0  0  0  0  0  0  0  0
   44.3455   14.4247  -13.7271 C   0  0  0  0  0  0  0  0  0  0  0  0
   44.3248   15.6994  -13.2118 C   0  0  0  0  0  0  0  0  0  0  0  0
   43.9596   15.8685  -11.8909 C   0  0  0  0  0  0  0  0  0  0  0  0
   43.6250   14.8118  -11.1029 N   0  0  0  0  0  0  0  0  0  0  0  0
   43.6395   13.5600  -11.5892 C   0  0  0  0  0  0  0  0  0  0  0  0
   43.9963   13.3602  -12.8919 C   0  0  0  0  0  0  0  0  0  0  0  0
 16 17  2  0  0  0
 17 18  1  0  0  0
 18 19  1  0  0  0
 19 20  1  0  0  0
 20 21  2  0  0  0
 21 22  1  0  0  0
 22 23  2  0  0  0
 23 24  1  0  0  0
 24 25  2  0  0  0
 17  1  1  0  0  0
  1  2  2  0  0  0
  2  3  1  0  0  0
  3  4  2  0  0  0
  4  5  1  0  0  0
  5  6  2  0  0  0
  4  7  1  0  0  0
  7  8  1  0  0  0
  8  9  2  0  0  0
  9 10  1  0  0  0
 10 11  1  0  0  0
 10 12  1  0  0  0
 12 13  1  0  0  0
 12 14  1  0  0  0
 12 15  1  0  0  0
 25 20  1  0  0  0
  6  1  1  0  0  0
 11  7  2  0  0  0
M  END
> <minimizedAffinity>
-8.00460

> <CNNscore>
0.3181502223

> <CNNaffinity>
5.7492599487

> <CNN_VS>
1.8291283846

> <CNNaffinity_variance>
0.1089297906

$$$$
[H]/C(C(=O)O[C@@]1([H])c2c([H])c([H])c([H])c([H])c2[C@]([H])(C(=O)N([H])c2c([H])c([H])c([H])c([H])c2[H])[C@@]2([H])N(C([H])([H])C([H])([H])C2([H])[H])C1([H])[H])=C(/[H])c1c([H])c([H])c([H])c([H])c1SC([H])([H])C([H])([H])[H]


 38 42  0  0  0  0  0  0  0  0999 V2000
   41.8998   14.6018  -13.0419 C   0  0  0  0  0  0  0  0  0  0  0  0
   42.4915   15.7780  -12.3094 C   0  0  0  0  0  0  0  0  0  0  0  0
   43.7439   15.5592  -11.6797 N   0  0  0  0  0  0  0  0  0  0  0  0
   44.0074   16.6282  -10.7428 C   0  0  0  0  0  0  0  0  0  0  0  0
   45.4989   16.8690  -10.7763 C   0  0  0  0  0  0  0  0  0  0  0  0
   45.9757   16.3217  -12.1025 C   0  0  0  0  0  0  0  0  0  0  0  0
   44.8344   15.5539  -12.6249 C   0  0  0  0  0  0  0  0  0  0  0  0
   45.0923   14.1034  -12.9627 C   0  0  0  0  0  0  0  0  0  0  0  0
   44.1050   13.6897  -14.0039 C   0  0  0  0  0  0  0  0  0  0  0  0
   44.7305   13.0169  -15.0162 C   0  0  0  0  0  0  0  0  0  0  0  0
   43.9954   12.5385  -16.0994 C   0  0  0  0  0  0  0  0  0  0  0  0
   42.6479   12.7594  -16.1196 C   0  0  0  0  0  0  0  0  0  0  0  0
   42.0418   13.4499  -15.0698 C   0  0  0  0  0  0  0  0  0  0  0  0
   42.7540   13.9279  -13.9942 C   0  0  0  0  0  0  0  0  0  0  0  0
   44.8870   13.2432  -11.7289 C   0  0  0  0  0  0  0  0  0  0  0  0
   43.9662   12.3909  -11.7576 O   0  0  0  0  0  0  0  0  0  0  0  0
   45.7140   13.4108  -10.6005 N   0  0  0  0  0  0  0  0  0  0  0  0
   46.5031   14.1298  -10.6112 H   0  0  0  0  0  0  0  0  0  0  0  0
   45.6096   12.6790   -9.3865 C   0  0  0  0  0  0  0  0  0  0  0  0
   44.8164   13.0394   -8.3251 C   0  0  0  0  0  0  0  0  0  0  0  0
   44.7751   12.2276   -7.1848 C   0  0  0  0  0  0  0  0  0  0  0  0
   45.5051   11.0703   -7.0811 C   0  0  0  0  0  0  0  0  0  0  0  0
   46.3041   10.7022   -8.1414 C   0  0  0  0  0  0  0  0  0  0  0  0
   46.3384   11.4902   -9.2384 C   0  0  0  0  0  0  0  0  0  0  0  0
   40.7835   15.1403  -13.7410 O   0  0  0  0  0  0  0  0  0  0  0  0
   39.5190   15.2577  -13.1574 C   0  0  0  0  0  0  0  0  0  0  0  0
   39.4526   15.8450  -12.0709 O   0  0  0  0  0  0  0  0  0  0  0  0
   38.1754   13.3854  -13.9226 C   0  0  0  0  0  0  0  0  0  0  0  0
   38.3776   14.6818  -13.8684 C   0  0  0  0  0  0  0  0  0  0  0  0
   37.3167   12.0382  -15.7729 C   0  0  0  0  0  0  0  0  0  0  0  0
   36.3188   11.4159  -16.4753 C   0  0  0  0  0  0  0  0  0  0  0  0
   35.0255   11.4964  -16.0317 C   0  0  0  0  0  0  0  0  0  0  0  0
   34.7494   12.1999  -14.8895 C   0  0  0  0  0  0  0  0  0  0  0  0
   35.7676   12.8324  -14.1765 C   0  0  0  0  0  0  0  0  0  0  0  0
   37.0645   12.7586  -14.6107 C   0  0  0  0  0  0  0  0  0  0  0  0
   38.9958   11.9314  -16.3534 S   0  0  0  0  0  0  0  0  0  0  0  0
   40.2483   11.4882  -18.6817 C   0  0  0  0  0  0  0  0  0  0  0  0
   39.1164   10.9205  -17.8586 C   0  0  0  0  0  0  0  0  0  0  0  0
 37 38  1  0  0  0
 38 36  1  0  0  0
 36 30  1  0  0  0
 30 31  2  0  0  0
 31 32  1  0  0  0
 32 33  2  0  0  0
 33 34  1  0  0  0
 34 35  2  0  0  0
 35 28  1  0  0  0
 28 29  2  0  0  0
 29 26  1  0  0  0
 26 27  2  0  0  0
 26 25  1  0  0  0
 25  1  1  0  0  0
  1  2  1  0  0  0
  2  3  1  0  0  0
  3  4  1  0  0  0
  4  5  1  0  0  0
  5  6  1  0  0  0
  6  7  1  0  0  0
  7  8  1  0  0  0
  8 15  1  0  0  0
 15 16  2  0  0  0
 15 17  1  0  0  0
 17 19  1  0  0  0
 19 20  2  0  0  0
 20 21  1  0  0  0
 21 22  2  0  0  0
 22 23  1  0  0  0
 23 24  2  0  0  0
  8  9  1  0  0  0
  9 10  2  0  0  0
 10 11  1  0  0  0
 11 12  2  0  0  0
 12 13  1  0  0  0
 13 14  2  0  0  0
 35 30  1  0  0  0
 14  1  1  0  0  0
  7  3  1  0  0  0
 24 19  1  0  0  0
 14  9  1  0  0  0
 17 18  1  0  0  0
M  END
> <minimizedAffinity>
-8.68032

> <CNNscore>
0.1916746199

> <CNNaffinity>
6.6043143272

> <CNN_VS>
1.2658793926

> <CNNaffinity_variance>
0.0741370916

$$$$
[H]/C(C(=O)O[C@@]1([H])c2c([H])c([H])c([H])c([H])c2[C@]([H])(C(=O)N([H])c2c([H])c([H])c([H])c([H])c2[H])[C@@]2([H])N(C([H])([H])C([H])([H])C2([H])[H])C1([H])[H])=C(/[H])c1c([H])c([H])c([H])c([H])c1SC([H])([H])C([H])([H])[H]


 38 42  0  0  0  0  0  0  0  0999 V2000
   36.4981   15.1954   -8.3392 C   0  0  0  0  0  0  0  0  0  0  0  0
   37.9665   14.8623   -8.2823 C   0  0  0  0  0  0  0  0  0  0  0  0
   38.6921   15.4099   -7.1931 N   0  0  0  0  0  0  0  0  0  0  0  0
   40.1098   15.3110   -7.4579 C   0  0  0  0  0  0  0  0  0  0  0  0
   40.7774   15.0547   -6.1267 C   0  0  0  0  0  0  0  0  0  0  0  0
   39.7041   14.4791   -5.2309 C   0  0  0  0  0  0  0  0  0  0  0  0
   38.4464   14.6972   -5.9625 C   0  0  0  0  0  0  0  0  0  0  0  0
   37.3665   15.4673   -5.2378 C   0  0  0  0  0  0  0  0  0  0  0  0
   36.0479   15.0617   -5.8094 C   0  0  0  0  0  0  0  0  0  0  0  0
   35.1558   14.7907   -4.8098 C   0  0  0  0  0  0  0  0  0  0  0  0
   33.8570   14.3902   -5.1185 C   0  0  0  0  0  0  0  0  0  0  0  0
   33.5062   14.2774   -6.4334 C   0  0  0  0  0  0  0  0  0  0  0  0
   34.4419   14.5617   -7.4284 C   0  0  0  0  0  0  0  0  0  0  0  0
   35.7271   14.9581   -7.1393 C   0  0  0  0  0  0  0  0  0  0  0  0
   37.5568   16.9564   -5.4632 C   0  0  0  0  0  0  0  0  0  0  0  0
   38.4542   17.5369   -4.8053 O   0  0  0  0  0  0  0  0  0  0  0  0
   36.7438   17.6448   -6.3854 N   0  0  0  0  0  0  0  0  0  0  0  0
   36.0014   17.1216   -6.9466 H   0  0  0  0  0  0  0  0  0  0  0  0
   36.8163   19.0354   -6.6702 C   0  0  0  0  0  0  0  0  0  0  0  0
   36.2576   20.0201   -5.8931 C   0  0  0  0  0  0  0  0  0  0  0  0
   36.4122   21.3627   -6.2600 C   0  0  0  0  0  0  0  0  0  0  0  0
   37.1081   21.7418   -7.3802 C   0  0  0  0  0  0  0  0  0  0  0  0
   37.6711   20.7597   -8.1657 C   0  0  0  0  0  0  0  0  0  0  0  0
   37.5180   19.4666   -7.8051 C   0  0  0  0  0  0  0  0  0  0  0  0
   35.9833   14.3679   -9.3760 O   0  0  0  0  0  0  0  0  0  0  0  0
   35.8139   14.8251  -10.6857 C   0  0  0  0  0  0  0  0  0  0  0  0
   34.9936   15.7335  -10.8634 O   0  0  0  0  0  0  0  0  0  0  0  0
   36.0584   13.6481  -12.7955 C   0  0  0  0  0  0  0  0  0  0  0  0
   36.6121   14.2003  -11.7406 C   0  0  0  0  0  0  0  0  0  0  0  0
   36.0938   12.5007  -14.9539 C   0  0  0  0  0  0  0  0  0  0  0  0
   36.7228   11.8924  -16.0078 C   0  0  0  0  0  0  0  0  0  0  0  0
   38.0877   11.7796  -16.0095 C   0  0  0  0  0  0  0  0  0  0  0  0
   38.8045   12.2782  -14.9543 C   0  0  0  0  0  0  0  0  0  0  0  0
   38.1612   12.8971  -13.8827 C   0  0  0  0  0  0  0  0  0  0  0  0
   36.7968   13.0155  -13.8703 C   0  0  0  0  0  0  0  0  0  0  0  0
   34.3198   12.6446  -14.9556 S   0  0  0  0  0  0  0  0  0  0  0  0
   33.5007   10.9136  -16.8315 C   0  0  0  0  0  0  0  0  0  0  0  0
   33.5236   11.0541  -15.3280 C   0  0  0  0  0  0  0  0  0  0  0  0
 37 38  1  0  0  0
 38 36  1  0  0  0
 36 30  1  0  0  0
 30 31  2  0  0  0
 31 32  1  0  0  0
 32 33  2  0  0  0
 33 34  1  0  0  0
 34 35  2  0  0  0
 35 28  1  0  0  0
 28 29  2  0  0  0
 29 26  1  0  0  0
 26 27  2  0  0  0
 26 25  1  0  0  0
 25  1  1  0  0  0
  1  2  1  0  0  0
  2  3  1  0  0  0
  3  4  1  0  0  0
  4  5  1  0  0  0
  5  6  1  0  0  0
  6  7  1  0  0  0
  7  8  1  0  0  0
  8 15  1  0  0  0
 15 16  2  0  0  0
 15 17  1  0  0  0
 17 19  1  0  0  0
 19 20  2  0  0  0
 20 21  1  0  0  0
 21 22  2  0  0  0
 22 23  1  0  0  0
 23 24  2  0  0  0
  8  9  1  0  0  0
  9 10  2  0  0  0
 10 11  1  0  0  0
 11 12  2  0  0  0
 12 13  1  0  0  0
 13 14  2  0  0  0
 35 30  1  0  0  0
 14  1  1  0  0  0
  7  3  1  0  0  0
 24 19  1  0  0  0
 14  9  1  0  0  0
 17 18  1  0  0  0
M  END
> <minimizedAffinity>
-8.08894

> <CNNscore>
0.1833493859

> <CNNaffinity>
6.0380153656

> <CNN_VS>
1.1070663929

> <CNNaffinity_variance>
0.2933601737

$$$$
[H]/C(C(=O)O[C@@]1([H])c2c([H])c([H])c([H])c([H])c2[C@]([H])(C(=O)N([H])c2c([H])c([H])c([H])c([H])c2[H])[C@@]2([H])N(C([H])([H])C([H])([H])C2([H])[H])C1([H])[H])=C(/[H])c1c([H])c([H])c([H])c([H])c1SC([H])([H])C([H])([H])[H]


 38 42  0  0  0  0  0  0  0  0999 V2000
   38.8904   15.9992   -8.1033 C   0  0  0  0  0  0  0  0  0  0  0  0
   40.3180   16.2132   -7.6717 C   0  0  0  0  0  0  0  0  0  0  0  0
   40.5052   16.8353   -6.4104 N   0  0  0  0  0  0  0  0  0  0  0  0
   41.8724   17.2903   -6.2938 C   0  0  0  0  0  0  0  0  0  0  0  0
   42.2593   17.1170   -4.8434 C   0  0  0  0  0  0  0  0  0  0  0  0
   41.3122   16.0794   -4.2847 C   0  0  0  0  0  0  0  0  0  0  0  0
   40.2732   15.9248   -5.3150 C   0  0  0  0  0  0  0  0  0  0  0  0
   38.8449   16.1502   -4.8751 C   0  0  0  0  0  0  0  0  0  0  0  0
   37.9530   15.3765   -5.7895 C   0  0  0  0  0  0  0  0  0  0  0  0
   37.0272   14.6717   -5.0720 C   0  0  0  0  0  0  0  0  0  0  0  0
   36.0904   13.8748   -5.7277 C   0  0  0  0  0  0  0  0  0  0  0  0
   36.1242   13.8194   -7.0917 C   0  0  0  0  0  0  0  0  0  0  0  0
   37.0828   14.5516   -7.7927 C   0  0  0  0  0  0  0  0  0  0  0  0
   38.0137   15.3424   -7.1596 C   0  0  0  0  0  0  0  0  0  0  0  0
   38.4975   17.6235   -4.9888 C   0  0  0  0  0  0  0  0  0  0  0  0
   39.0494   18.4173   -4.1886 O   0  0  0  0  0  0  0  0  0  0  0  0
   37.5850   18.0646   -5.9677 N   0  0  0  0  0  0  0  0  0  0  0  0
   37.1459   17.3697   -6.6489 H   0  0  0  0  0  0  0  0  0  0  0  0
   37.1707   19.4104   -6.1610 C   0  0  0  0  0  0  0  0  0  0  0  0
   37.5082   20.1814   -7.2460 C   0  0  0  0  0  0  0  0  0  0  0  0
   37.0224   21.4913   -7.3424 C   0  0  0  0  0  0  0  0  0  0  0  0
   36.2119   22.0457   -6.3839 C   0  0  0  0  0  0  0  0  0  0  0  0
   35.8694   21.2789   -5.2917 C   0  0  0  0  0  0  0  0  0  0  0  0
   36.3415   20.0158   -5.2059 C   0  0  0  0  0  0  0  0  0  0  0  0
   38.9866   15.1876   -9.2682 O   0  0  0  0  0  0  0  0  0  0  0  0
   38.6852   15.6699  -10.5449 C   0  0  0  0  0  0  0  0  0  0  0  0
   39.2034   16.7422  -10.8786 O   0  0  0  0  0  0  0  0  0  0  0  0
   37.9069   14.8443  -12.6917 C   0  0  0  0  0  0  0  0  0  0  0  0
   37.7865   14.8778  -11.3845 C   0  0  0  0  0  0  0  0  0  0  0  0
   37.6285   13.3235  -14.5853 C   0  0  0  0  0  0  0  0  0  0  0  0
   36.8815   12.5728  -15.4541 C   0  0  0  0  0  0  0  0  0  0  0  0
   35.5172   12.5554  -15.3354 C   0  0  0  0  0  0  0  0  0  0  0  0
   34.9193   13.2910  -14.3469 C   0  0  0  0  0  0  0  0  0  0  0  0
   35.6826   14.0543  -13.4637 C   0  0  0  0  0  0  0  0  0  0  0  0
   37.0476   14.0793  -13.5731 C   0  0  0  0  0  0  0  0  0  0  0  0
   39.4011   13.3435  -14.7438 S   0  0  0  0  0  0  0  0  0  0  0  0
   40.3002   13.2252  -17.2664 C   0  0  0  0  0  0  0  0  0  0  0  0
   39.9577   12.2997  -16.1232 C   0  0  0  0  0  0  0  0  0  0  0  0
 37 38  1  0  0  0
 38 36  1  0  0  0
 36 30  1  0  0  0
 30 31  2  0  0  0
 31 32  1  0  0  0
 32 33  2  0  0  0
 33 34  1  0  0  0
 34 35  2  0  0  0
 35 28  1  0  0  0
 28 29  2  0  0  0
 29 26  1  0  0  0
 26 27  2  0  0  0
 26 25  1  0  0  0
 25  1  1  0  0  0
  1  2  1  0  0  0
  2  3  1  0  0  0
  3  4  1  0  0  0
  4  5  1  0  0  0
  5  6  1  0  0  0
  6  7  1  0  0  0
  7  8  1  0  0  0
  8 15  1  0  0  0
 15 16  2  0  0  0
 15 17  1  0  0  0
 17 19  1  0  0  0
 19 20  2  0  0  0
 20 21  1  0  0  0
 21 22  2  0  0  0
 22 23  1  0  0  0
 23 24  2  0  0  0
  8  9  1  0  0  0
  9 10  2  0  0  0
 10 11  1  0  0  0
 11 12  2  0  0  0
 12 13  1  0  0  0
 13 14  2  0  0  0
 35 30  1  0  0  0
 14  1  1  0  0  0
  7  3  1  0  0  0
 24 19  1  0  0  0
 14  9  1  0  0  0
 17 18  1  0  0  0
M  END
> <minimizedAffinity>
-6.98696

> <CNNscore>
0.1495433897

> <CNNaffinity>
5.9119277000

> <CNN_VS>
0.8840897083

> <CNNaffinity_variance>
0.1416574419

$$$$
[H]/C(C(=O)O[C@@]1([H])c2c([H])c([H])c([H])c([H])c2[C@]([H])(C(=O)N([H])c2c([H])c([H])c([H])c([H])c2[H])[C@@]2([H])N(C([H])([H])C([H])([H])C2([H])[H])C1([H])[H])=C(/[H])c1c([H])c([H])c([H])c([H])c1SC([H])([H])C([H])([H])[H]


 38 42  0  0  0  0  0  0  0  0999 V2000
   36.7000   16.6037   -8.8659 C   0  0  0  0  0  0  0  0  0  0  0  0
   35.5080   15.7959   -8.4224 C   0  0  0  0  0  0  0  0  0  0  0  0
   35.4290   15.5037   -7.0364 N   0  0  0  0  0  0  0  0  0  0  0  0
   34.4616   14.4517   -6.8183 C   0  0  0  0  0  0  0  0  0  0  0  0
   33.7905   14.7538   -5.4986 C   0  0  0  0  0  0  0  0  0  0  0  0
   33.9952   16.2327   -5.2604 C   0  0  0  0  0  0  0  0  0  0  0  0
   34.9897   16.6414   -6.2647 C   0  0  0  0  0  0  0  0  0  0  0  0
   36.2430   17.3069   -5.7445 C   0  0  0  0  0  0  0  0  0  0  0  0
   36.7892   18.1747   -6.8301 C   0  0  0  0  0  0  0  0  0  0  0  0
   37.1101   19.4098   -6.3400 C   0  0  0  0  0  0  0  0  0  0  0  0
   37.6379   20.3842   -7.1852 C   0  0  0  0  0  0  0  0  0  0  0  0
   37.8225   20.0727   -8.5019 C   0  0  0  0  0  0  0  0  0  0  0  0
   37.4841   18.8023   -8.9688 C   0  0  0  0  0  0  0  0  0  0  0  0
   36.9625   17.8303   -8.1468 C   0  0  0  0  0  0  0  0  0  0  0  0
   37.2790   16.2532   -5.3967 C   0  0  0  0  0  0  0  0  0  0  0  0
   37.1492   15.6434   -4.3075 O   0  0  0  0  0  0  0  0  0  0  0  0
   38.3420   15.9831   -6.2813 N   0  0  0  0  0  0  0  0  0  0  0  0
   38.4165   16.5029   -7.2109 H   0  0  0  0  0  0  0  0  0  0  0  0
   39.3773   15.0348   -6.0600 C   0  0  0  0  0  0  0  0  0  0  0  0
   39.2623   13.6866   -6.2944 C   0  0  0  0  0  0  0  0  0  0  0  0
   40.3588   12.8474   -6.0609 C   0  0  0  0  0  0  0  0  0  0  0  0
   41.5610   13.3220   -5.6003 C   0  0  0  0  0  0  0  0  0  0  0  0
   41.6843   14.6734   -5.3618 C   0  0  0  0  0  0  0  0  0  0  0  0
   40.6222   15.4769   -5.5899 C   0  0  0  0  0  0  0  0  0  0  0  0
   36.4273   16.9279  -10.2243 O   0  0  0  0  0  0  0  0  0  0  0  0
   36.9822   16.2156  -11.2911 C   0  0  0  0  0  0  0  0  0  0  0  0
   38.2051   16.3062  -11.4531 O   0  0  0  0  0  0  0  0  0  0  0  0
   36.5213   14.4361  -12.8776 C   0  0  0  0  0  0  0  0  0  0  0  0
   36.0834   15.4230  -12.1300 C   0  0  0  0  0  0  0  0  0  0  0  0
   36.2535   12.5534  -14.4137 C   0  0  0  0  0  0  0  0  0  0  0  0
   35.5212   11.7345  -15.2319 C   0  0  0  0  0  0  0  0  0  0  0  0
   34.1793   11.9579  -15.3901 C   0  0  0  0  0  0  0  0  0  0  0  0
   33.5887   12.9998  -14.7255 C   0  0  0  0  0  0  0  0  0  0  0  0
   34.3369   13.8318  -13.8930 C   0  0  0  0  0  0  0  0  0  0  0  0
   35.6795   13.6178  -13.7275 C   0  0  0  0  0  0  0  0  0  0  0  0
   37.9972   12.2595  -14.2117 S   0  0  0  0  0  0  0  0  0  0  0  0
   38.9475   11.4624  -16.5882 C   0  0  0  0  0  0  0  0  0  0  0  0
   38.9235   12.6935  -15.7137 C   0  0  0  0  0  0  0  0  0  0  0  0
 37 38  1  0  0  0
 38 36  1  0  0  0
 36 30  1  0  0  0
 30 31  2  0  0  0
 31 32  1  0  0  0
 32 33  2  0  0  0
 33 34  1  0  0  0
 34 35  2  0  0  0
 35 28  1  0  0  0
 28 29  2  0  0  0
 29 26  1  0  0  0
 26 27  2  0  0  0
 26 25  1  0  0  0
 25  1  1  0  0  0
  1  2  1  0  0  0
  2  3  1  0  0  0
  3  4  1  0  0  0
  4  5  1  0  0  0
  5  6  1  0  0  0
  6  7  1  0  0  0
  7  8  1  0  0  0
  8 15  1  0  0  0
 15 16  2  0  0  0
 15 17  1  0  0  0
 17 19  1  0  0  0
 19 20  2  0  0  0
 20 21  1  0  0  0
 21 22  2  0  0  0
 22 23  1  0  0  0
 23 24  2  0  0  0
  8  9  1  0  0  0
  9 10  2  0  0  0
 10 11  1  0  0  0
 11 12  2  0  0  0
 12 13  1  0  0  0
 13 14  2  0  0  0
 35 30  1  0  0  0
 14  1  1  0  0  0
  7  3  1  0  0  0
 24 19  1  0  0  0
 14  9  1  0  0  0
 17 18  1  0  0  0
M  END
> <minimizedAffinity>
-7.50482

> <CNNscore>
0.1399460286

> <CNNaffinity>
5.9880018234

> <CNN_VS>
0.8379970789

> <CNNaffinity_variance>
0.2830906510

$$$$
[H]/C(C(=O)O[C@@]1([H])c2c([H])c([H])c([H])c([H])c2[C@]([H])(C(=O)N([H])c2c([H])c([H])c([H])c([H])c2[H])[C@@]2([H])N(C([H])([H])C([H])([H])C2([H])[H])C1([H])[H])=C(/[H])c1c([H])c([H])c([H])c([H])c1SC([H])([H])C([H])([H])[H]


 38 42  0  0  0  0  0  0  0  0999 V2000
   39.0074   16.1562  -12.0597 C   0  0  0  0  0  0  0  0  0  0  0  0
   40.0457   15.9563  -10.9863 C   0  0  0  0  0  0  0  0  0  0  0  0
   39.5946   16.0794   -9.6468 N   0  0  0  0  0  0  0  0  0  0  0  0
   40.7314   16.2182   -8.7645 C   0  0  0  0  0  0  0  0  0  0  0  0
   40.3678   15.5062   -7.4822 C   0  0  0  0  0  0  0  0  0  0  0  0
   39.2745   14.5284   -7.8487 C   0  0  0  0  0  0  0  0  0  0  0  0
   38.8660   14.9133   -9.2088 C   0  0  0  0  0  0  0  0  0  0  0  0
   37.4021   15.2302   -9.4116 C   0  0  0  0  0  0  0  0  0  0  0  0
   37.0696   14.9770  -10.8453 C   0  0  0  0  0  0  0  0  0  0  0  0
   35.9161   14.2507  -10.9481 C   0  0  0  0  0  0  0  0  0  0  0  0
   35.4189   13.8980  -12.2015 C   0  0  0  0  0  0  0  0  0  0  0  0
   36.1099   14.2944  -13.3106 C   0  0  0  0  0  0  0  0  0  0  0  0
   37.2839   15.0347  -13.1693 C   0  0  0  0  0  0  0  0  0  0  0  0
   37.7869   15.3904  -11.9392 C   0  0  0  0  0  0  0  0  0  0  0  0
   37.1451   16.6944   -9.1041 C   0  0  0  0  0  0  0  0  0  0  0  0
   36.6719   17.4095  -10.0206 O   0  0  0  0  0  0  0  0  0  0  0  0
   37.4335   17.2131   -7.8262 N   0  0  0  0  0  0  0  0  0  0  0  0
   37.8164   16.5771   -7.0590 H   0  0  0  0  0  0  0  0  0  0  0  0
   37.2510   18.5644   -7.4250 C   0  0  0  0  0  0  0  0  0  0  0  0
   36.5780   18.9575   -6.2945 C   0  0  0  0  0  0  0  0  0  0  0  0
   36.4798   20.3200   -5.9860 C   0  0  0  0  0  0  0  0  0  0  0  0
   37.0353   21.2934   -6.7775 C   0  0  0  0  0  0  0  0  0  0  0  0
   37.7116   20.9072   -7.9141 C   0  0  0  0  0  0  0  0  0  0  0  0
   37.8025   19.5909   -8.2050 C   0  0  0  0  0  0  0  0  0  0  0  0
   39.6607   15.7751  -13.2649 O   0  0  0  0  0  0  0  0  0  0  0  0
   40.8115   14.9821  -13.2755 C   0  0  0  0  0  0  0  0  0  0  0  0
   41.6415   15.1823  -12.3806 O   0  0  0  0  0  0  0  0  0  0  0  0
   39.9774   13.7331  -15.1835 C   0  0  0  0  0  0  0  0  0  0  0  0
   40.9483   13.9831  -14.3354 C   0  0  0  0  0  0  0  0  0  0  0  0
   38.9609   11.9319  -16.4868 C   0  0  0  0  0  0  0  0  0  0  0  0
   38.9596   10.9886  -17.4800 C   0  0  0  0  0  0  0  0  0  0  0  0
   40.0642   10.8404  -18.2760 C   0  0  0  0  0  0  0  0  0  0  0  0
   41.1562   11.6401  -18.0658 C   0  0  0  0  0  0  0  0  0  0  0  0
   41.1544   12.5996  -17.0537 C   0  0  0  0  0  0  0  0  0  0  0  0
   40.0554   12.7566  -16.2516 C   0  0  0  0  0  0  0  0  0  0  0  0
   37.5234   12.1206  -15.4545 S   0  0  0  0  0  0  0  0  0  0  0  0
   34.8484   11.9790  -15.5578 C   0  0  0  0  0  0  0  0  0  0  0  0
   36.0590   11.3500  -16.2056 C   0  0  0  0  0  0  0  0  0  0  0  0
 37 38  1  0  0  0
 38 36  1  0  0  0
 36 30  1  0  0  0
 30 31  2  0  0  0
 31 32  1  0  0  0
 32 33  2  0  0  0
 33 34  1  0  0  0
 34 35  2  0  0  0
 35 28  1  0  0  0
 28 29  2  0  0  0
 29 26  1  0  0  0
 26 27  2  0  0  0
 26 25  1  0  0  0
 25  1  1  0  0  0
  1  2  1  0  0  0
  2  3  1  0  0  0
  3  4  1  0  0  0
  4  5  1  0  0  0
  5  6  1  0  0  0
  6  7  1  0  0  0
  7  8  1  0  0  0
  8 15  1  0  0  0
 15 16  2  0  0  0
 15 17  1  0  0  0
 17 19  1  0  0  0
 19 20  2  0  0  0
 20 21  1  0  0  0
 21 22  2  0  0  0
 22 23  1  0  0  0
 23 24  2  0  0  0
  8  9  1  0  0  0
  9 10  2  0  0  0
 10 11  1  0  0  0
 11 12  2  0  0  0
 12 13  1  0  0  0
 13 14  2  0  0  0
 35 30  1  0  0  0
 14  1  1  0  0  0
  7  3  1  0  0  0
 24 19  1  0  0  0
 14  9  1  0  0  0
 17 18  1  0  0  0
M  END
> <minimizedAffinity>
-8.33329

> <CNNscore>
0.1331119984

> <CNNaffinity>
6.5470914841

> <CNN_VS>
0.8714964390

> <CNNaffinity_variance>
0.0850889757

$$$$
[H]/C(C(=O)O[C@@]1([H])c2c([H])c([H])c([H])c([H])c2[C@]([H])(C(=O)N([H])c2c([H])c([H])c([H])c([H])c2[H])[C@@]2([H])N(C([H])([H])C([H])([H])C2([H])[H])C1([H])[H])=C(/[H])c1c([H])c([H])c([H])c([H])c1SC([H])([H])C([H])([H])[H]


 38 42  0  0  0  0  0  0  0  0999 V2000
   43.3305   13.9783  -12.4481 C   0  0  0  0  0  0  0  0  0  0  0  0
   43.0185   15.1373  -11.5372 C   0  0  0  0  0  0  0  0  0  0  0  0
   43.5929   15.0883  -10.2408 N   0  0  0  0  0  0  0  0  0  0  0  0
   42.9360   16.0498   -9.3842 C   0  0  0  0  0  0  0  0  0  0  0  0
   43.9958   16.5853   -8.4496 C   0  0  0  0  0  0  0  0  0  0  0  0
   45.3184   16.3307   -9.1364 C   0  0  0  0  0  0  0  0  0  0  0  0
   44.9950   15.4298  -10.2537 C   0  0  0  0  0  0  0  0  0  0  0  0
   45.7473   14.1200  -10.3067 C   0  0  0  0  0  0  0  0  0  0  0  0
   45.7808   13.6644  -11.7284 C   0  0  0  0  0  0  0  0  0  0  0  0
   47.0439   13.2746  -12.0766 C   0  0  0  0  0  0  0  0  0  0  0  0
   47.3049   12.8123  -13.3653 C   0  0  0  0  0  0  0  0  0  0  0  0
   46.2739   12.7609  -14.2593 C   0  0  0  0  0  0  0  0  0  0  0  0
   44.9969   13.1665  -13.8704 C   0  0  0  0  0  0  0  0  0  0  0  0
   44.7240   13.6249  -12.6024 C   0  0  0  0  0  0  0  0  0  0  0  0
   45.0212   13.0755   -9.4783 C   0  0  0  0  0  0  0  0  0  0  0  0
   44.6071   12.0473  -10.0671 O   0  0  0  0  0  0  0  0  0  0  0  0
   44.8301   13.2721   -8.0962 N   0  0  0  0  0  0  0  0  0  0  0  0
   45.2110   14.1470   -7.6174 H   0  0  0  0  0  0  0  0  0  0  0  0
   44.1553   12.3771   -7.2223 C   0  0  0  0  0  0  0  0  0  0  0  0
   42.8222   12.4569   -6.9027 C   0  0  0  0  0  0  0  0  0  0  0  0
   42.2576   11.5040   -6.0458 C   0  0  0  0  0  0  0  0  0  0  0  0
   42.9909   10.4790   -5.5032 C   0  0  0  0  0  0  0  0  0  0  0  0
   44.3294   10.3925   -5.8183 C   0  0  0  0  0  0  0  0  0  0  0  0
   44.8670   11.3152   -6.6460 C   0  0  0  0  0  0  0  0  0  0  0  0
   42.8233   14.3741  -13.7173 O   0  0  0  0  0  0  0  0  0  0  0  0
   41.4772   14.2306  -14.0647 C   0  0  0  0  0  0  0  0  0  0  0  0
   40.6512   14.8530  -13.3865 O   0  0  0  0  0  0  0  0  0  0  0  0
   39.9093   13.1762  -15.5899 C   0  0  0  0  0  0  0  0  0  0  0  0
   41.1478   13.3619  -15.1947 C   0  0  0  0  0  0  0  0  0  0  0  0
   38.3048   11.6613  -16.6420 C   0  0  0  0  0  0  0  0  0  0  0  0
   37.8713   10.8466  -17.6542 C   0  0  0  0  0  0  0  0  0  0  0  0
   38.6513   10.6732  -18.7665 C   0  0  0  0  0  0  0  0  0  0  0  0
   39.8562   11.3191  -18.8497 C   0  0  0  0  0  0  0  0  0  0  0  0
   40.2948   12.1481  -17.8174 C   0  0  0  0  0  0  0  0  0  0  0  0
   39.5232   12.3288  -16.7004 C   0  0  0  0  0  0  0  0  0  0  0  0
   37.2881   11.8833  -15.1981 S   0  0  0  0  0  0  0  0  0  0  0  0
   35.2245   13.3299  -14.2844 C   0  0  0  0  0  0  0  0  0  0  0  0
   35.7673   12.7978  -15.5894 C   0  0  0  0  0  0  0  0  0  0  0  0
 37 38  1  0  0  0
 38 36  1  0  0  0
 36 30  1  0  0  0
 30 31  2  0  0  0
 31 32  1  0  0  0
 32 33  2  0  0  0
 33 34  1  0  0  0
 34 35  2  0  0  0
 35 28  1  0  0  0
 28 29  2  0  0  0
 29 26  1  0  0  0
 26 27  2  0  0  0
 26 25  1  0  0  0
 25  1  1  0  0  0
  1  2  1  0  0  0
  2  3  1  0  0  0
  3  4  1  0  0  0
  4  5  1  0  0  0
  5  6  1  0  0  0
  6  7  1  0  0  0
  7  8  1  0  0  0
  8 15  1  0  0  0
 15 16  2  0  0  0
 15 17  1  0  0  0
 17 19  1  0  0  0
 19 20  2  0  0  0
 20 21  1  0  0  0
 21 22  2  0  0  0
 22 23  1  0  0  0
 23 24  2  0  0  0
  8  9  1  0  0  0
  9 10  2  0  0  0
 10 11  1  0  0  0
 11 12  2  0  0  0
 12 13  1  0  0  0
 13 14  2  0  0  0
 35 30  1  0  0  0
 14  1  1  0  0  0
  7  3  1  0  0  0
 24 19  1  0  0  0
 14  9  1  0  0  0
 17 18  1  0  0  0
M  END
> <minimizedAffinity>
-7.82875

> <CNNscore>
0.1269208193

> <CNNaffinity>
6.2089014053

> <CNN_VS>
0.7880388498

> <CNNaffinity_variance>
0.0382527821

$$$$
[H]/C(C(=O)O[C@@]1([H])c2c([H])c([H])c([H])c([H])c2[C@]([H])(C(=O)N([H])c2c([H])c([H])c([H])c([H])c2[H])[C@@]2([H])N(C([H])([H])C([H])([H])C2([H])[H])C1([H])[H])=C(/[H])c1c([H])c([H])c([H])c([H])c1SC([H])([H])C([H])([H])[H]


 38 42  0  0  0  0  0  0  0  0999 V2000
   42.1502   15.5572  -11.2006 C   0  0  0  0  0  0  0  0  0  0  0  0
   41.6198   16.1680   -9.9294 C   0  0  0  0  0  0  0  0  0  0  0  0
   42.3408   15.8731   -8.7436 N   0  0  0  0  0  0  0  0  0  0  0  0
   41.5373   16.2152   -7.5915 C   0  0  0  0  0  0  0  0  0  0  0  0
   42.4945   16.7176   -6.5357 C   0  0  0  0  0  0  0  0  0  0  0  0
   43.7345   17.1595   -7.2793 C   0  0  0  0  0  0  0  0  0  0  0  0
   43.5604   16.6381   -8.6442 C   0  0  0  0  0  0  0  0  0  0  0  0
   44.6608   15.7476   -9.1740 C   0  0  0  0  0  0  0  0  0  0  0  0
   44.6509   15.8391  -10.6645 C   0  0  0  0  0  0  0  0  0  0  0  0
   45.9182   16.0275  -11.1410 C   0  0  0  0  0  0  0  0  0  0  0  0
   46.1420   16.1425  -12.5118 C   0  0  0  0  0  0  0  0  0  0  0  0
   45.0708   16.0627  -13.3549 C   0  0  0  0  0  0  0  0  0  0  0  0
   43.7907   15.8699  -12.8346 C   0  0  0  0  0  0  0  0  0  0  0  0
   43.5542   15.7546  -11.4844 C   0  0  0  0  0  0  0  0  0  0  0  0
   44.3953   14.3076   -8.7735 C   0  0  0  0  0  0  0  0  0  0  0  0
   44.2411   13.4651   -9.6908 O   0  0  0  0  0  0  0  0  0  0  0  0
   44.3295   13.9495   -7.4123 N   0  0  0  0  0  0  0  0  0  0  0  0
   44.4849   14.6834   -6.6526 H   0  0  0  0  0  0  0  0  0  0  0  0
   44.0729   12.6428   -6.9156 C   0  0  0  0  0  0  0  0  0  0  0  0
   45.0239   11.6624   -6.7738 C   0  0  0  0  0  0  0  0  0  0  0  0
   44.6598   10.4154   -6.2509 C   0  0  0  0  0  0  0  0  0  0  0  0
   43.3738   10.1269   -5.8690 C   0  0  0  0  0  0  0  0  0  0  0  0
   42.4136   11.1051   -6.0088 C   0  0  0  0  0  0  0  0  0  0  0  0
   42.7724   12.3059   -6.5137 C   0  0  0  0  0  0  0  0  0  0  0  0
   41.3912   16.1707  -12.2362 O   0  0  0  0  0  0  0  0  0  0  0  0
   40.2679   15.5625  -12.8034 C   0  0  0  0  0  0  0  0  0  0  0  0
   39.1725   15.8069  -12.2836 O   0  0  0  0  0  0  0  0  0  0  0  0
   39.5045   13.9379  -14.4386 C   0  0  0  0  0  0  0  0  0  0  0  0
   40.4692   14.6889  -13.9594 C   0  0  0  0  0  0  0  0  0  0  0  0
   38.6675   12.0920  -15.8055 C   0  0  0  0  0  0  0  0  0  0  0  0
   38.7305   11.2247  -16.8639 C   0  0  0  0  0  0  0  0  0  0  0  0
   39.7839   11.2948  -17.7364 C   0  0  0  0  0  0  0  0  0  0  0  0
   40.7607   12.2338  -17.5364 C   0  0  0  0  0  0  0  0  0  0  0  0
   40.6938   13.1155  -16.4578 C   0  0  0  0  0  0  0  0  0  0  0  0
   39.6451   13.0545  -15.5790 C   0  0  0  0  0  0  0  0  0  0  0  0
   37.2970   11.9969  -14.6739 S   0  0  0  0  0  0  0  0  0  0  0  0
   35.7764   14.2026  -14.5815 C   0  0  0  0  0  0  0  0  0  0  0  0
   35.8444   12.8827  -15.3122 C   0  0  0  0  0  0  0  0  0  0  0  0
 37 38  1  0  0  0
 38 36  1  0  0  0
 36 30  1  0  0  0
 30 31  2  0  0  0
 31 32  1  0  0  0
 32 33  2  0  0  0
 33 34  1  0  0  0
 34 35  2  0  0  0
 35 28  1  0  0  0
 28 29  2  0  0  0
 29 26  1  0  0  0
 26 27  2  0  0  0
 26 25  1  0  0  0
 25  1  1  0  0  0
  1  2  1  0  0  0
  2  3  1  0  0  0
  3  4  1  0  0  0
  4  5  1  0  0  0
  5  6  1  0  0  0
  6  7  1  0  0  0
  7  8  1  0  0  0
  8 15  1  0  0  0
 15 16  2  0  0  0
 15 17  1  0  0  0
 17 19  1  0  0  0
 19 20  2  0  0  0
 20 21  1  0  0  0
 21 22  2  0  0  0
 22 23  1  0  0  0
 23 24  2  0  0  0
  8  9  1  0  0  0
  9 10  2  0  0  0
 10 11  1  0  0  0
 11 12  2  0  0  0
 12 13  1  0  0  0
 13 14  2  0  0  0
 35 30  1  0  0  0
 14  1  1  0  0  0
  7  3  1  0  0  0
 24 19  1  0  0  0
 14  9  1  0  0  0
 17 18  1  0  0  0
M  END
> <minimizedAffinity>
-8.17617

> <CNNscore>
0.1200331897

> <CNNaffinity>
5.9077787399

> <CNN_VS>
0.7091295123

> <CNNaffinity_variance>
0.1159560233

$$$$
[H]/C(C(=O)O[C@@]1([H])c2c([H])c([H])c([H])c([H])c2[C@]([H])(C(=O)N([H])c2c([H])c([H])c([H])c([H])c2[H])[C@@]2([H])N(C([H])([H])C([H])([H])C2([H])[H])C1([H])[H])=C(/[H])c1c([H])c([H])c([H])c([H])c1SC([H])([H])C([H])([H])[H]


 38 42  0  0  0  0  0  0  0  0999 V2000
   39.5994   15.9207   -8.3891 C   0  0  0  0  0  0  0  0  0  0  0  0
   39.8130   14.4323   -8.2926 C   0  0  0  0  0  0  0  0  0  0  0  0
   40.7995   13.9989   -7.3696 N   0  0  0  0  0  0  0  0  0  0  0  0
   41.1398   12.6197   -7.6377 C   0  0  0  0  0  0  0  0  0  0  0  0
   41.4246   11.9807   -6.2982 C   0  0  0  0  0  0  0  0  0  0  0  0
   40.7237   12.8424   -5.2725 C   0  0  0  0  0  0  0  0  0  0  0  0
   40.3310   14.0560   -6.0058 C   0  0  0  0  0  0  0  0  0  0  0  0
   40.8201   15.3725   -5.4470 C   0  0  0  0  0  0  0  0  0  0  0  0
   39.8714   16.4399   -5.8838 C   0  0  0  0  0  0  0  0  0  0  0  0
   39.5338   17.2412   -4.8290 C   0  0  0  0  0  0  0  0  0  0  0  0
   38.6537   18.3065   -5.0112 C   0  0  0  0  0  0  0  0  0  0  0  0
   38.1445   18.5234   -6.2595 C   0  0  0  0  0  0  0  0  0  0  0  0
   38.5103   17.6861   -7.3138 C   0  0  0  0  0  0  0  0  0  0  0  0
   39.3777   16.6310   -7.1494 C   0  0  0  0  0  0  0  0  0  0  0  0
   42.1968   15.6882   -6.0032 C   0  0  0  0  0  0  0  0  0  0  0  0
   43.1664   15.0124   -5.5811 O   0  0  0  0  0  0  0  0  0  0  0  0
   42.3589   16.7084   -6.9614 N   0  0  0  0  0  0  0  0  0  0  0  0
   41.5132   17.2539   -7.3179 H   0  0  0  0  0  0  0  0  0  0  0  0
   43.5942   17.1047   -7.5420 C   0  0  0  0  0  0  0  0  0  0  0  0
   44.5365   17.8818   -6.9144 C   0  0  0  0  0  0  0  0  0  0  0  0
   45.7307   18.1919   -7.5769 C   0  0  0  0  0  0  0  0  0  0  0  0
   46.0031   17.7462   -8.8457 C   0  0  0  0  0  0  0  0  0  0  0  0
   45.0624   16.9666   -9.4825 C   0  0  0  0  0  0  0  0  0  0  0  0
   43.9128   16.6711   -8.8370 C   0  0  0  0  0  0  0  0  0  0  0  0
   38.4412   16.0639   -9.2033 O   0  0  0  0  0  0  0  0  0  0  0  0
   38.5125   16.1848  -10.5938 C   0  0  0  0  0  0  0  0  0  0  0  0
   39.0826   17.1860  -11.0435 O   0  0  0  0  0  0  0  0  0  0  0  0
   38.3114   14.8843  -12.6345 C   0  0  0  0  0  0  0  0  0  0  0  0
   37.9122   15.1275  -11.4074 C   0  0  0  0  0  0  0  0  0  0  0  0
   38.5625   13.2843  -14.4656 C   0  0  0  0  0  0  0  0  0  0  0  0
   38.1079   12.3021  -15.3053 C   0  0  0  0  0  0  0  0  0  0  0  0
   36.8189   11.8539  -15.1896 C   0  0  0  0  0  0  0  0  0  0  0  0
   36.0022   12.3964  -14.2332 C   0  0  0  0  0  0  0  0  0  0  0  0
   36.4680   13.3963  -13.3798 C   0  0  0  0  0  0  0  0  0  0  0  0
   37.7551   13.8522  -13.4864 C   0  0  0  0  0  0  0  0  0  0  0  0
   40.2382   13.8640  -14.6200 S   0  0  0  0  0  0  0  0  0  0  0  0
   41.6735   12.5475  -16.4620 C   0  0  0  0  0  0  0  0  0  0  0  0
   40.8141   13.7835  -16.3417 C   0  0  0  0  0  0  0  0  0  0  0  0
 37 38  1  0  0  0
 38 36  1  0  0  0
 36 30  1  0  0  0
 30 31  2  0  0  0
 31 32  1  0  0  0
 32 33  2  0  0  0
 33 34  1  0  0  0
 34 35  2  0  0  0
 35 28  1  0  0  0
 28 29  2  0  0  0
 29 26  1  0  0  0
 26 27  2  0  0  0
 26 25  1  0  0  0
 25  1  1  0  0  0
  1  2  1  0  0  0
  2  3  1  0  0  0
  3  4  1  0  0  0
  4  5  1  0  0  0
  5  6  1  0  0  0
  6  7  1  0  0  0
  7  8  1  0  0  0
  8 15  1  0  0  0
 15 16  2  0  0  0
 15 17  1  0  0  0
 17 19  1  0  0  0
 19 20  2  0  0  0
 20 21  1  0  0  0
 21 22  2  0  0  0
 22 23  1  0  0  0
 23 24  2  0  0  0
  8  9  1  0  0  0
  9 10  2  0  0  0
 10 11  1  0  0  0
 11 12  2  0  0  0
 12 13  1  0  0  0
 13 14  2  0  0  0
 35 30  1  0  0  0
 14  1  1  0  0  0
  7  3  1  0  0  0
 24 19  1  0  0  0
 14  9  1  0  0  0
 17 18  1  0  0  0
M  END
> <minimizedAffinity>
-7.00700

> <CNNscore>
0.1179114655

> <CNNaffinity>
5.9287338257

> <CNN_VS>
0.6990656853

> <CNNaffinity_variance>
0.0874433964

$$$$
[H]/C(C(=O)O[C@@]1([H])c2c([H])c([H])c([H])c([H])c2[C@]([H])(C(=O)N([H])c2c([H])c([H])c([H])c([H])c2[H])[C@@]2([H])N(C([H])([H])C([H])([H])C2([H])[H])C1([H])[H])=C(/[H])c1c([H])c([H])c([H])c([H])c1SC([H])([H])C([H])([H])[H]


 38 42  0  0  0  0  0  0  0  0999 V2000
   38.0621   16.2976   -9.1361 C   0  0  0  0  0  0  0  0  0  0  0  0
   37.4937   15.1096   -8.4041 C   0  0  0  0  0  0  0  0  0  0  0  0
   37.9487   14.9159   -7.0743 N   0  0  0  0  0  0  0  0  0  0  0  0
   37.6094   13.5805   -6.6368 C   0  0  0  0  0  0  0  0  0  0  0  0
   37.2890   13.6809   -5.1634 C   0  0  0  0  0  0  0  0  0  0  0  0
   36.9266   15.1280   -4.9176 C   0  0  0  0  0  0  0  0  0  0  0  0
   37.3254   15.8300   -6.1476 C   0  0  0  0  0  0  0  0  0  0  0  0
   38.2855   16.9862   -5.9860 C   0  0  0  0  0  0  0  0  0  0  0  0
   38.0845   17.9168   -7.1365 C   0  0  0  0  0  0  0  0  0  0  0  0
   37.9960   19.2084   -6.6977 C   0  0  0  0  0  0  0  0  0  0  0  0
   37.8051   20.2466   -7.6077 C   0  0  0  0  0  0  0  0  0  0  0  0
   37.7100   19.9393   -8.9348 C   0  0  0  0  0  0  0  0  0  0  0  0
   37.8047   18.6102   -9.3482 C   0  0  0  0  0  0  0  0  0  0  0  0
   37.9931   17.5749   -8.4620 C   0  0  0  0  0  0  0  0  0  0  0  0
   39.7150   16.4764   -6.0169 C   0  0  0  0  0  0  0  0  0  0  0  0
   40.4653   16.8961   -6.9313 O   0  0  0  0  0  0  0  0  0  0  0  0
   40.1651   15.5643   -5.0418 N   0  0  0  0  0  0  0  0  0  0  0  0
   39.5108   15.2396   -4.2631 H   0  0  0  0  0  0  0  0  0  0  0  0
   41.4706   15.0064   -4.9757 C   0  0  0  0  0  0  0  0  0  0  0  0
   41.8316   13.8007   -5.5247 C   0  0  0  0  0  0  0  0  0  0  0  0
   43.1565   13.3599   -5.4171 C   0  0  0  0  0  0  0  0  0  0  0  0
   44.1237   14.0924   -4.7760 C   0  0  0  0  0  0  0  0  0  0  0  0
   43.7693   15.3030   -4.2218 C   0  0  0  0  0  0  0  0  0  0  0  0
   42.4893   15.7218   -4.3301 C   0  0  0  0  0  0  0  0  0  0  0  0
   37.2982   16.3790  -10.3338 O   0  0  0  0  0  0  0  0  0  0  0  0
   37.7802   15.9208  -11.5630 C   0  0  0  0  0  0  0  0  0  0  0  0
   38.9928   16.0435  -11.7735 O   0  0  0  0  0  0  0  0  0  0  0  0
   36.6310   14.0389  -12.5798 C   0  0  0  0  0  0  0  0  0  0  0  0
   36.8230   15.3356  -12.5019 C   0  0  0  0  0  0  0  0  0  0  0  0
   36.1771   12.4541  -14.3850 C   0  0  0  0  0  0  0  0  0  0  0  0
   35.3556   11.8092  -15.2713 C   0  0  0  0  0  0  0  0  0  0  0  0
   34.0167   12.0970  -15.2879 C   0  0  0  0  0  0  0  0  0  0  0  0
   33.5186   13.0280  -14.4155 C   0  0  0  0  0  0  0  0  0  0  0  0
   34.3576   13.6830  -13.5142 C   0  0  0  0  0  0  0  0  0  0  0  0
   35.6981   13.4032  -13.4888 C   0  0  0  0  0  0  0  0  0  0  0  0
   37.9165   12.0773  -14.3674 S   0  0  0  0  0  0  0  0  0  0  0  0
   38.8150   11.3241  -16.7781 C   0  0  0  0  0  0  0  0  0  0  0  0
   38.7188   12.5653  -15.9231 C   0  0  0  0  0  0  0  0  0  0  0  0
 37 38  1  0  0  0
 38 36  1  0  0  0
 36 30  1  0  0  0
 30 31  2  0  0  0
 31 32  1  0  0  0
 32 33  2  0  0  0
 33 34  1  0  0  0
 34 35  2  0  0  0
 35 28  1  0  0  0
 28 29  2  0  0  0
 29 26  1  0  0  0
 26 27  2  0  0  0
 26 25  1  0  0  0
 25  1  1  0  0  0
  1  2  1  0  0  0
  2  3  1  0  0  0
  3  4  1  0  0  0
  4  5  1  0  0  0
  5  6  1  0  0  0
  6  7  1  0  0  0
  7  8  1  0  0  0
  8 15  1  0  0  0
 15 16  2  0  0  0
 15 17  1  0  0  0
 17 19  1  0  0  0
 19 20  2  0  0  0
 20 21  1  0  0  0
 21 22  2  0  0  0
 22 23  1  0  0  0
 23 24  2  0  0  0
  8  9  1  0  0  0
  9 10  2  0  0  0
 10 11  1  0  0  0
 11 12  2  0  0  0
 12 13  1  0  0  0
 13 14  2  0  0  0
 35 30  1  0  0  0
 14  1  1  0  0  0
  7  3  1  0  0  0
 24 19  1  0  0  0
 14  9  1  0  0  0
 17 18  1  0  0  0
M  END
> <minimizedAffinity>
-7.28728

> <CNNscore>
0.1168602556

> <CNNaffinity>
5.8221840858

> <CNN_VS>
0.6803818941

> <CNNaffinity_variance>
0.2013835907

$$$$
[H]OC1(C([H])([H])N2C(=O)N(C3([H])C([H])([H])C3([H])[H])C([H])([H])[C@]2([H])c2c([H])sc([H])c2[H])C([H])([H])c2c([H])c([H])c([H])c([H])c2C1([H])[H]


 26 30  0  0  0  0  0  0  0  0999 V2000
   40.9326   14.1111   -7.3226 N   0  0  0  0  0  0  0  0  0  0  0  0
   41.2247   15.4798   -7.6090 C   0  0  0  0  0  0  0  0  0  0  0  0
   40.1964   16.2446   -6.8492 C   0  0  0  0  0  0  0  0  0  0  0  0
   39.1037   15.3413   -6.5443 N   0  0  0  0  0  0  0  0  0  0  0  0
   39.5756   14.0462   -6.9008 C   0  0  0  0  0  0  0  0  0  0  0  0
   38.8143   13.0287   -6.8202 O   0  0  0  0  0  0  0  0  0  0  0  0
   41.1595   15.7666   -9.1024 C   0  0  0  0  0  0  0  0  0  0  0  0
   40.0404   16.1177   -9.7453 C   0  0  0  0  0  0  0  0  0  0  0  0
   40.1246   16.3471  -11.0925 C   0  0  0  0  0  0  0  0  0  0  0  0
   41.7724   16.0638  -11.4215 S   0  0  0  0  0  0  0  0  0  0  0  0
   42.3052   15.6652   -9.8529 C   0  0  0  0  0  0  0  0  0  0  0  0
   37.8248   15.7128   -5.9973 C   0  0  0  0  0  0  0  0  0  0  0  0
   37.6188   15.5915   -4.4933 C   0  0  0  0  0  0  0  0  0  0  0  0
   37.6844   16.9119   -5.1314 C   0  0  0  0  0  0  0  0  0  0  0  0
   41.8145   12.9891   -7.4280 C   0  0  0  0  0  0  0  0  0  0  0  0
   42.5626   13.3716   -5.1698 O   0  0  0  0  0  0  0  0  0  0  0  0
   42.2731   12.4174   -6.1376 C   0  0  0  0  0  0  0  0  0  0  0  0
   43.5989   11.6927   -6.4109 C   0  0  0  0  0  0  0  0  0  0  0  0
   43.6208   10.6537   -5.3479 C   0  0  0  0  0  0  0  0  0  0  0  0
   44.6856    9.9239   -4.8612 C   0  0  0  0  0  0  0  0  0  0  0  0
   44.5425    8.9885   -3.8637 C   0  0  0  0  0  0  0  0  0  0  0  0
   43.2740    8.8101   -3.3661 C   0  0  0  0  0  0  0  0  0  0  0  0
   42.1925    9.5264   -3.8348 C   0  0  0  0  0  0  0  0  0  0  0  0
   42.3656   10.4548   -4.8326 C   0  0  0  0  0  0  0  0  0  0  0  0
   41.4005   11.3721   -5.5369 C   0  0  0  0  0  0  0  0  0  0  0  0
   43.2310   13.9892   -5.5489 H   0  0  0  0  0  0  0  0  0  0  0  0
 16 17  1  0  0  0
 17 15  1  0  0  0
 15  1  1  0  0  0
  1  2  1  0  0  0
  2  3  1  0  0  0
  3  4  1  0  0  0
  4 12  1  0  0  0
 12 13  1  0  0  0
 13 14  1  0  0  0
  4  5  1  0  0  0
  5  6  2  0  0  0
  2  7  1  0  0  0
  7  8  1  0  0  0
  8  9  2  0  0  0
  9 10  1  0  0  0
 10 11  1  0  0  0
 17 18  1  0  0  0
 18 19  1  0  0  0
 19 20  2  0  0  0
 20 21  1  0  0  0
 21 22  2  0  0  0
 22 23  1  0  0  0
 23 24  2  0  0  0
 24 25  1  0  0  0
 25 17  1  0  0  0
  5  1  1  0  0  0
 11  7  2  0  0  0
 24 19  1  0  0  0
 14 12  1  0  0  0
 16 26  1  0  0  0
M  END
> <minimizedAffinity>
-5.59779

> <CNNscore>
0.2646780610

> <CNNaffinity>
4.5147089958

> <CNN_VS>
1.1949443817

> <CNNaffinity_variance>
0.1952489316

$$$$
[H]OC1(C([H])([H])N2C(=O)N(C3([H])C([H])([H])C3([H])[H])C([H])([H])[C@]2([H])c2c([H])sc([H])c2[H])C([H])([H])c2c([H])c([H])c([H])c([H])c2C1([H])[H]


 26 30  0  0  0  0  0  0  0  0999 V2000
   38.6939   14.2838   -6.7467 N   0  0  0  0  0  0  0  0  0  0  0  0
   38.3681   15.6537   -6.5062 C   0  0  0  0  0  0  0  0  0  0  0  0
   37.2782   15.6023   -5.4918 C   0  0  0  0  0  0  0  0  0  0  0  0
   36.7027   14.2715   -5.5223 N   0  0  0  0  0  0  0  0  0  0  0  0
   37.5722   13.5047   -6.3487 C   0  0  0  0  0  0  0  0  0  0  0  0
   37.2998   12.2948   -6.6376 O   0  0  0  0  0  0  0  0  0  0  0  0
   37.9263   16.3572   -7.7816 C   0  0  0  0  0  0  0  0  0  0  0  0
   36.6573   16.4124   -8.2004 C   0  0  0  0  0  0  0  0  0  0  0  0
   36.3999   17.0800   -9.3678 C   0  0  0  0  0  0  0  0  0  0  0  0
   37.9459   17.6129   -9.8468 S   0  0  0  0  0  0  0  0  0  0  0  0
   38.8694   16.9788   -8.5627 C   0  0  0  0  0  0  0  0  0  0  0  0
   35.5028   13.8516   -4.8466 C   0  0  0  0  0  0  0  0  0  0  0  0
   35.5860   13.5234   -3.3619 C   0  0  0  0  0  0  0  0  0  0  0  0
   34.8625   14.7152   -3.8212 C   0  0  0  0  0  0  0  0  0  0  0  0
   39.9105   13.7566   -7.2849 C   0  0  0  0  0  0  0  0  0  0  0  0
   40.0161   12.5323   -5.2124 O   0  0  0  0  0  0  0  0  0  0  0  0
   40.7068   12.9183   -6.3547 C   0  0  0  0  0  0  0  0  0  0  0  0
   41.8755   13.7813   -5.8574 C   0  0  0  0  0  0  0  0  0  0  0  0
   42.9109   12.7639   -5.5368 C   0  0  0  0  0  0  0  0  0  0  0  0
   44.0347   12.8805   -4.7452 C   0  0  0  0  0  0  0  0  0  0  0  0
   44.9054   11.8354   -4.5443 C   0  0  0  0  0  0  0  0  0  0  0  0
   44.6025   10.6532   -5.1759 C   0  0  0  0  0  0  0  0  0  0  0  0
   43.4856   10.5100   -5.9725 C   0  0  0  0  0  0  0  0  0  0  0  0
   42.6331   11.5718   -6.1552 C   0  0  0  0  0  0  0  0  0  0  0  0
   41.3616   11.7210   -6.9488 C   0  0  0  0  0  0  0  0  0  0  0  0
   39.6880   13.3501   -4.7703 H   0  0  0  0  0  0  0  0  0  0  0  0
 16 17  1  0  0  0
 17 15  1  0  0  0
 15  1  1  0  0  0
  1  2  1  0  0  0
  2  3  1  0  0  0
  3  4  1  0  0  0
  4 12  1  0  0  0
 12 13  1  0  0  0
 13 14  1  0  0  0
  4  5  1  0  0  0
  5  6  2  0  0  0
  2  7  1  0  0  0
  7  8  1  0  0  0
  8  9  2  0  0  0
  9 10  1  0  0  0
 10 11  1  0  0  0
 17 18  1  0  0  0
 18 19  1  0  0  0
 19 20  2  0  0  0
 20 21  1  0  0  0
 21 22  2  0  0  0
 22 23  1  0  0  0
 23 24  2  0  0  0
 24 25  1  0  0  0
 25 17  1  0  0  0
  5  1  1  0  0  0
 11  7  2  0  0  0
 24 19  1  0  0  0
 14 12  1  0  0  0
 16 26  1  0  0  0
M  END
> <minimizedAffinity>
-5.76612

> <CNNscore>
0.2562989295

> <CNNaffinity>
4.2654633522

> <CNN_VS>
1.0932337046

> <CNNaffinity_variance>
0.4420997500

$$$$
[H]OC1(C([H])([H])N2C(=O)N(C3([H])C([H])([H])C3([H])[H])C([H])([H])[C@]2([H])c2c([H])sc([H])c2[H])C([H])([H])c2c([H])c([H])c([H])c([H])c2C1([H])[H]


 26 30  0  0  0  0  0  0  0  0999 V2000
   36.4119   13.8819  -12.8957 N   0  0  0  0  0  0  0  0  0  0  0  0
   36.8451   14.5041  -14.1064 C   0  0  0  0  0  0  0  0  0  0  0  0
   35.7622   14.2042  -15.0846 C   0  0  0  0  0  0  0  0  0  0  0  0
   35.0036   13.0766  -14.5786 N   0  0  0  0  0  0  0  0  0  0  0  0
   35.4713   12.8750  -13.2491 C   0  0  0  0  0  0  0  0  0  0  0  0
   35.0481   11.8992  -12.5490 O   0  0  0  0  0  0  0  0  0  0  0  0
   38.1920   13.9628  -14.5643 C   0  0  0  0  0  0  0  0  0  0  0  0
   38.3368   12.8733  -15.3263 C   0  0  0  0  0  0  0  0  0  0  0  0
   39.6089   12.4975  -15.6659 C   0  0  0  0  0  0  0  0  0  0  0  0
   40.5683   13.6834  -14.9066 S   0  0  0  0  0  0  0  0  0  0  0  0
   39.3386   14.6163  -14.1846 C   0  0  0  0  0  0  0  0  0  0  0  0
   33.9975   12.3405  -15.2989 C   0  0  0  0  0  0  0  0  0  0  0  0
   34.4500   11.2630  -16.2752 C   0  0  0  0  0  0  0  0  0  0  0  0
   33.7670   10.8980  -15.0281 C   0  0  0  0  0  0  0  0  0  0  0  0
   36.8242   14.1881  -11.5600 C   0  0  0  0  0  0  0  0  0  0  0  0
   35.5896   16.2250  -11.9237 O   0  0  0  0  0  0  0  0  0  0  0  0
   36.4410   15.5351  -11.0693 C   0  0  0  0  0  0  0  0  0  0  0  0
   37.7257   16.3735  -11.0027 C   0  0  0  0  0  0  0  0  0  0  0  0
   37.4080   17.3622   -9.9391 C   0  0  0  0  0  0  0  0  0  0  0  0
   38.0116   18.5713   -9.6615 C   0  0  0  0  0  0  0  0  0  0  0  0
   37.5971   19.3818   -8.6310 C   0  0  0  0  0  0  0  0  0  0  0  0
   36.5403   18.9277   -7.8791 C   0  0  0  0  0  0  0  0  0  0  0  0
   35.9192   17.7231   -8.1354 C   0  0  0  0  0  0  0  0  0  0  0  0
   36.3550   16.9339   -9.1720 C   0  0  0  0  0  0  0  0  0  0  0  0
   35.8904   15.5972   -9.6879 C   0  0  0  0  0  0  0  0  0  0  0  0
   36.0260   16.2731  -12.8064 H   0  0  0  0  0  0  0  0  0  0  0  0
 16 17  1  0  0  0
 17 15  1  0  0  0
 15  1  1  0  0  0
  1  2  1  0  0  0
  2  3  1  0  0  0
  3  4  1  0  0  0
  4 12  1  0  0  0
 12 13  1  0  0  0
 13 14  1  0  0  0
  4  5  1  0  0  0
  5  6  2  0  0  0
  2  7  1  0  0  0
  7  8  1  0  0  0
  8  9  2  0  0  0
  9 10  1  0  0  0
 10 11  1  0  0  0
 17 18  1  0  0  0
 18 19  1  0  0  0
 19 20  2  0  0  0
 20 21  1  0  0  0
 21 22  2  0  0  0
 22 23  1  0  0  0
 23 24  2  0  0  0
 24 25  1  0  0  0
 25 17  1  0  0  0
  5  1  1  0  0  0
 11  7  2  0  0  0
 24 19  1  0  0  0
 14 12  1  0  0  0
 16 26  1  0  0  0
M  END
> <minimizedAffinity>
-7.13221

> <CNNscore>
0.2382850945

> <CNNaffinity>
5.5749211311

> <CNN_VS>
1.3284206390

> <CNNaffinity_variance>
0.1701549739

$$$$
[H]OC1(C([H])([H])N2C(=O)N(C3([H])C([H])([H])C3([H])[H])C([H])([H])[C@]2([H])c2c([H])sc([H])c2[H])C([H])([H])c2c([H])c([H])c([H])c([H])c2C1([H])[H]


 26 30  0  0  0  0  0  0  0  0999 V2000
   37.0296   13.8765  -13.4722 N   0  0  0  0  0  0  0  0  0  0  0  0
   36.8669   12.4602  -13.5632 C   0  0  0  0  0  0  0  0  0  0  0  0
   38.2255   11.9528  -13.9042 C   0  0  0  0  0  0  0  0  0  0  0  0
   38.9928   13.0593  -14.4428 N   0  0  0  0  0  0  0  0  0  0  0  0
   38.1989   14.2174  -14.2071 C   0  0  0  0  0  0  0  0  0  0  0  0
   38.5667   15.3592  -14.6341 O   0  0  0  0  0  0  0  0  0  0  0  0
   35.8363   12.0807  -14.6170 C   0  0  0  0  0  0  0  0  0  0  0  0
   36.1465   11.7281  -15.8693 C   0  0  0  0  0  0  0  0  0  0  0  0
   35.1180   11.4100  -16.7152 C   0  0  0  0  0  0  0  0  0  0  0  0
   33.7424   11.6141  -15.7305 S   0  0  0  0  0  0  0  0  0  0  0  0
   34.5041   12.0938  -14.2837 C   0  0  0  0  0  0  0  0  0  0  0  0
   40.2825   12.9672  -15.0761 C   0  0  0  0  0  0  0  0  0  0  0  0
   40.3731   12.2897  -16.4369 C   0  0  0  0  0  0  0  0  0  0  0  0
   40.5830   13.7371  -16.3107 C   0  0  0  0  0  0  0  0  0  0  0  0
   36.1937   14.8092  -12.7799 C   0  0  0  0  0  0  0  0  0  0  0  0
   35.8524   13.9731  -10.5461 O   0  0  0  0  0  0  0  0  0  0  0  0
   36.4624   14.9472  -11.3270 C   0  0  0  0  0  0  0  0  0  0  0  0
   35.8458   16.2801  -10.8787 C   0  0  0  0  0  0  0  0  0  0  0  0
   36.6880   16.6451   -9.7094 C   0  0  0  0  0  0  0  0  0  0  0  0
   36.4287   17.5388   -8.6908 C   0  0  0  0  0  0  0  0  0  0  0  0
   37.3190   17.7685   -7.6685 C   0  0  0  0  0  0  0  0  0  0  0  0
   38.4951   17.0587   -7.7068 C   0  0  0  0  0  0  0  0  0  0  0  0
   38.7790   16.1595   -8.7134 C   0  0  0  0  0  0  0  0  0  0  0  0
   37.8702   15.9503   -9.7222 C   0  0  0  0  0  0  0  0  0  0  0  0
   37.8935   15.0538  -10.9324 C   0  0  0  0  0  0  0  0  0  0  0  0
   34.8858   13.9973  -10.7383 H   0  0  0  0  0  0  0  0  0  0  0  0
 16 17  1  0  0  0
 17 15  1  0  0  0
 15  1  1  0  0  0
  1  2  1  0  0  0
  2  3  1  0  0  0
  3  4  1  0  0  0
  4 12  1  0  0  0
 12 13  1  0  0  0
 13 14  1  0  0  0
  4  5  1  0  0  0
  5  6  2  0  0  0
  2  7  1  0  0  0
  7  8  1  0  0  0
  8  9  2  0  0  0
  9 10  1  0  0  0
 10 11  1  0  0  0
 17 18  1  0  0  0
 18 19  1  0  0  0
 19 20  2  0  0  0
 20 21  1  0  0  0
 21 22  2  0  0  0
 22 23  1  0  0  0
 23 24  2  0  0  0
 24 25  1  0  0  0
 25 17  1  0  0  0
  5  1  1  0  0  0
 11  7  2  0  0  0
 24 19  1  0  0  0
 14 12  1  0  0  0
 16 26  1  0  0  0
M  END
> <minimizedAffinity>
-7.00649

> <CNNscore>
0.2022900581

> <CNNaffinity>
5.8404078484

> <CNN_VS>
1.1814564466

> <CNNaffinity_variance>
0.2208072245

$$$$
[H]OC1(C([H])([H])N2C(=O)N(C3([H])C([H])([H])C3([H])[H])C([H])([H])[C@]2([H])c2c([H])sc([H])c2[H])C([H])([H])c2c([H])c([H])c([H])c([H])c2C1([H])[H]


 26 30  0  0  0  0  0  0  0  0999 V2000
   36.0970   13.7446  -13.4626 N   0  0  0  0  0  0  0  0  0  0  0  0
   36.1521   12.3255  -13.6167 C   0  0  0  0  0  0  0  0  0  0  0  0
   37.6084   12.0147  -13.6642 C   0  0  0  0  0  0  0  0  0  0  0  0
   38.3145   13.2362  -13.9992 N   0  0  0  0  0  0  0  0  0  0  0  0
   37.3383   14.2694  -13.9177 C   0  0  0  0  0  0  0  0  0  0  0  0
   37.6295   15.4690  -14.2301 O   0  0  0  0  0  0  0  0  0  0  0  0
   35.4312   11.8700  -14.8775 C   0  0  0  0  0  0  0  0  0  0  0  0
   36.0470   11.6186  -16.0379 C   0  0  0  0  0  0  0  0  0  0  0  0
   35.2754   11.2143  -17.0943 C   0  0  0  0  0  0  0  0  0  0  0  0
   33.7059   11.1978  -16.4310 S   0  0  0  0  0  0  0  0  0  0  0  0
   34.0689   11.7004  -14.8438 C   0  0  0  0  0  0  0  0  0  0  0  0
   39.7098   13.3426  -14.3381 C   0  0  0  0  0  0  0  0  0  0  0  0
   40.1842   12.7302  -15.6492 C   0  0  0  0  0  0  0  0  0  0  0  0
   40.1565   14.1876  -15.4755 C   0  0  0  0  0  0  0  0  0  0  0  0
   35.0136   14.5262  -12.9495 C   0  0  0  0  0  0  0  0  0  0  0  0
   36.0684   16.4953  -12.0465 O   0  0  0  0  0  0  0  0  0  0  0  0
   35.3333   15.3518  -11.7586 C   0  0  0  0  0  0  0  0  0  0  0  0
   36.2324   14.5025  -10.8487 C   0  0  0  0  0  0  0  0  0  0  0  0
   35.9465   15.0636   -9.5022 C   0  0  0  0  0  0  0  0  0  0  0  0
   36.6793   14.9583   -8.3380 C   0  0  0  0  0  0  0  0  0  0  0  0
   36.2771   15.5411   -7.1595 C   0  0  0  0  0  0  0  0  0  0  0  0
   35.0962   16.2430   -7.1929 C   0  0  0  0  0  0  0  0  0  0  0  0
   34.3446   16.3638   -8.3431 C   0  0  0  0  0  0  0  0  0  0  0  0
   34.7714   15.7705   -9.5064 C   0  0  0  0  0  0  0  0  0  0  0  0
   34.1823   15.7252  -10.8919 C   0  0  0  0  0  0  0  0  0  0  0  0
   36.8857   16.2142  -12.5207 H   0  0  0  0  0  0  0  0  0  0  0  0
 16 17  1  0  0  0
 17 15  1  0  0  0
 15  1  1  0  0  0
  1  2  1  0  0  0
  2  3  1  0  0  0
  3  4  1  0  0  0
  4 12  1  0  0  0
 12 13  1  0  0  0
 13 14  1  0  0  0
  4  5  1  0  0  0
  5  6  2  0  0  0
  2  7  1  0  0  0
  7  8  1  0  0  0
  8  9  2  0  0  0
  9 10  1  0  0  0
 10 11  1  0  0  0
 17 18  1  0  0  0
 18 19  1  0  0  0
 19 20  2  0  0  0
 20 21  1  0  0  0
 21 22  2  0  0  0
 22 23  1  0  0  0
 23 24  2  0  0  0
 24 25  1  0  0  0
 25 17  1  0  0  0
  5  1  1  0  0  0
 11  7  2  0  0  0
 24 19  1  0  0  0
 14 12  1  0  0  0
 16 26  1  0  0  0
M  END
> <minimizedAffinity>
-7.19899

> <CNNscore>
0.1950018108

> <CNNaffinity>
5.7793579102

> <CNN_VS>
1.1269853115

> <CNNaffinity_variance>
0.1905562282

$$$$
[H]OC1(C([H])([H])N2C(=O)N(C3([H])C([H])([H])C3([H])[H])C([H])([H])[C@]2([H])c2c([H])sc([H])c2[H])C([H])([H])c2c([H])c([H])c([H])c([H])c2C1([H])[H]


 26 30  0  0  0  0  0  0  0  0999 V2000
   37.0871   13.9040  -13.6494 N   0  0  0  0  0  0  0  0  0  0  0  0
   36.9080   12.4873  -13.6875 C   0  0  0  0  0  0  0  0  0  0  0  0
   38.2617   11.9516  -14.0042 C   0  0  0  0  0  0  0  0  0  0  0  0
   39.0436   13.0279  -14.5813 N   0  0  0  0  0  0  0  0  0  0  0  0
   38.2626   14.2033  -14.3924 C   0  0  0  0  0  0  0  0  0  0  0  0
   38.6452   15.3237  -14.8608 O   0  0  0  0  0  0  0  0  0  0  0  0
   35.8764   12.0802  -14.7299 C   0  0  0  0  0  0  0  0  0  0  0  0
   36.1858   11.6885  -15.9707 C   0  0  0  0  0  0  0  0  0  0  0  0
   35.1564   11.3491  -16.8073 C   0  0  0  0  0  0  0  0  0  0  0  0
   33.7811   11.5888  -15.8302 S   0  0  0  0  0  0  0  0  0  0  0  0
   34.5440   12.1090  -14.3981 C   0  0  0  0  0  0  0  0  0  0  0  0
   40.3341   12.8970  -15.2060 C   0  0  0  0  0  0  0  0  0  0  0  0
   40.4131   12.2191  -16.5674 C   0  0  0  0  0  0  0  0  0  0  0  0
   40.6668   13.6591  -16.4371 C   0  0  0  0  0  0  0  0  0  0  0  0
   36.2600   14.8718  -12.9959 C   0  0  0  0  0  0  0  0  0  0  0  0
   38.1824   15.8250  -11.9000 O   0  0  0  0  0  0  0  0  0  0  0  0
   36.8410   15.4845  -11.7755 C   0  0  0  0  0  0  0  0  0  0  0  0
   36.7867   14.4227  -10.6677 C   0  0  0  0  0  0  0  0  0  0  0  0
   36.7237   15.2500   -9.4342 C   0  0  0  0  0  0  0  0  0  0  0  0
   36.9967   14.8951   -8.1293 C   0  0  0  0  0  0  0  0  0  0  0  0
   36.8909   15.7853   -7.0867 C   0  0  0  0  0  0  0  0  0  0  0  0
   36.4955   17.0619   -7.4065 C   0  0  0  0  0  0  0  0  0  0  0  0
   36.2166   17.4426   -8.7025 C   0  0  0  0  0  0  0  0  0  0  0  0
   36.3310   16.5315   -9.7244 C   0  0  0  0  0  0  0  0  0  0  0  0
   36.1006   16.6445  -11.2086 C   0  0  0  0  0  0  0  0  0  0  0  0
   38.6741   15.0127  -12.1651 H   0  0  0  0  0  0  0  0  0  0  0  0
 16 17  1  0  0  0
 17 15  1  0  0  0
 15  1  1  0  0  0
  1  2  1  0  0  0
  2  3  1  0  0  0
  3  4  1  0  0  0
  4 12  1  0  0  0
 12 13  1  0  0  0
 13 14  1  0  0  0
  4  5  1  0  0  0
  5  6  2  0  0  0
  2  7  1  0  0  0
  7  8  1  0  0  0
  8  9  2  0  0  0
  9 10  1  0  0  0
 10 11  1  0  0  0
 17 18  1  0  0  0
 18 19  1  0  0  0
 19 20  2  0  0  0
 20 21  1  0  0  0
 21 22  2  0  0  0
 22 23  1  0  0  0
 23 24  2  0  0  0
 24 25  1  0  0  0
 25 17  1  0  0  0
  5  1  1  0  0  0
 11  7  2  0  0  0
 24 19  1  0  0  0
 14 12  1  0  0  0
 16 26  1  0  0  0
M  END
> <minimizedAffinity>
-6.81085

> <CNNscore>
0.1891369224

> <CNNaffinity>
5.8082928658

> <CNN_VS>
1.0985625982

> <CNNaffinity_variance>
0.1686230153

$$$$
[H]OC1(C([H])([H])N2C(=O)N(C3([H])C([H])([H])C3([H])[H])C([H])([H])[C@]2([H])c2c([H])sc([H])c2[H])C([H])([H])c2c([H])c([H])c([H])c([H])c2C1([H])[H]


 26 30  0  0  0  0  0  0  0  0999 V2000
   37.3499   14.5282  -13.0369 N   0  0  0  0  0  0  0  0  0  0  0  0
   36.8425   13.2027  -12.8750 C   0  0  0  0  0  0  0  0  0  0  0  0
   37.9393   12.3237  -13.3690 C   0  0  0  0  0  0  0  0  0  0  0  0
   38.8137   13.1267  -14.2018 N   0  0  0  0  0  0  0  0  0  0  0  0
   38.3836   14.4707  -14.0124 C   0  0  0  0  0  0  0  0  0  0  0  0
   38.9112   15.4240  -14.6712 O   0  0  0  0  0  0  0  0  0  0  0  0
   35.5523   12.9969  -13.6558 C   0  0  0  0  0  0  0  0  0  0  0  0
   34.4096   13.6385  -13.3887 C   0  0  0  0  0  0  0  0  0  0  0  0
   33.3227   13.3575  -14.1725 C   0  0  0  0  0  0  0  0  0  0  0  0
   33.9333   12.2001  -15.2639 S   0  0  0  0  0  0  0  0  0  0  0  0
   35.5385   12.1051  -14.7001 C   0  0  0  0  0  0  0  0  0  0  0  0
   39.8811   12.6331  -15.0324 C   0  0  0  0  0  0  0  0  0  0  0  0
   39.5182   11.9141  -16.3249 C   0  0  0  0  0  0  0  0  0  0  0  0
   40.1546   13.2364  -16.3622 C   0  0  0  0  0  0  0  0  0  0  0  0
   36.9236   15.7154  -12.3612 C   0  0  0  0  0  0  0  0  0  0  0  0
   37.3155   17.2526  -10.5476 O   0  0  0  0  0  0  0  0  0  0  0  0
   37.6314   16.0134  -11.0914 C   0  0  0  0  0  0  0  0  0  0  0  0
   39.1312   16.0758  -11.4145 C   0  0  0  0  0  0  0  0  0  0  0  0
   39.7538   15.7008  -10.1178 C   0  0  0  0  0  0  0  0  0  0  0  0
   41.0455   15.9039   -9.6776 C   0  0  0  0  0  0  0  0  0  0  0  0
   41.4736   15.4940   -8.4370 C   0  0  0  0  0  0  0  0  0  0  0  0
   40.5449   14.8640   -7.6438 C   0  0  0  0  0  0  0  0  0  0  0  0
   39.2475   14.6486   -8.0595 C   0  0  0  0  0  0  0  0  0  0  0  0
   38.8479   15.0692   -9.3048 C   0  0  0  0  0  0  0  0  0  0  0  0
   37.5283   14.9798  -10.0255 C   0  0  0  0  0  0  0  0  0  0  0  0
   37.5008   17.9363  -11.2332 H   0  0  0  0  0  0  0  0  0  0  0  0
 16 17  1  0  0  0
 17 15  1  0  0  0
 15  1  1  0  0  0
  1  2  1  0  0  0
  2  3  1  0  0  0
  3  4  1  0  0  0
  4 12  1  0  0  0
 12 13  1  0  0  0
 13 14  1  0  0  0
  4  5  1  0  0  0
  5  6  2  0  0  0
  2  7  1  0  0  0
  7  8  1  0  0  0
  8  9  2  0  0  0
  9 10  1  0  0  0
 10 11  1  0  0  0
 17 18  1  0  0  0
 18 19  1  0  0  0
 19 20  2  0  0  0
 20 21  1  0  0  0
 21 22  2  0  0  0
 22 23  1  0  0  0
 23 24  2  0  0  0
 24 25  1  0  0  0
 25 17  1  0  0  0
  5  1  1  0  0  0
 11  7  2  0  0  0
 24 19  1  0  0  0
 14 12  1  0  0  0
 16 26  1  0  0  0
M  END
> <minimizedAffinity>
-6.26752

> <CNNscore>
0.1844241917

> <CNNaffinity>
5.5713872910

> <CNN_VS>
1.0274986029

> <CNNaffinity_variance>
0.2348770201

$$$$
[H]OC1(C([H])([H])N2C(=O)N(C3([H])C([H])([H])C3([H])[H])C([H])([H])[C@]2([H])c2c([H])sc([H])c2[H])C([H])([H])c2c([H])c([H])c([H])c([H])c2C1([H])[H]


 26 30  0  0  0  0  0  0  0  0999 V2000
   37.5897   16.4921   -9.6984 N   0  0  0  0  0  0  0  0  0  0  0  0
   37.4629   15.9843   -8.3693 C   0  0  0  0  0  0  0  0  0  0  0  0
   36.7855   17.0782   -7.6182 C   0  0  0  0  0  0  0  0  0  0  0  0
   36.9578   18.3073   -8.3682 N   0  0  0  0  0  0  0  0  0  0  0  0
   37.5058   17.9100   -9.6207 C   0  0  0  0  0  0  0  0  0  0  0  0
   37.8448   18.7768  -10.4896 O   0  0  0  0  0  0  0  0  0  0  0  0
   38.8182   15.6366   -7.7701 C   0  0  0  0  0  0  0  0  0  0  0  0
   39.5371   16.4762   -7.0170 C   0  0  0  0  0  0  0  0  0  0  0  0
   40.7418   16.0328   -6.5409 C   0  0  0  0  0  0  0  0  0  0  0  0
   40.8339   14.4490   -7.1628 S   0  0  0  0  0  0  0  0  0  0  0  0
   39.3527   14.3933   -8.0034 C   0  0  0  0  0  0  0  0  0  0  0  0
   36.6322   19.6326   -7.9093 C   0  0  0  0  0  0  0  0  0  0  0  0
   37.3432   20.1644   -6.6720 C   0  0  0  0  0  0  0  0  0  0  0  0
   37.6245   20.7350   -7.9950 C   0  0  0  0  0  0  0  0  0  0  0  0
   37.7681   15.7449  -10.9058 C   0  0  0  0  0  0  0  0  0  0  0  0
   36.2398   14.0169  -10.2101 O   0  0  0  0  0  0  0  0  0  0  0  0
   36.6539   14.8301  -11.2580 C   0  0  0  0  0  0  0  0  0  0  0  0
   37.1794   13.8740  -12.3385 C   0  0  0  0  0  0  0  0  0  0  0  0
   35.9393   13.5069  -13.0716 C   0  0  0  0  0  0  0  0  0  0  0  0
   35.7056   12.4391  -13.9133 C   0  0  0  0  0  0  0  0  0  0  0  0
   34.4902   12.2342  -14.5226 C   0  0  0  0  0  0  0  0  0  0  0  0
   33.5047   13.1530  -14.2523 C   0  0  0  0  0  0  0  0  0  0  0  0
   33.7121   14.2291  -13.4148 C   0  0  0  0  0  0  0  0  0  0  0  0
   34.9372   14.4085  -12.8197 C   0  0  0  0  0  0  0  0  0  0  0  0
   35.4578   15.4626  -11.8780 C   0  0  0  0  0  0  0  0  0  0  0  0
   37.0275   13.5191   -9.8882 H   0  0  0  0  0  0  0  0  0  0  0  0
 16 17  1  0  0  0
 17 15  1  0  0  0
 15  1  1  0  0  0
  1  2  1  0  0  0
  2  3  1  0  0  0
  3  4  1  0  0  0
  4 12  1  0  0  0
 12 13  1  0  0  0
 13 14  1  0  0  0
  4  5  1  0  0  0
  5  6  2  0  0  0
  2  7  1  0  0  0
  7  8  1  0  0  0
  8  9  2  0  0  0
  9 10  1  0  0  0
 10 11  1  0  0  0
 17 18  1  0  0  0
 18 19  1  0  0  0
 19 20  2  0  0  0
 20 21  1  0  0  0
 21 22  2  0  0  0
 22 23  1  0  0  0
 23 24  2  0  0  0
 24 25  1  0  0  0
 25 17  1  0  0  0
  5  1  1  0  0  0
 11  7  2  0  0  0
 24 19  1  0  0  0
 14 12  1  0  0  0
 16 26  1  0  0  0
M  END
> <minimizedAffinity>
-6.66657

> <CNNscore>
0.1688389778

> <CNNaffinity>
5.0613718033

> <CNN_VS>
0.8545568585

> <CNNaffinity_variance>
0.3107004166

$$$$
[H]OC1(C([H])([H])N2C(=O)N(C3([H])C([H])([H])C3([H])[H])C([H])([H])[C@]2([H])c2c([H])sc([H])c2[H])C([H])([H])c2c([H])c([H])c([H])c([H])c2C1([H])[H]


 26 30  0  0  0  0  0  0  0  0999 V2000
   36.9678   16.2333   -7.9547 N   0  0  0  0  0  0  0  0  0  0  0  0
   37.1336   16.3641   -6.5419 C   0  0  0  0  0  0  0  0  0  0  0  0
   38.5844   16.1125   -6.3147 C   0  0  0  0  0  0  0  0  0  0  0  0
   39.1024   15.4110   -7.4734 N   0  0  0  0  0  0  0  0  0  0  0  0
   38.0582   15.4594   -8.4401 C   0  0  0  0  0  0  0  0  0  0  0  0
   38.1750   14.8608   -9.5579 O   0  0  0  0  0  0  0  0  0  0  0  0
   36.2587   15.3780   -5.7810 C   0  0  0  0  0  0  0  0  0  0  0  0
   36.5051   14.0654   -5.7088 C   0  0  0  0  0  0  0  0  0  0  0  0
   35.6345   13.2922   -4.9885 C   0  0  0  0  0  0  0  0  0  0  0  0
   34.4929   14.4280   -4.4314 S   0  0  0  0  0  0  0  0  0  0  0  0
   35.1465   15.8418   -5.1224 C   0  0  0  0  0  0  0  0  0  0  0  0
   40.4038   14.8056   -7.5855 C   0  0  0  0  0  0  0  0  0  0  0  0
   41.4933   15.5659   -8.3298 C   0  0  0  0  0  0  0  0  0  0  0  0
   41.5761   15.3797   -6.8760 C   0  0  0  0  0  0  0  0  0  0  0  0
   35.9155   16.7676   -8.7640 C   0  0  0  0  0  0  0  0  0  0  0  0
   35.1112   14.4972   -8.8228 O   0  0  0  0  0  0  0  0  0  0  0  0
   34.8031   15.8312   -9.0602 C   0  0  0  0  0  0  0  0  0  0  0  0
   34.5215   15.9270  -10.5666 C   0  0  0  0  0  0  0  0  0  0  0  0
   33.0864   15.5482  -10.6487 C   0  0  0  0  0  0  0  0  0  0  0  0
   32.3559   15.1231  -11.7392 C   0  0  0  0  0  0  0  0  0  0  0  0
   31.0207   14.8066  -11.6529 C   0  0  0  0  0  0  0  0  0  0  0  0
   30.4378   14.9342  -10.4150 C   0  0  0  0  0  0  0  0  0  0  0  0
   31.1452   15.3568   -9.3089 C   0  0  0  0  0  0  0  0  0  0  0  0
   32.4786   15.6663   -9.4251 C   0  0  0  0  0  0  0  0  0  0  0  0
   33.4955   16.1441   -8.4219 C   0  0  0  0  0  0  0  0  0  0  0  0
   35.9167   14.2781   -9.3472 H   0  0  0  0  0  0  0  0  0  0  0  0
 16 17  1  0  0  0
 17 15  1  0  0  0
 15  1  1  0  0  0
  1  2  1  0  0  0
  2  3  1  0  0  0
  3  4  1  0  0  0
  4 12  1  0  0  0
 12 13  1  0  0  0
 13 14  1  0  0  0
  4  5  1  0  0  0
  5  6  2  0  0  0
  2  7  1  0  0  0
  7  8  1  0  0  0
  8  9  2  0  0  0
  9 10  1  0  0  0
 10 11  1  0  0  0
 17 18  1  0  0  0
 18 19  1  0  0  0
 19 20  2  0  0  0
 20 21  1  0  0  0
 21 22  2  0  0  0
 22 23  1  0  0  0
 23 24  2  0  0  0
 24 25  1  0  0  0
 25 17  1  0  0  0
  5  1  1  0  0  0
 11  7  2  0  0  0
 24 19  1  0  0  0
 14 12  1  0  0  0
 16 26  1  0  0  0
M  END
> <minimizedAffinity>
-5.40634

> <CNNscore>
0.1466766596

> <CNNaffinity>
4.6051015854

> <CNN_VS>
0.6754609346

> <CNNaffinity_variance>
0.5109988451

$$$$
[H]c1nc(OC2([H])C([H])([H])C([H])([H])OC([H])([H])C2([H])[H])c(N2C([H])([H])C([H])([H])OC([H])([H])C2([H])[H])c([H])c1-c1c(C([H])([H])[H])nc([H])c(N([H])C(=O)c2c([H])c([H])c([H])c(C(F)(F)F)c2[H])c1[H]


 40 44  0  0  0  0  0  0  0  0999 V2000
   45.2229   12.7636  -16.2947 C   0  0  0  0  0  0  0  0  0  0  0  0
   43.7499   12.7938  -16.0771 C   0  0  0  0  0  0  0  0  0  0  0  0
   42.9557   12.2405  -17.0351 N   0  0  0  0  0  0  0  0  0  0  0  0
   41.6235   12.1781  -16.9573 C   0  0  0  0  0  0  0  0  0  0  0  0
   40.9251   12.6925  -15.8487 C   0  0  0  0  0  0  0  0  0  0  0  0
   41.7061   13.2462  -14.8899 C   0  0  0  0  0  0  0  0  0  0  0  0
   43.1179   13.3050  -14.9900 C   0  0  0  0  0  0  0  0  0  0  0  0
   43.8377   13.8856  -13.8790 C   0  0  0  0  0  0  0  0  0  0  0  0
   43.7713   13.2395  -12.6329 C   0  0  0  0  0  0  0  0  0  0  0  0
   44.4113   13.7451  -11.5746 N   0  0  0  0  0  0  0  0  0  0  0  0
   45.1319   14.8670  -11.6555 C   0  0  0  0  0  0  0  0  0  0  0  0
   45.2205   15.5212  -12.8547 C   0  0  0  0  0  0  0  0  0  0  0  0
   44.5693   15.0260  -13.9603 C   0  0  0  0  0  0  0  0  0  0  0  0
   46.0254   16.7256  -12.9304 N   0  0  0  0  0  0  0  0  0  0  0  0
   45.4284   17.9615  -12.5614 C   0  0  0  0  0  0  0  0  0  0  0  0
   46.2986   19.1754  -12.7713 C   0  0  0  0  0  0  0  0  0  0  0  0
   47.1641   18.9076  -13.8623 O   0  0  0  0  0  0  0  0  0  0  0  0
   48.0615   17.9529  -13.3924 C   0  0  0  0  0  0  0  0  0  0  0  0
   47.4092   16.5892  -13.3164 C   0  0  0  0  0  0  0  0  0  0  0  0
   45.8048   15.3951  -10.5511 O   0  0  0  0  0  0  0  0  0  0  0  0
   45.2582   15.3044   -9.2496 C   0  0  0  0  0  0  0  0  0  0  0  0
   46.2995   16.0115   -8.3525 C   0  0  0  0  0  0  0  0  0  0  0  0
   46.2899   17.4767   -8.7072 C   0  0  0  0  0  0  0  0  0  0  0  0
   45.0299   18.0601   -8.5858 O   0  0  0  0  0  0  0  0  0  0  0  0
   44.1095   17.1457   -8.0738 C   0  0  0  0  0  0  0  0  0  0  0  0
   43.9632   15.9867   -9.0383 C   0  0  0  0  0  0  0  0  0  0  0  0
   39.5144   12.5536  -15.7880 N   0  0  0  0  0  0  0  0  0  0  0  0
   38.6950   11.6500  -16.4560 C   0  0  0  0  0  0  0  0  0  0  0  0
   39.1645   10.7826  -17.2333 O   0  0  0  0  0  0  0  0  0  0  0  0
   38.9929   13.2335  -15.1308 H   0  0  0  0  0  0  0  0  0  0  0  0
   37.2273   11.6852  -16.2712 C   0  0  0  0  0  0  0  0  0  0  0  0
   36.4283   10.9299  -17.1196 C   0  0  0  0  0  0  0  0  0  0  0  0
   35.0593   10.9627  -16.9870 C   0  0  0  0  0  0  0  0  0  0  0  0
   34.4401   11.7367  -16.0199 C   0  0  0  0  0  0  0  0  0  0  0  0
   35.2223   12.4873  -15.1777 C   0  0  0  0  0  0  0  0  0  0  0  0
   36.5966   12.4408  -15.3251 C   0  0  0  0  0  0  0  0  0  0  0  0
   34.5906   13.3439  -14.1423 C   0  0  0  0  0  0  0  0  0  0  0  0
   34.4458   12.6085  -12.9772 F   0  0  0  0  0  0  0  0  0  0  0  0
   35.4079   14.4005  -13.8454 F   0  0  0  0  0  0  0  0  0  0  0  0
   33.3289   13.7468  -14.5665 F   0  0  0  0  0  0  0  0  0  0  0  0
  1  2  1  0  0  0
  2  3  2  0  0  0
  3  4  1  0  0  0
  4  5  2  0  0  0
  5 27  1  0  0  0
 27 28  1  0  0  0
 28 29  2  0  0  0
 28 31  1  0  0  0
 31 32  2  0  0  0
 32 33  1  0  0  0
 33 34  2  0  0  0
 34 35  1  0  0  0
 35 36  2  0  0  0
 35 37  1  0  0  0
 37 38  1  0  0  0
 37 39  1  0  0  0
 37 40  1  0  0  0
  5  6  1  0  0  0
  6  7  2  0  0  0
  7  8  1  0  0  0
  8  9  2  0  0  0
  9 10  1  0  0  0
 10 11  2  0  0  0
 11 20  1  0  0  0
 20 21  1  0  0  0
 21 22  1  0  0  0
 22 23  1  0  0  0
 23 24  1  0  0  0
 24 25  1  0  0  0
 25 26  1  0  0  0
 11 12  1  0  0  0
 12 13  2  0  0  0
 12 14  1  0  0  0
 14 15  1  0  0  0
 15 16  1  0  0  0
 16 17  1  0  0  0
 17 18  1  0  0  0
 18 19  1  0  0  0
  7  2  1  0  0  0
 13  8  1  0  0  0
 19 14  1  0  0  0
 36 31  1  0  0  0
 26 21  1  0  0  0
 27 30  1  0  0  0
M  END
> <minimizedAffinity>
-9.05078

> <CNNscore>
0.3509931862

> <CNNaffinity>
6.8069319725

> <CNN_VS>
2.3891868591

> <CNNaffinity_variance>
0.0894048065

$$$$
[H]c1nc(OC2([H])C([H])([H])C([H])([H])OC([H])([H])C2([H])[H])c(N2C([H])([H])C([H])([H])OC([H])([H])C2([H])[H])c([H])c1-c1c(C([H])([H])[H])nc([H])c(N([H])C(=O)c2c([H])c([H])c([H])c(C(F)(F)F)c2[H])c1[H]


 40 44  0  0  0  0  0  0  0  0999 V2000
   45.2959   12.4893  -16.3683 C   0  0  0  0  0  0  0  0  0  0  0  0
   43.8625   12.7105  -16.0300 C   0  0  0  0  0  0  0  0  0  0  0  0
   42.9253   12.2164  -16.8857 N   0  0  0  0  0  0  0  0  0  0  0  0
   41.6075   12.3222  -16.6932 C   0  0  0  0  0  0  0  0  0  0  0  0
   41.0778   12.9684  -15.5605 C   0  0  0  0  0  0  0  0  0  0  0  0
   42.0020   13.4646  -14.7029 C   0  0  0  0  0  0  0  0  0  0  0  0
   43.3961   13.3444  -14.9241 C   0  0  0  0  0  0  0  0  0  0  0  0
   44.2767   13.8818  -13.9115 C   0  0  0  0  0  0  0  0  0  0  0  0
   44.5275   13.1049  -12.7678 C   0  0  0  0  0  0  0  0  0  0  0  0
   45.3261   13.5647  -11.8003 N   0  0  0  0  0  0  0  0  0  0  0  0
   45.9124   14.7624  -11.8791 C   0  0  0  0  0  0  0  0  0  0  0  0
   45.6923   15.5448  -12.9805 C   0  0  0  0  0  0  0  0  0  0  0  0
   44.8721   15.0990  -13.9905 C   0  0  0  0  0  0  0  0  0  0  0  0
   46.3546   16.8329  -13.0604 N   0  0  0  0  0  0  0  0  0  0  0  0
   47.6428   16.8944  -13.6576 C   0  0  0  0  0  0  0  0  0  0  0  0
   48.3046   18.2486  -13.6034 C   0  0  0  0  0  0  0  0  0  0  0  0
   47.8422   18.9131  -12.4391 O   0  0  0  0  0  0  0  0  0  0  0  0
   46.5100   19.2226  -12.6983 C   0  0  0  0  0  0  0  0  0  0  0  0
   45.6372   17.9912  -12.5846 C   0  0  0  0  0  0  0  0  0  0  0  0
   46.7507   15.2433  -10.8704 O   0  0  0  0  0  0  0  0  0  0  0  0
   46.2939   15.3680   -9.5374 C   0  0  0  0  0  0  0  0  0  0  0  0
   47.5186   15.9131   -8.7680 C   0  0  0  0  0  0  0  0  0  0  0  0
   47.7766   17.3168   -9.2530 C   0  0  0  0  0  0  0  0  0  0  0  0
   46.6713   18.1547   -9.1146 O   0  0  0  0  0  0  0  0  0  0  0  0
   45.6265   17.4916   -8.4711 C   0  0  0  0  0  0  0  0  0  0  0  0
   45.1808   16.3164   -9.3166 C   0  0  0  0  0  0  0  0  0  0  0  0
   39.6717   13.0072  -15.3741 N   0  0  0  0  0  0  0  0  0  0  0  0
   38.6977   12.1575  -15.8873 C   0  0  0  0  0  0  0  0  0  0  0  0
   38.9930   11.1781  -16.6157 O   0  0  0  0  0  0  0  0  0  0  0  0
   39.2928   13.7975  -14.7433 H   0  0  0  0  0  0  0  0  0  0  0  0
   37.2664   12.3857  -15.5894 C   0  0  0  0  0  0  0  0  0  0  0  0
   36.9114   13.4813  -14.8134 C   0  0  0  0  0  0  0  0  0  0  0  0
   35.5904   13.7044  -14.4999 C   0  0  0  0  0  0  0  0  0  0  0  0
   34.5854   12.8589  -14.9390 C   0  0  0  0  0  0  0  0  0  0  0  0
   34.9276   11.7728  -15.7058 C   0  0  0  0  0  0  0  0  0  0  0  0
   36.2602   11.5654  -16.0118 C   0  0  0  0  0  0  0  0  0  0  0  0
   33.8774   10.8346  -16.1769 C   0  0  0  0  0  0  0  0  0  0  0  0
   34.4723    9.6348  -16.5315 F   0  0  0  0  0  0  0  0  0  0  0  0
   33.0044   10.5590  -15.1598 F   0  0  0  0  0  0  0  0  0  0  0  0
   33.2433   11.3584  -17.2984 F   0  0  0  0  0  0  0  0  0  0  0  0
  1  2  1  0  0  0
  2  3  2  0  0  0
  3  4  1  0  0  0
  4  5  2  0  0  0
  5 27  1  0  0  0
 27 28  1  0  0  0
 28 29  2  0  0  0
 28 31  1  0  0  0
 31 32  2  0  0  0
 32 33  1  0  0  0
 33 34  2  0  0  0
 34 35  1  0  0  0
 35 36  2  0  0  0
 35 37  1  0  0  0
 37 38  1  0  0  0
 37 39  1  0  0  0
 37 40  1  0  0  0
  5  6  1  0  0  0
  6  7  2  0  0  0
  7  8  1  0  0  0
  8  9  2  0  0  0
  9 10  1  0  0  0
 10 11  2  0  0  0
 11 20  1  0  0  0
 20 21  1  0  0  0
 21 22  1  0  0  0
 22 23  1  0  0  0
 23 24  1  0  0  0
 24 25  1  0  0  0
 25 26  1  0  0  0
 11 12  1  0  0  0
 12 13  2  0  0  0
 12 14  1  0  0  0
 14 15  1  0  0  0
 15 16  1  0  0  0
 16 17  1  0  0  0
 17 18  1  0  0  0
 18 19  1  0  0  0
  7  2  1  0  0  0
 13  8  1  0  0  0
 19 14  1  0  0  0
 36 31  1  0  0  0
 26 21  1  0  0  0
 27 30  1  0  0  0
M  END
> <minimizedAffinity>
-8.36284

> <CNNscore>
0.3509543538

> <CNNaffinity>
6.6973752975

> <CNN_VS>
2.3504729271

> <CNNaffinity_variance>
0.1473817676

$$$$
[H]c1nc(OC2([H])C([H])([H])C([H])([H])OC([H])([H])C2([H])[H])c(N2C([H])([H])C([H])([H])OC([H])([H])C2([H])[H])c([H])c1-c1c(C([H])([H])[H])nc([H])c(N([H])C(=O)c2c([H])c([H])c([H])c(C(F)(F)F)c2[H])c1[H]


 40 44  0  0  0  0  0  0  0  0999 V2000
   46.2494   13.9666  -14.8536 C   0  0  0  0  0  0  0  0  0  0  0  0
   44.7787   13.7328  -14.8362 C   0  0  0  0  0  0  0  0  0  0  0  0
   44.1180   13.7600  -16.0267 N   0  0  0  0  0  0  0  0  0  0  0  0
   42.8062   13.5439  -16.1587 C   0  0  0  0  0  0  0  0  0  0  0  0
   41.9900   13.2633  -15.0468 C   0  0  0  0  0  0  0  0  0  0  0  0
   42.6375   13.2347  -13.8570 C   0  0  0  0  0  0  0  0  0  0  0  0
   44.0295   13.4680  -13.7357 C   0  0  0  0  0  0  0  0  0  0  0  0
   44.6056   13.3685  -12.4136 C   0  0  0  0  0  0  0  0  0  0  0  0
   44.1942   14.2920  -11.4375 C   0  0  0  0  0  0  0  0  0  0  0  0
   44.7071   14.2458  -10.2047 N   0  0  0  0  0  0  0  0  0  0  0  0
   45.6165   13.3328   -9.8526 C   0  0  0  0  0  0  0  0  0  0  0  0
   46.0382   12.4160  -10.7775 C   0  0  0  0  0  0  0  0  0  0  0  0
   45.5303   12.4417  -12.0554 C   0  0  0  0  0  0  0  0  0  0  0  0
   47.0094   11.4176  -10.3722 N   0  0  0  0  0  0  0  0  0  0  0  0
   48.3741   11.8024  -10.2762 C   0  0  0  0  0  0  0  0  0  0  0  0
   49.3296   10.6807   -9.9541 C   0  0  0  0  0  0  0  0  0  0  0  0
   48.7890    9.4820  -10.4849 O   0  0  0  0  0  0  0  0  0  0  0  0
   47.6839    9.1942   -9.6887 C   0  0  0  0  0  0  0  0  0  0  0  0
   46.5224   10.1036  -10.0273 C   0  0  0  0  0  0  0  0  0  0  0  0
   46.1512   13.2805   -8.5631 O   0  0  0  0  0  0  0  0  0  0  0  0
   45.4251   12.7069   -7.4930 C   0  0  0  0  0  0  0  0  0  0  0  0
   46.4730   11.8582   -6.7377 C   0  0  0  0  0  0  0  0  0  0  0  0
   47.4628   12.8056   -6.1090 C   0  0  0  0  0  0  0  0  0  0  0  0
   46.8639   13.7441   -5.2703 O   0  0  0  0  0  0  0  0  0  0  0  0
   45.4947   13.5036   -5.1579 C   0  0  0  0  0  0  0  0  0  0  0  0
   44.8447   13.6552   -6.5178 C   0  0  0  0  0  0  0  0  0  0  0  0
   40.6124   12.9875  -15.2453 N   0  0  0  0  0  0  0  0  0  0  0  0
   39.5093   13.5304  -14.5954 C   0  0  0  0  0  0  0  0  0  0  0  0
   39.6330   14.4054  -13.7032 O   0  0  0  0  0  0  0  0  0  0  0  0
   40.3733   12.2619  -16.0085 H   0  0  0  0  0  0  0  0  0  0  0  0
   38.1398   13.0863  -14.9375 C   0  0  0  0  0  0  0  0  0  0  0  0
   37.0750   13.5613  -14.1831 C   0  0  0  0  0  0  0  0  0  0  0  0
   35.7934   13.1461  -14.4626 C   0  0  0  0  0  0  0  0  0  0  0  0
   35.5244   12.2551  -15.4881 C   0  0  0  0  0  0  0  0  0  0  0  0
   36.5713   11.7797  -16.2381 C   0  0  0  0  0  0  0  0  0  0  0  0
   37.8524   12.2092  -15.9433 C   0  0  0  0  0  0  0  0  0  0  0  0
   36.3210   10.8078  -17.3325 C   0  0  0  0  0  0  0  0  0  0  0  0
   35.4923    9.8028  -16.8608 F   0  0  0  0  0  0  0  0  0  0  0  0
   35.6564   11.4200  -18.3603 F   0  0  0  0  0  0  0  0  0  0  0  0
   37.5204   10.2330  -17.7387 F   0  0  0  0  0  0  0  0  0  0  0  0
  1  2  1  0  0  0
  2  3  2  0  0  0
  3  4  1  0  0  0
  4  5  2  0  0  0
  5 27  1  0  0  0
 27 28  1  0  0  0
 28 29  2  0  0  0
 28 31  1  0  0  0
 31 32  2  0  0  0
 32 33  1  0  0  0
 33 34  2  0  0  0
 34 35  1  0  0  0
 35 36  2  0  0  0
 35 37  1  0  0  0
 37 38  1  0  0  0
 37 39  1  0  0  0
 37 40  1  0  0  0
  5  6  1  0  0  0
  6  7  2  0  0  0
  7  8  1  0  0  0
  8  9  2  0  0  0
  9 10  1  0  0  0
 10 11  2  0  0  0
 11 20  1  0  0  0
 20 21  1  0  0  0
 21 22  1  0  0  0
 22 23  1  0  0  0
 23 24  1  0  0  0
 24 25  1  0  0  0
 25 26  1  0  0  0
 11 12  1  0  0  0
 12 13  2  0  0  0
 12 14  1  0  0  0
 14 15  1  0  0  0
 15 16  1  0  0  0
 16 17  1  0  0  0
 17 18  1  0  0  0
 18 19  1  0  0  0
  7  2  1  0  0  0
 13  8  1  0  0  0
 19 14  1  0  0  0
 36 31  1  0  0  0
 26 21  1  0  0  0
 27 30  1  0  0  0
M  END
> <minimizedAffinity>
-8.17813

> <CNNscore>
0.1297945976

> <CNNaffinity>
6.2379560471

> <CNN_VS>
0.8096529841

> <CNNaffinity_variance>
0.1567747891

$$$$
[H]c1nc(OC2([H])C([H])([H])C([H])([H])OC([H])([H])C2([H])[H])c(N2C([H])([H])C([H])([H])OC([H])([H])C2([H])[H])c([H])c1-c1c(C([H])([H])[H])nc([H])c(N([H])C(=O)c2c([H])c([H])c([H])c(C(F)(F)F)c2[H])c1[H]


 40 44  0  0  0  0  0  0  0  0999 V2000
   46.1360   14.4515  -14.2476 C   0  0  0  0  0  0  0  0  0  0  0  0
   44.7230   14.0247  -14.4457 C   0  0  0  0  0  0  0  0  0  0  0  0
   44.2492   13.9723  -15.7214 N   0  0  0  0  0  0  0  0  0  0  0  0
   43.0119   13.5851  -16.0439 C   0  0  0  0  0  0  0  0  0  0  0  0
   42.0834   13.1912  -15.0620 C   0  0  0  0  0  0  0  0  0  0  0  0
   42.5446   13.2406  -13.7889 C   0  0  0  0  0  0  0  0  0  0  0  0
   43.8599   13.6555  -13.4653 C   0  0  0  0  0  0  0  0  0  0  0  0
   44.2407   13.6243  -12.0711 C   0  0  0  0  0  0  0  0  0  0  0  0
   44.8783   12.4718  -11.5814 C   0  0  0  0  0  0  0  0  0  0  0  0
   45.2388   12.3930  -10.2973 N   0  0  0  0  0  0  0  0  0  0  0  0
   45.0141   13.3914   -9.4387 C   0  0  0  0  0  0  0  0  0  0  0  0
   44.3973   14.5301   -9.8822 C   0  0  0  0  0  0  0  0  0  0  0  0
   44.0118   14.6380  -11.1980 C   0  0  0  0  0  0  0  0  0  0  0  0
   44.1812   15.6135   -8.9421 N   0  0  0  0  0  0  0  0  0  0  0  0
   45.1817   16.6161   -8.8250 C   0  0  0  0  0  0  0  0  0  0  0  0
   44.9285   17.6443   -7.7509 C   0  0  0  0  0  0  0  0  0  0  0  0
   44.1827   17.0210   -6.7183 O   0  0  0  0  0  0  0  0  0  0  0  0
   42.9169   16.8087   -7.2573 C   0  0  0  0  0  0  0  0  0  0  0  0
   42.9296   15.6444   -8.2243 C   0  0  0  0  0  0  0  0  0  0  0  0
   45.3937   13.3124   -8.0967 O   0  0  0  0  0  0  0  0  0  0  0  0
   44.9043   12.2840   -7.2576 C   0  0  0  0  0  0  0  0  0  0  0  0
   45.5659   12.5661   -5.8894 C   0  0  0  0  0  0  0  0  0  0  0  0
   44.9850   13.8508   -5.3560 C   0  0  0  0  0  0  0  0  0  0  0  0
   43.5950   13.8220   -5.2558 O   0  0  0  0  0  0  0  0  0  0  0  0
   43.1015   12.5623   -5.5949 C   0  0  0  0  0  0  0  0  0  0  0  0
   43.4417   12.2617   -7.0401 C   0  0  0  0  0  0  0  0  0  0  0  0
   40.7994   12.7367  -15.4593 N   0  0  0  0  0  0  0  0  0  0  0  0
   39.5527   13.0831  -14.9498 C   0  0  0  0  0  0  0  0  0  0  0  0
   39.4282   13.9163  -14.0185 O   0  0  0  0  0  0  0  0  0  0  0  0
   40.7719   12.0279  -16.2736 H   0  0  0  0  0  0  0  0  0  0  0  0
   38.3202   12.4712  -15.4940 C   0  0  0  0  0  0  0  0  0  0  0  0
   38.4106   11.6905  -16.6388 C   0  0  0  0  0  0  0  0  0  0  0  0
   37.2775   11.1294  -17.1813 C   0  0  0  0  0  0  0  0  0  0  0  0
   36.0282   11.3202  -16.6149 C   0  0  0  0  0  0  0  0  0  0  0  0
   35.9296   12.0916  -15.4836 C   0  0  0  0  0  0  0  0  0  0  0  0
   37.0795   12.6463  -14.9520 C   0  0  0  0  0  0  0  0  0  0  0  0
   34.6031   12.3332  -14.8617 C   0  0  0  0  0  0  0  0  0  0  0  0
   34.3437   13.6940  -14.8695 F   0  0  0  0  0  0  0  0  0  0  0  0
   33.6210   11.7380  -15.6058 F   0  0  0  0  0  0  0  0  0  0  0  0
   34.6125   11.8959  -13.5415 F   0  0  0  0  0  0  0  0  0  0  0  0
  1  2  1  0  0  0
  2  3  2  0  0  0
  3  4  1  0  0  0
  4  5  2  0  0  0
  5 27  1  0  0  0
 27 28  1  0  0  0
 28 29  2  0  0  0
 28 31  1  0  0  0
 31 32  2  0  0  0
 32 33  1  0  0  0
 33 34  2  0  0  0
 34 35  1  0  0  0
 35 36  2  0  0  0
 35 37  1  0  0  0
 37 38  1  0  0  0
 37 39  1  0  0  0
 37 40  1  0  0  0
  5  6  1  0  0  0
  6  7  2  0  0  0
  7  8  1  0  0  0
  8  9  2  0  0  0
  9 10  1  0  0  0
 10 11  2  0  0  0
 11 20  1  0  0  0
 20 21  1  0  0  0
 21 22  1  0  0  0
 22 23  1  0  0  0
 23 24  1  0  0  0
 24 25  1  0  0  0
 25 26  1  0  0  0
 11 12  1  0  0  0
 12 13  2  0  0  0
 12 14  1  0  0  0
 14 15  1  0  0  0
 15 16  1  0  0  0
 16 17  1  0  0  0
 17 18  1  0  0  0
 18 19  1  0  0  0
  7  2  1  0  0  0
 13  8  1  0  0  0
 19 14  1  0  0  0
 36 31  1  0  0  0
 26 21  1  0  0  0
 27 30  1  0  0  0
M  END
> <minimizedAffinity>
-8.00083

> <CNNscore>
0.1295096874

> <CNNaffinity>
6.3040108681

> <CNN_VS>
0.8164304495

> <CNNaffinity_variance>
0.1282880157

$$$$
[H]c1nc(OC2([H])C([H])([H])C([H])([H])OC([H])([H])C2([H])[H])c(N2C([H])([H])C([H])([H])OC([H])([H])C2([H])[H])c([H])c1-c1c(C([H])([H])[H])nc([H])c(N([H])C(=O)c2c([H])c([H])c([H])c(C(F)(F)F)c2[H])c1[H]


 40 44  0  0  0  0  0  0  0  0999 V2000
   39.7578   11.5219  -17.4353 C   0  0  0  0  0  0  0  0  0  0  0  0
   38.9079   12.1762  -16.4021 C   0  0  0  0  0  0  0  0  0  0  0  0
   37.5614   11.9857  -16.4749 N   0  0  0  0  0  0  0  0  0  0  0  0
   36.6864   12.4933  -15.6021 C   0  0  0  0  0  0  0  0  0  0  0  0
   37.1043   13.2820  -14.5138 C   0  0  0  0  0  0  0  0  0  0  0  0
   38.4424   13.4785  -14.4327 C   0  0  0  0  0  0  0  0  0  0  0  0
   39.3557   12.9336  -15.3685 C   0  0  0  0  0  0  0  0  0  0  0  0
   40.7618   13.1842  -15.1457 C   0  0  0  0  0  0  0  0  0  0  0  0
   41.6678   12.8438  -16.1645 C   0  0  0  0  0  0  0  0  0  0  0  0
   42.9780   13.0469  -15.9994 N   0  0  0  0  0  0  0  0  0  0  0  0
   43.4741   13.5761  -14.8776 C   0  0  0  0  0  0  0  0  0  0  0  0
   42.6200   13.9220  -13.8653 C   0  0  0  0  0  0  0  0  0  0  0  0
   41.2667   13.7210  -14.0058 C   0  0  0  0  0  0  0  0  0  0  0  0
   43.1731   14.5161  -12.6631 N   0  0  0  0  0  0  0  0  0  0  0  0
   43.3164   15.9292  -12.6122 C   0  0  0  0  0  0  0  0  0  0  0  0
   43.9971   16.4548  -11.3732 C   0  0  0  0  0  0  0  0  0  0  0  0
   44.9021   15.4619  -10.9189 O   0  0  0  0  0  0  0  0  0  0  0  0
   44.1022   14.4339  -10.4280 C   0  0  0  0  0  0  0  0  0  0  0  0
   43.4874   13.6398  -11.5604 C   0  0  0  0  0  0  0  0  0  0  0  0
   44.8432   13.7928  -14.7045 O   0  0  0  0  0  0  0  0  0  0  0  0
   45.7518   12.7108  -14.6347 C   0  0  0  0  0  0  0  0  0  0  0  0
   46.9544   13.1719  -15.4892 C   0  0  0  0  0  0  0  0  0  0  0  0
   47.6159   14.3186  -14.7681 C   0  0  0  0  0  0  0  0  0  0  0  0
   48.0052   13.9956  -13.4692 O   0  0  0  0  0  0  0  0  0  0  0  0
   47.7596   12.6492  -13.2004 C   0  0  0  0  0  0  0  0  0  0  0  0
   46.2711   12.3825  -13.2894 C   0  0  0  0  0  0  0  0  0  0  0  0
   36.1415   13.7529  -13.5840 N   0  0  0  0  0  0  0  0  0  0  0  0
   36.1786   14.8927  -12.7882 C   0  0  0  0  0  0  0  0  0  0  0  0
   37.1434   15.6955  -12.8290 O   0  0  0  0  0  0  0  0  0  0  0  0
   35.2483   13.1560  -13.4741 H   0  0  0  0  0  0  0  0  0  0  0  0
   35.0706   15.1967  -11.8557 C   0  0  0  0  0  0  0  0  0  0  0  0
   33.7635   15.0236  -12.2916 C   0  0  0  0  0  0  0  0  0  0  0  0
   32.7130   15.3219  -11.4546 C   0  0  0  0  0  0  0  0  0  0  0  0
   32.9182   15.7973  -10.1702 C   0  0  0  0  0  0  0  0  0  0  0  0
   34.2072   15.9724   -9.7316 C   0  0  0  0  0  0  0  0  0  0  0  0
   35.2502   15.6661  -10.5864 C   0  0  0  0  0  0  0  0  0  0  0  0
   34.4633   16.4991   -8.3671 C   0  0  0  0  0  0  0  0  0  0  0  0
   33.2631   16.9119   -7.8117 F   0  0  0  0  0  0  0  0  0  0  0  0
   34.9503   15.5039   -7.5640 F   0  0  0  0  0  0  0  0  0  0  0  0
   35.3155   17.5961   -8.4353 F   0  0  0  0  0  0  0  0  0  0  0  0
  1  2  1  0  0  0
  2  3  2  0  0  0
  3  4  1  0  0  0
  4  5  2  0  0  0
  5 27  1  0  0  0
 27 28  1  0  0  0
 28 29  2  0  0  0
 28 31  1  0  0  0
 31 32  2  0  0  0
 32 33  1  0  0  0
 33 34  2  0  0  0
 34 35  1  0  0  0
 35 36  2  0  0  0
 35 37  1  0  0  0
 37 38  1  0  0  0
 37 39  1  0  0  0
 37 40  1  0  0  0
  5  6  1  0  0  0
  6  7  2  0  0  0
  7  8  1  0  0  0
  8  9  2  0  0  0
  9 10  1  0  0  0
 10 11  2  0  0  0
 11 20  1  0  0  0
 20 21  1  0  0  0
 21 22  1  0  0  0
 22 23  1  0  0  0
 23 24  1  0  0  0
 24 25  1  0  0  0
 25 26  1  0  0  0
 11 12  1  0  0  0
 12 13  2  0  0  0
 12 14  1  0  0  0
 14 15  1  0  0  0
 15 16  1  0  0  0
 16 17  1  0  0  0
 17 18  1  0  0  0
 18 19  1  0  0  0
  7  2  1  0  0  0
 13  8  1  0  0  0
 19 14  1  0  0  0
 36 31  1  0  0  0
 26 21  1  0  0  0
 27 30  1  0  0  0
M  END
> <minimizedAffinity>
-8.80474

> <CNNscore>
0.1242942140

> <CNNaffinity>
6.1693329811

> <CNN_VS>
0.7668123841

> <CNNaffinity_variance>
0.3506368995

$$$$
[H]c1nc(OC2([H])C([H])([H])C([H])([H])OC([H])([H])C2([H])[H])c(N2C([H])([H])C([H])([H])OC([H])([H])C2([H])[H])c([H])c1-c1c(C([H])([H])[H])nc([H])c(N([H])C(=O)c2c([H])c([H])c([H])c(C(F)(F)F)c2[H])c1[H]


 40 44  0  0  0  0  0  0  0  0999 V2000
   37.9872   17.9769   -9.6711 C   0  0  0  0  0  0  0  0  0  0  0  0
   37.8538   16.8567  -10.6435 C   0  0  0  0  0  0  0  0  0  0  0  0
   36.6578   16.7060  -11.2772 N   0  0  0  0  0  0  0  0  0  0  0  0
   36.4084   15.7610  -12.1880 C   0  0  0  0  0  0  0  0  0  0  0  0
   37.3907   14.8280  -12.5701 C   0  0  0  0  0  0  0  0  0  0  0  0
   38.5844   14.9687  -11.9447 C   0  0  0  0  0  0  0  0  0  0  0  0
   38.8306   15.9762  -10.9798 C   0  0  0  0  0  0  0  0  0  0  0  0
   40.1601   16.0437  -10.4163 C   0  0  0  0  0  0  0  0  0  0  0  0
   41.2368   16.3029  -11.2813 C   0  0  0  0  0  0  0  0  0  0  0  0
   42.4846   16.3637  -10.8076 N   0  0  0  0  0  0  0  0  0  0  0  0
   42.7570   16.1858   -9.5120 C   0  0  0  0  0  0  0  0  0  0  0  0
   41.7320   15.9339   -8.6404 C   0  0  0  0  0  0  0  0  0  0  0  0
   40.4377   15.8622   -9.1001 C   0  0  0  0  0  0  0  0  0  0  0  0
   42.0427   15.7656   -7.2335 N   0  0  0  0  0  0  0  0  0  0  0  0
   42.4057   14.4714   -6.7719 C   0  0  0  0  0  0  0  0  0  0  0  0
   42.6074   14.3617   -5.2812 C   0  0  0  0  0  0  0  0  0  0  0  0
   41.7624   15.3137   -4.6561 O   0  0  0  0  0  0  0  0  0  0  0  0
   42.3187   16.5530   -4.9599 C   0  0  0  0  0  0  0  0  0  0  0  0
   42.0271   16.9393   -6.3940 C   0  0  0  0  0  0  0  0  0  0  0  0
   44.0606   16.2527   -9.0143 O   0  0  0  0  0  0  0  0  0  0  0  0
   44.8873   17.3701   -9.2771 C   0  0  0  0  0  0  0  0  0  0  0  0
   45.2298   17.9244   -7.8755 C   0  0  0  0  0  0  0  0  0  0  0  0
   46.1061   16.9113   -7.1839 C   0  0  0  0  0  0  0  0  0  0  0  0
   47.2569   16.6005   -7.9062 O   0  0  0  0  0  0  0  0  0  0  0  0
   47.3456   17.3854   -9.0558 C   0  0  0  0  0  0  0  0  0  0  0  0
   46.1678   17.0863   -9.9604 C   0  0  0  0  0  0  0  0  0  0  0  0
   37.0937   13.8778  -13.5811 N   0  0  0  0  0  0  0  0  0  0  0  0
   37.9233   13.3700  -14.5750 C   0  0  0  0  0  0  0  0  0  0  0  0
   39.1251   13.7202  -14.6747 O   0  0  0  0  0  0  0  0  0  0  0  0
   36.0894   13.4810  -13.5867 H   0  0  0  0  0  0  0  0  0  0  0  0
   37.4084   12.3920  -15.5589 C   0  0  0  0  0  0  0  0  0  0  0  0
   38.2753   11.8936  -16.5225 C   0  0  0  0  0  0  0  0  0  0  0  0
   37.8181   11.0019  -17.4653 C   0  0  0  0  0  0  0  0  0  0  0  0
   36.5000   10.5775  -17.4867 C   0  0  0  0  0  0  0  0  0  0  0  0
   35.6360   11.0661  -16.5384 C   0  0  0  0  0  0  0  0  0  0  0  0
   36.1138   11.9605  -15.5980 C   0  0  0  0  0  0  0  0  0  0  0  0
   34.2114   10.6474  -16.5442 C   0  0  0  0  0  0  0  0  0  0  0  0
   33.5983   11.1539  -17.6786 F   0  0  0  0  0  0  0  0  0  0  0  0
   34.1237    9.2840  -16.6213 F   0  0  0  0  0  0  0  0  0  0  0  0
   33.5620   11.1625  -15.4275 F   0  0  0  0  0  0  0  0  0  0  0  0
  1  2  1  0  0  0
  2  3  2  0  0  0
  3  4  1  0  0  0
  4  5  2  0  0  0
  5 27  1  0  0  0
 27 28  1  0  0  0
 28 29  2  0  0  0
 28 31  1  0  0  0
 31 32  2  0  0  0
 32 33  1  0  0  0
 33 34  2  0  0  0
 34 35  1  0  0  0
 35 36  2  0  0  0
 35 37  1  0  0  0
 37 38  1  0  0  0
 37 39  1  0  0  0
 37 40  1  0  0  0
  5  6  1  0  0  0
  6  7  2  0  0  0
  7  8  1  0  0  0
  8  9  2  0  0  0
  9 10  1  0  0  0
 10 11  2  0  0  0
 11 20  1  0  0  0
 20 21  1  0  0  0
 21 22  1  0  0  0
 22 23  1  0  0  0
 23 24  1  0  0  0
 24 25  1  0  0  0
 25 26  1  0  0  0
 11 12  1  0  0  0
 12 13  2  0  0  0
 12 14  1  0  0  0
 14 15  1  0  0  0
 15 16  1  0  0  0
 16 17  1  0  0  0
 17 18  1  0  0  0
 18 19  1  0  0  0
  7  2  1  0  0  0
 13  8  1  0  0  0
 19 14  1  0  0  0
 36 31  1  0  0  0
 26 21  1  0  0  0
 27 30  1  0  0  0
M  END
> <minimizedAffinity>
-8.83027

> <CNNscore>
0.1202478036

> <CNNaffinity>
6.0029044151

> <CNN_VS>
0.7218360901

> <CNNaffinity_variance>
0.1404368579

$$$$
[H]c1nc(OC2([H])C([H])([H])C([H])([H])OC([H])([H])C2([H])[H])c(N2C([H])([H])C([H])([H])OC([H])([H])C2([H])[H])c([H])c1-c1c(C([H])([H])[H])nc([H])c(N([H])C(=O)c2c([H])c([H])c([H])c(C(F)(F)F)c2[H])c1[H]


 40 44  0  0  0  0  0  0  0  0999 V2000
   37.7175   18.1281   -9.5418 C   0  0  0  0  0  0  0  0  0  0  0  0
   37.5928   16.9796  -10.4817 C   0  0  0  0  0  0  0  0  0  0  0  0
   36.5449   16.9829  -11.3516 N   0  0  0  0  0  0  0  0  0  0  0  0
   36.3264   16.0301  -12.2623 C   0  0  0  0  0  0  0  0  0  0  0  0
   37.1875   14.9243  -12.3931 C   0  0  0  0  0  0  0  0  0  0  0  0
   38.2331   14.9109  -11.5315 C   0  0  0  0  0  0  0  0  0  0  0  0
   38.4483   15.9296  -10.5708 C   0  0  0  0  0  0  0  0  0  0  0  0
   39.6245   15.8176   -9.7380 C   0  0  0  0  0  0  0  0  0  0  0  0
   39.4468   15.6782   -8.3511 C   0  0  0  0  0  0  0  0  0  0  0  0
   40.5046   15.5821   -7.5405 N   0  0  0  0  0  0  0  0  0  0  0  0
   41.7560   15.6115   -8.0070 C   0  0  0  0  0  0  0  0  0  0  0  0
   41.9661   15.7436   -9.3532 C   0  0  0  0  0  0  0  0  0  0  0  0
   40.8963   15.8483  -10.2112 C   0  0  0  0  0  0  0  0  0  0  0  0
   43.3307   15.7512   -9.8452 N   0  0  0  0  0  0  0  0  0  0  0  0
   44.1124   16.9221   -9.6511 C   0  0  0  0  0  0  0  0  0  0  0  0
   45.4801   16.8857  -10.2859 C   0  0  0  0  0  0  0  0  0  0  0  0
   45.4048   16.0589  -11.4356 O   0  0  0  0  0  0  0  0  0  0  0  0
   45.2488   14.7648  -10.9468 C   0  0  0  0  0  0  0  0  0  0  0  0
   43.8371   14.5419  -10.4486 C   0  0  0  0  0  0  0  0  0  0  0  0
   42.8631   15.5074   -7.1616 O   0  0  0  0  0  0  0  0  0  0  0  0
   43.1431   14.3068   -6.4678 C   0  0  0  0  0  0  0  0  0  0  0  0
   44.6136   13.9962   -6.8289 C   0  0  0  0  0  0  0  0  0  0  0  0
   45.4754   15.0562   -6.1917 C   0  0  0  0  0  0  0  0  0  0  0  0
   45.2962   15.1501   -4.8126 O   0  0  0  0  0  0  0  0  0  0  0  0
   44.4197   14.1639   -4.3602 C   0  0  0  0  0  0  0  0  0  0  0  0
   43.0592   14.3724   -4.9927 C   0  0  0  0  0  0  0  0  0  0  0  0
   36.9429   13.9671  -13.4115 N   0  0  0  0  0  0  0  0  0  0  0  0
   37.7939   13.5246  -14.4185 C   0  0  0  0  0  0  0  0  0  0  0  0
   38.9694   13.9532  -14.5254 O   0  0  0  0  0  0  0  0  0  0  0  0
   35.9664   13.5060  -13.4123 H   0  0  0  0  0  0  0  0  0  0  0  0
   37.3339   12.5253  -15.4081 C   0  0  0  0  0  0  0  0  0  0  0  0
   38.2356   12.0587  -16.3556 C   0  0  0  0  0  0  0  0  0  0  0  0
   37.8292   11.1479  -17.3035 C   0  0  0  0  0  0  0  0  0  0  0  0
   36.5291   10.6728  -17.3458 C   0  0  0  0  0  0  0  0  0  0  0  0
   35.6309   11.1296  -16.4135 C   0  0  0  0  0  0  0  0  0  0  0  0
   36.0578   12.0439  -15.4678 C   0  0  0  0  0  0  0  0  0  0  0  0
   34.2238   10.6561  -16.4422 C   0  0  0  0  0  0  0  0  0  0  0  0
   33.5751   11.2384  -17.5189 F   0  0  0  0  0  0  0  0  0  0  0  0
   34.1885    9.3029  -16.6425 F   0  0  0  0  0  0  0  0  0  0  0  0
   33.5710   11.0411  -15.2761 F   0  0  0  0  0  0  0  0  0  0  0  0
  1  2  1  0  0  0
  2  3  2  0  0  0
  3  4  1  0  0  0
  4  5  2  0  0  0
  5 27  1  0  0  0
 27 28  1  0  0  0
 28 29  2  0  0  0
 28 31  1  0  0  0
 31 32  2  0  0  0
 32 33  1  0  0  0
 33 34  2  0  0  0
 34 35  1  0  0  0
 35 36  2  0  0  0
 35 37  1  0  0  0
 37 38  1  0  0  0
 37 39  1  0  0  0
 37 40  1  0  0  0
  5  6  1  0  0  0
  6  7  2  0  0  0
  7  8  1  0  0  0
  8  9  2  0  0  0
  9 10  1  0  0  0
 10 11  2  0  0  0
 11 20  1  0  0  0
 20 21  1  0  0  0
 21 22  1  0  0  0
 22 23  1  0  0  0
 23 24  1  0  0  0
 24 25  1  0  0  0
 25 26  1  0  0  0
 11 12  1  0  0  0
 12 13  2  0  0  0
 12 14  1  0  0  0
 14 15  1  0  0  0
 15 16  1  0  0  0
 16 17  1  0  0  0
 17 18  1  0  0  0
 18 19  1  0  0  0
  7  2  1  0  0  0
 13  8  1  0  0  0
 19 14  1  0  0  0
 36 31  1  0  0  0
 26 21  1  0  0  0
 27 30  1  0  0  0
M  END
> <minimizedAffinity>
-8.72526

> <CNNscore>
0.1158836633

> <CNNaffinity>
6.1935400963

> <CNN_VS>
0.7177301049

> <CNNaffinity_variance>
0.1351930648

$$$$
[H]c1nc(OC2([H])C([H])([H])C([H])([H])OC([H])([H])C2([H])[H])c(N2C([H])([H])C([H])([H])OC([H])([H])C2([H])[H])c([H])c1-c1c(C([H])([H])[H])nc([H])c(N([H])C(=O)c2c([H])c([H])c([H])c(C(F)(F)F)c2[H])c1[H]


 40 44  0  0  0  0  0  0  0  0999 V2000
   38.0590   18.0484   -9.6949 C   0  0  0  0  0  0  0  0  0  0  0  0
   37.7848   16.9710  -10.6858 C   0  0  0  0  0  0  0  0  0  0  0  0
   36.5392   16.9150  -11.2336 N   0  0  0  0  0  0  0  0  0  0  0  0
   36.1652   16.0174  -12.1497 C   0  0  0  0  0  0  0  0  0  0  0  0
   37.0560   15.0387  -12.6292 C   0  0  0  0  0  0  0  0  0  0  0  0
   38.2980   15.0850  -12.0898 C   0  0  0  0  0  0  0  0  0  0  0  0
   38.6767   16.0434  -11.1178 C   0  0  0  0  0  0  0  0  0  0  0  0
   40.0449   16.0104  -10.6522 C   0  0  0  0  0  0  0  0  0  0  0  0
   41.0694   16.2648  -11.5796 C   0  0  0  0  0  0  0  0  0  0  0  0
   42.3494   16.2345  -11.1978 N   0  0  0  0  0  0  0  0  0  0  0  0
   42.7037   15.9676   -9.9377 C   0  0  0  0  0  0  0  0  0  0  0  0
   41.7314   15.7175   -9.0072 C   0  0  0  0  0  0  0  0  0  0  0  0
   40.4056   15.7384   -9.3723 C   0  0  0  0  0  0  0  0  0  0  0  0
   42.1324   15.4517   -7.6387 N   0  0  0  0  0  0  0  0  0  0  0  0
   42.3198   14.1005   -7.2399 C   0  0  0  0  0  0  0  0  0  0  0  0
   42.6304   13.9069   -5.7767 C   0  0  0  0  0  0  0  0  0  0  0  0
   42.0087   14.9585   -5.0565 O   0  0  0  0  0  0  0  0  0  0  0  0
   42.7298   16.1033   -5.3839 C   0  0  0  0  0  0  0  0  0  0  0  0
   42.3805   16.5821   -6.7766 C   0  0  0  0  0  0  0  0  0  0  0  0
   44.0412   15.9392   -9.5357 O   0  0  0  0  0  0  0  0  0  0  0  0
   44.8857   14.8578   -9.8803 C   0  0  0  0  0  0  0  0  0  0  0  0
   45.8203   15.4394  -10.9653 C   0  0  0  0  0  0  0  0  0  0  0  0
   46.7057   16.4654  -10.3050 C   0  0  0  0  0  0  0  0  0  0  0  0
   47.4282   15.9524   -9.2289 O   0  0  0  0  0  0  0  0  0  0  0  0
   47.2096   14.5812   -9.0961 C   0  0  0  0  0  0  0  0  0  0  0  0
   45.7454   14.3324   -8.7977 C   0  0  0  0  0  0  0  0  0  0  0  0
   36.6270   14.1420  -13.6418 N   0  0  0  0  0  0  0  0  0  0  0  0
   35.5386   13.2764  -13.6397 C   0  0  0  0  0  0  0  0  0  0  0  0
   34.7507   13.2085  -12.6642 O   0  0  0  0  0  0  0  0  0  0  0  0
   37.2149   14.1241  -14.5475 H   0  0  0  0  0  0  0  0  0  0  0  0
   35.2741   12.3963  -14.7995 C   0  0  0  0  0  0  0  0  0  0  0  0
   33.9850   11.9186  -14.9959 C   0  0  0  0  0  0  0  0  0  0  0  0
   33.7152   11.0786  -16.0517 C   0  0  0  0  0  0  0  0  0  0  0  0
   34.7023   10.6862  -16.9402 C   0  0  0  0  0  0  0  0  0  0  0  0
   35.9796   11.1529  -16.7528 C   0  0  0  0  0  0  0  0  0  0  0  0
   36.2317   11.9973  -15.6870 C   0  0  0  0  0  0  0  0  0  0  0  0
   37.0663   10.7364  -17.6750 C   0  0  0  0  0  0  0  0  0  0  0  0
   37.0941    9.3529  -17.7418 F   0  0  0  0  0  0  0  0  0  0  0  0
   36.8070   11.1893  -18.9400 F   0  0  0  0  0  0  0  0  0  0  0  0
   38.2932   11.1771  -17.1906 F   0  0  0  0  0  0  0  0  0  0  0  0
  1  2  1  0  0  0
  2  3  2  0  0  0
  3  4  1  0  0  0
  4  5  2  0  0  0
  5 27  1  0  0  0
 27 28  1  0  0  0
 28 29  2  0  0  0
 28 31  1  0  0  0
 31 32  2  0  0  0
 32 33  1  0  0  0
 33 34  2  0  0  0
 34 35  1  0  0  0
 35 36  2  0  0  0
 35 37  1  0  0  0
 37 38  1  0  0  0
 37 39  1  0  0  0
 37 40  1  0  0  0
  5  6  1  0  0  0
  6  7  2  0  0  0
  7  8  1  0  0  0
  8  9  2  0  0  0
  9 10  1  0  0  0
 10 11  2  0  0  0
 11 20  1  0  0  0
 20 21  1  0  0  0
 21 22  1  0  0  0
 22 23  1  0  0  0
 23 24  1  0  0  0
 24 25  1  0  0  0
 25 26  1  0  0  0
 11 12  1  0  0  0
 12 13  2  0  0  0
 12 14  1  0  0  0
 14 15  1  0  0  0
 15 16  1  0  0  0
 16 17  1  0  0  0
 17 18  1  0  0  0
 18 19  1  0  0  0
  7  2  1  0  0  0
 13  8  1  0  0  0
 19 14  1  0  0  0
 36 31  1  0  0  0
 26 21  1  0  0  0
 27 30  1  0  0  0
M  END
> <minimizedAffinity>
-8.69123

> <CNNscore>
0.0901045799

> <CNNaffinity>
6.0443811417

> <CNN_VS>
0.5446264148

> <CNNaffinity_variance>
0.1376606375

$$$$
[H]c1nc(OC2([H])C([H])([H])C([H])([H])OC([H])([H])C2([H])[H])c(N2C([H])([H])C([H])([H])OC([H])([H])C2([H])[H])c([H])c1-c1c(C([H])([H])[H])nc([H])c(N([H])C(=O)c2c([H])c([H])c([H])c(C(F)(F)F)c2[H])c1[H]


 40 44  0  0  0  0  0  0  0  0999 V2000
   32.2568   15.7259  -10.9397 C   0  0  0  0  0  0  0  0  0  0  0  0
   33.3180   15.1072  -11.7819 C   0  0  0  0  0  0  0  0  0  0  0  0
   32.9710   14.6815  -13.0281 N   0  0  0  0  0  0  0  0  0  0  0  0
   33.8258   14.1315  -13.8950 C   0  0  0  0  0  0  0  0  0  0  0  0
   35.1842   13.9482  -13.5751 C   0  0  0  0  0  0  0  0  0  0  0  0
   35.5398   14.3677  -12.3368 C   0  0  0  0  0  0  0  0  0  0  0  0
   34.6191   14.9476  -11.4297 C   0  0  0  0  0  0  0  0  0  0  0  0
   35.1350   15.3906  -10.1540 C   0  0  0  0  0  0  0  0  0  0  0  0
   36.4254   14.9796   -9.7794 C   0  0  0  0  0  0  0  0  0  0  0  0
   36.9400   15.3552   -8.6050 N   0  0  0  0  0  0  0  0  0  0  0  0
   36.2612   16.1271   -7.7518 C   0  0  0  0  0  0  0  0  0  0  0  0
   35.0021   16.5481   -8.0855 C   0  0  0  0  0  0  0  0  0  0  0  0
   34.4455   16.1741   -9.2863 C   0  0  0  0  0  0  0  0  0  0  0  0
   34.2879   17.4042   -7.1575 N   0  0  0  0  0  0  0  0  0  0  0  0
   33.3209   16.8129   -6.3002 C   0  0  0  0  0  0  0  0  0  0  0  0
   32.5497   17.7867   -5.4447 C   0  0  0  0  0  0  0  0  0  0  0  0
   32.4670   19.0147   -6.1491 O   0  0  0  0  0  0  0  0  0  0  0  0
   33.7585   19.5340   -6.1332 C   0  0  0  0  0  0  0  0  0  0  0  0
   34.6477   18.8011   -7.1145 C   0  0  0  0  0  0  0  0  0  0  0  0
   36.7989   16.5240   -6.5251 O   0  0  0  0  0  0  0  0  0  0  0  0
   37.5873   15.6400   -5.7518 C   0  0  0  0  0  0  0  0  0  0  0  0
   38.9620   16.3407   -5.6615 C   0  0  0  0  0  0  0  0  0  0  0  0
   38.7886   17.5835   -4.8260 C   0  0  0  0  0  0  0  0  0  0  0  0
   38.2632   17.3229   -3.5615 O   0  0  0  0  0  0  0  0  0  0  0  0
   38.1162   15.9505   -3.3609 C   0  0  0  0  0  0  0  0  0  0  0  0
   37.1272   15.3989   -4.3671 C   0  0  0  0  0  0  0  0  0  0  0  0
   36.0633   13.4093  -14.5498 N   0  0  0  0  0  0  0  0  0  0  0  0
   35.9186   12.2585  -15.3171 C   0  0  0  0  0  0  0  0  0  0  0  0
   34.9008   11.5285  -15.2271 O   0  0  0  0  0  0  0  0  0  0  0  0
   36.9713   13.9633  -14.7359 H   0  0  0  0  0  0  0  0  0  0  0  0
   36.9734   11.8526  -16.2722 C   0  0  0  0  0  0  0  0  0  0  0  0
   36.6656   10.9151  -17.2495 C   0  0  0  0  0  0  0  0  0  0  0  0
   37.6332   10.5006  -18.1355 C   0  0  0  0  0  0  0  0  0  0  0  0
   38.9259   10.9947  -18.0849 C   0  0  0  0  0  0  0  0  0  0  0  0
   39.2390   11.9210  -17.1213 C   0  0  0  0  0  0  0  0  0  0  0  0
   38.2532   12.3266  -16.2404 C   0  0  0  0  0  0  0  0  0  0  0  0
   40.6206   12.4568  -17.0260 C   0  0  0  0  0  0  0  0  0  0  0  0
   41.4599   11.6782  -17.8062 F   0  0  0  0  0  0  0  0  0  0  0  0
   40.6678   13.7253  -17.5371 F   0  0  0  0  0  0  0  0  0  0  0  0
   41.0628   12.3945  -15.7089 F   0  0  0  0  0  0  0  0  0  0  0  0
  1  2  1  0  0  0
  2  3  2  0  0  0
  3  4  1  0  0  0
  4  5  2  0  0  0
  5 27  1  0  0  0
 27 28  1  0  0  0
 28 29  2  0  0  0
 28 31  1  0  0  0
 31 32  2  0  0  0
 32 33  1  0  0  0
 33 34  2  0  0  0
 34 35  1  0  0  0
 35 36  2  0  0  0
 35 37  1  0  0  0
 37 38  1  0  0  0
 37 39  1  0  0  0
 37 40  1  0  0  0
  5  6  1  0  0  0
  6  7  2  0  0  0
  7  8  1  0  0  0
  8  9  2  0  0  0
  9 10  1  0  0  0
 10 11  2  0  0  0
 11 20  1  0  0  0
 20 21  1  0  0  0
 21 22  1  0  0  0
 22 23  1  0  0  0
 23 24  1  0  0  0
 24 25  1  0  0  0
 25 26  1  0  0  0
 11 12  1  0  0  0
 12 13  2  0  0  0
 12 14  1  0  0  0
 14 15  1  0  0  0
 15 16  1  0  0  0
 16 17  1  0  0  0
 17 18  1  0  0  0
 18 19  1  0  0  0
  7  2  1  0  0  0
 13  8  1  0  0  0
 19 14  1  0  0  0
 36 31  1  0  0  0
 26 21  1  0  0  0
 27 30  1  0  0  0
M  END
> <minimizedAffinity>
-8.95928

> <CNNscore>
0.0893320143

> <CNNaffinity>
6.2680497169

> <CNN_VS>
0.5599375367

> <CNNaffinity_variance>
0.2434320897

$$$$
[H]O[C@]1([H])C([H])([H])C([H])([H])[C@]([H])(N([H])c2nc(N([H])c3c([H])c([H])c(C#N)c([H])c3[H])nc([H])c2Br)C([H])([H])C1([H])[H]


 27 29  0  0  0  0  0  0  0  0999 V2000
   37.9181   12.2622  -16.1391 C   0  0  0  0  0  0  0  0  0  0  0  0
   39.2091   12.6328  -16.2204 N   0  0  0  0  0  0  0  0  0  0  0  0
   40.0280   12.0728  -17.1785 C   0  0  0  0  0  0  0  0  0  0  0  0
   39.5249   11.1664  -18.0156 N   0  0  0  0  0  0  0  0  0  0  0  0
   38.2500   10.7453  -17.9982 C   0  0  0  0  0  0  0  0  0  0  0  0
   37.4391   11.3240  -17.0219 C   0  0  0  0  0  0  0  0  0  0  0  0
   35.6120   10.8130  -16.8913 Br  0  0  0  0  0  0  0  0  0  0  0  0
   37.0301   12.8041  -15.1743 N   0  0  0  0  0  0  0  0  0  0  0  0
   36.1559   13.2767  -15.4547 H   0  0  0  0  0  0  0  0  0  0  0  0
   35.9142   15.7184  -12.8965 O   0  0  0  0  0  0  0  0  0  0  0  0
   36.0936   14.6243  -12.0208 C   0  0  0  0  0  0  0  0  0  0  0  0
   37.5583   14.3583  -11.8989 C   0  0  0  0  0  0  0  0  0  0  0  0
   38.0778   13.9228  -13.2488 C   0  0  0  0  0  0  0  0  0  0  0  0
   37.3761   12.6824  -13.7499 C   0  0  0  0  0  0  0  0  0  0  0  0
   36.1970   12.2884  -12.9284 C   0  0  0  0  0  0  0  0  0  0  0  0
   35.3220   13.4477  -12.5264 C   0  0  0  0  0  0  0  0  0  0  0  0
   35.2147   15.5039  -13.5882 H   0  0  0  0  0  0  0  0  0  0  0  0
   41.3842   12.4662  -17.2202 N   0  0  0  0  0  0  0  0  0  0  0  0
   41.8525   12.5080  -18.2079 H   0  0  0  0  0  0  0  0  0  0  0  0
   42.2065   12.8055  -16.1431 C   0  0  0  0  0  0  0  0  0  0  0  0
   41.6090   13.3216  -15.0029 C   0  0  0  0  0  0  0  0  0  0  0  0
   42.3774   13.6943  -13.9299 C   0  0  0  0  0  0  0  0  0  0  0  0
   43.7463   13.5798  -13.9255 C   0  0  0  0  0  0  0  0  0  0  0  0
   44.3288   13.0686  -15.0579 C   0  0  0  0  0  0  0  0  0  0  0  0
   43.5569   12.6848  -16.1597 C   0  0  0  0  0  0  0  0  0  0  0  0
   44.5395   13.9809  -12.7765 C   0  0  0  0  0  0  0  0  0  0  0  0
   45.1823   14.2845  -11.8605 N   0  0  0  0  0  0  0  0  0  0  0  0
 10 11  1  0  0  0
 11 12  1  0  0  0
 12 13  1  0  0  0
 13 14  1  0  0  0
 14 15  1  0  0  0
 15 16  1  0  0  0
 14  8  1  0  0  0
  8  1  1  0  0  0
  1  2  2  0  0  0
  2  3  1  0  0  0
  3 18  1  0  0  0
 18 20  1  0  0  0
 20 21  2  0  0  0
 21 22  1  0  0  0
 22 23  2  0  0  0
 23 24  1  0  0  0
 24 25  2  0  0  0
 23 26  1  0  0  0
 26 27  3  0  0  0
  3  4  2  0  0  0
  4  5  1  0  0  0
  5  6  2  0  0  0
  6  7  1  0  0  0
 16 11  1  0  0  0
  6  1  1  0  0  0
 25 20  1  0  0  0
 10 17  1  0  0  0
  8  9  1  0  0  0
 18 19  1  0  0  0
M  END
> <minimizedAffinity>
-8.00514

> <CNNscore>
0.9430121779

> <CNNaffinity>
7.3042778969

> <CNN_VS>
6.8880228996

> <CNNaffinity_variance>
0.1595769972

$$$$
[H]O[C@]1([H])C([H])([H])C([H])([H])[C@]([H])(N([H])c2nc(N([H])c3c([H])c([H])c(C#N)c([H])c3[H])nc([H])c2Br)C([H])([H])C1([H])[H]


 27 29  0  0  0  0  0  0  0  0999 V2000
   38.6839   12.2956  -16.3511 C   0  0  0  0  0  0  0  0  0  0  0  0
   39.7948   13.0321  -16.1664 N   0  0  0  0  0  0  0  0  0  0  0  0
   40.9059   12.8128  -16.9534 C   0  0  0  0  0  0  0  0  0  0  0  0
   40.8626   11.8679  -17.8919 N   0  0  0  0  0  0  0  0  0  0  0  0
   39.7937   11.0930  -18.1370 C   0  0  0  0  0  0  0  0  0  0  0  0
   38.6811   11.3310  -17.3302 C   0  0  0  0  0  0  0  0  0  0  0  0
   37.1018   10.3003  -17.5761 Br  0  0  0  0  0  0  0  0  0  0  0  0
   37.5122   12.4770  -15.5717 N   0  0  0  0  0  0  0  0  0  0  0  0
   36.5761   12.2638  -15.9517 H   0  0  0  0  0  0  0  0  0  0  0  0
   34.4606   14.3592  -14.1323 O   0  0  0  0  0  0  0  0  0  0  0  0
   35.1867   13.9290  -12.9992 C   0  0  0  0  0  0  0  0  0  0  0  0
   36.4335   14.7459  -12.9050 C   0  0  0  0  0  0  0  0  0  0  0  0
   37.2929   14.4449  -14.1103 C   0  0  0  0  0  0  0  0  0  0  0  0
   37.6507   12.9797  -14.1964 C   0  0  0  0  0  0  0  0  0  0  0  0
   36.9158   12.1258  -13.2212 C   0  0  0  0  0  0  0  0  0  0  0  0
   35.4513   12.4612  -13.1028 C   0  0  0  0  0  0  0  0  0  0  0  0
   34.1766   13.5693  -14.6884 H   0  0  0  0  0  0  0  0  0  0  0  0
   42.0637   13.5869  -16.7164 N   0  0  0  0  0  0  0  0  0  0  0  0
   42.1743   14.4983  -17.3113 H   0  0  0  0  0  0  0  0  0  0  0  0
   43.0942   13.3236  -15.8109 C   0  0  0  0  0  0  0  0  0  0  0  0
   44.2734   12.7840  -16.3027 C   0  0  0  0  0  0  0  0  0  0  0  0
   45.3034   12.4834  -15.4486 C   0  0  0  0  0  0  0  0  0  0  0  0
   45.2259   12.6950  -14.0936 C   0  0  0  0  0  0  0  0  0  0  0  0
   44.0555   13.2288  -13.6159 C   0  0  0  0  0  0  0  0  0  0  0  0
   42.9968   13.5397  -14.4759 C   0  0  0  0  0  0  0  0  0  0  0  0
   46.3306   12.3690  -13.2084 C   0  0  0  0  0  0  0  0  0  0  0  0
   47.2237   12.1208  -12.5118 N   0  0  0  0  0  0  0  0  0  0  0  0
 10 11  1  0  0  0
 11 12  1  0  0  0
 12 13  1  0  0  0
 13 14  1  0  0  0
 14 15  1  0  0  0
 15 16  1  0  0  0
 14  8  1  0  0  0
  8  1  1  0  0  0
  1  2  2  0  0  0
  2  3  1  0  0  0
  3 18  1  0  0  0
 18 20  1  0  0  0
 20 21  2  0  0  0
 21 22  1  0  0  0
 22 23  2  0  0  0
 23 24  1  0  0  0
 24 25  2  0  0  0
 23 26  1  0  0  0
 26 27  3  0  0  0
  3  4  2  0  0  0
  4  5  1  0  0  0
  5  6  2  0  0  0
  6  7  1  0  0  0
 16 11  1  0  0  0
  6  1  1  0  0  0
 25 20  1  0  0  0
 10 17  1  0  0  0
  8  9  1  0  0  0
 18 19  1  0  0  0
M  END
> <minimizedAffinity>
-7.52661

> <CNNscore>
0.9428608418

> <CNNaffinity>
7.2359795570

> <CNN_VS>
6.8225216866

> <CNNaffinity_variance>
0.1998026520

$$$$
[H]O[C@]1([H])C([H])([H])C([H])([H])[C@]([H])(N([H])c2nc(N([H])c3c([H])c([H])c(C#N)c([H])c3[H])nc([H])c2Br)C([H])([H])C1([H])[H]


 27 29  0  0  0  0  0  0  0  0999 V2000
   38.8129   11.9530  -16.2710 C   0  0  0  0  0  0  0  0  0  0  0  0
   39.8959   12.7238  -16.0617 N   0  0  0  0  0  0  0  0  0  0  0  0
   40.9020   12.7693  -17.0038 C   0  0  0  0  0  0  0  0  0  0  0  0
   40.7859   12.0441  -18.1156 N   0  0  0  0  0  0  0  0  0  0  0  0
   39.7387   11.2523  -18.3969 C   0  0  0  0  0  0  0  0  0  0  0  0
   38.7326   11.2206  -17.4312 C   0  0  0  0  0  0  0  0  0  0  0  0
   37.1945   10.1373  -17.7091 Br  0  0  0  0  0  0  0  0  0  0  0  0
   37.7480   11.8671  -15.3374 N   0  0  0  0  0  0  0  0  0  0  0  0
   37.6752   11.0766  -14.6770 H   0  0  0  0  0  0  0  0  0  0  0  0
   35.3316   11.8776  -12.3228 O   0  0  0  0  0  0  0  0  0  0  0  0
   35.2906   13.1983  -12.8227 C   0  0  0  0  0  0  0  0  0  0  0  0
   34.5528   13.1840  -14.1212 C   0  0  0  0  0  0  0  0  0  0  0  0
   35.3493   12.3696  -15.1133 C   0  0  0  0  0  0  0  0  0  0  0  0
   36.7351   12.9335  -15.3225 C   0  0  0  0  0  0  0  0  0  0  0  0
   37.0911   14.0179  -14.3646 C   0  0  0  0  0  0  0  0  0  0  0  0
   36.6825   13.7308  -12.9427 C   0  0  0  0  0  0  0  0  0  0  0  0
   36.2682   11.6368  -12.0423 H   0  0  0  0  0  0  0  0  0  0  0  0
   42.0363   13.5696  -16.7411 N   0  0  0  0  0  0  0  0  0  0  0  0
   42.0568   14.5590  -17.2074 H   0  0  0  0  0  0  0  0  0  0  0  0
   43.1450   13.2447  -15.9561 C   0  0  0  0  0  0  0  0  0  0  0  0
   43.0969   13.5438  -14.6027 C   0  0  0  0  0  0  0  0  0  0  0  0
   44.1716   13.2683  -13.7967 C   0  0  0  0  0  0  0  0  0  0  0  0
   45.3255   12.6952  -14.2732 C   0  0  0  0  0  0  0  0  0  0  0  0
   45.3643   12.4030  -15.6134 C   0  0  0  0  0  0  0  0  0  0  0  0
   44.2753   12.6792  -16.4471 C   0  0  0  0  0  0  0  0  0  0  0  0
   46.4512   12.4120  -13.3998 C   0  0  0  0  0  0  0  0  0  0  0  0
   47.3617   12.1893  -12.7173 N   0  0  0  0  0  0  0  0  0  0  0  0
 10 11  1  0  0  0
 11 12  1  0  0  0
 12 13  1  0  0  0
 13 14  1  0  0  0
 14 15  1  0  0  0
 15 16  1  0  0  0
 14  8  1  0  0  0
  8  1  1  0  0  0
  1  2  2  0  0  0
  2  3  1  0  0  0
  3 18  1  0  0  0
 18 20  1  0  0  0
 20 21  2  0  0  0
 21 22  1  0  0  0
 22 23  2  0  0  0
 23 24  1  0  0  0
 24 25  2  0  0  0
 23 26  1  0  0  0
 26 27  3  0  0  0
  3  4  2  0  0  0
  4  5  1  0  0  0
  5  6  2  0  0  0
  6  7  1  0  0  0
 16 11  1  0  0  0
  6  1  1  0  0  0
 25 20  1  0  0  0
 10 17  1  0  0  0
  8  9  1  0  0  0
 18 19  1  0  0  0
M  END
> <minimizedAffinity>
-7.53990

> <CNNscore>
0.9324937463

> <CNNaffinity>
7.3096909523

> <CNN_VS>
6.8162412643

> <CNNaffinity_variance>
0.1491715014

$$$$
[H]O[C@]1([H])C([H])([H])C([H])([H])[C@]([H])(N([H])c2nc(N([H])c3c([H])c([H])c(C#N)c([H])c3[H])nc([H])c2Br)C([H])([H])C1([H])[H]


 27 29  0  0  0  0  0  0  0  0999 V2000
   36.8957   12.2421  -16.1629 C   0  0  0  0  0  0  0  0  0  0  0  0
   38.2035   12.5522  -16.2269 N   0  0  0  0  0  0  0  0  0  0  0  0
   39.0419   11.8366  -17.0558 C   0  0  0  0  0  0  0  0  0  0  0  0
   38.5407   10.8414  -17.7864 N   0  0  0  0  0  0  0  0  0  0  0  0
   37.2498   10.4719  -17.7780 C   0  0  0  0  0  0  0  0  0  0  0  0
   36.4194   11.2082  -16.9332 C   0  0  0  0  0  0  0  0  0  0  0  0
   34.5683   10.7849  -16.8291 Br  0  0  0  0  0  0  0  0  0  0  0  0
   35.9873   12.9432  -15.3285 N   0  0  0  0  0  0  0  0  0  0  0  0
   35.4081   13.7155  -15.6949 H   0  0  0  0  0  0  0  0  0  0  0  0
   35.7495   15.8301  -12.7719 O   0  0  0  0  0  0  0  0  0  0  0  0
   35.2046   14.7107  -12.1039 C   0  0  0  0  0  0  0  0  0  0  0  0
   36.3202   13.7735  -11.7757 C   0  0  0  0  0  0  0  0  0  0  0  0
   36.9094   13.2619  -13.0691 C   0  0  0  0  0  0  0  0  0  0  0  0
   35.8800   12.5500  -13.9152 C   0  0  0  0  0  0  0  0  0  0  0  0
   34.4862   12.6924  -13.4081 C   0  0  0  0  0  0  0  0  0  0  0  0
   34.1443   14.0883  -12.9546 C   0  0  0  0  0  0  0  0  0  0  0  0
   35.2223   16.0329  -13.6054 H   0  0  0  0  0  0  0  0  0  0  0  0
   40.4140   12.1724  -17.0803 N   0  0  0  0  0  0  0  0  0  0  0  0
   40.9577   11.9461  -18.0021 H   0  0  0  0  0  0  0  0  0  0  0  0
   41.1661   12.7582  -16.0593 C   0  0  0  0  0  0  0  0  0  0  0  0
   42.5482   12.6693  -16.1334 C   0  0  0  0  0  0  0  0  0  0  0  0
   43.3281   13.2056  -15.1410 C   0  0  0  0  0  0  0  0  0  0  0  0
   42.7969   13.8442  -14.0470 C   0  0  0  0  0  0  0  0  0  0  0  0
   41.4288   13.9271  -13.9819 C   0  0  0  0  0  0  0  0  0  0  0  0
   40.6213   13.3841  -14.9870 C   0  0  0  0  0  0  0  0  0  0  0  0
   43.6435   14.4051  -13.0082 C   0  0  0  0  0  0  0  0  0  0  0  0
   44.3270   14.8646  -12.1921 N   0  0  0  0  0  0  0  0  0  0  0  0
 10 11  1  0  0  0
 11 12  1  0  0  0
 12 13  1  0  0  0
 13 14  1  0  0  0
 14 15  1  0  0  0
 15 16  1  0  0  0
 14  8  1  0  0  0
  8  1  1  0  0  0
  1  2  2  0  0  0
  2  3  1  0  0  0
  3 18  1  0  0  0
 18 20  1  0  0  0
 20 21  2  0  0  0
 21 22  1  0  0  0
 22 23  2  0  0  0
 23 24  1  0  0  0
 24 25  2  0  0  0
 23 26  1  0  0  0
 26 27  3  0  0  0
  3  4  2  0  0  0
  4  5  1  0  0  0
  5  6  2  0  0  0
  6  7  1  0  0  0
 16 11  1  0  0  0
  6  1  1  0  0  0
 25 20  1  0  0  0
 10 17  1  0  0  0
  8  9  1  0  0  0
 18 19  1  0  0  0
M  END
> <minimizedAffinity>
-8.14049

> <CNNscore>
0.9072426558

> <CNNaffinity>
7.4019675255

> <CNN_VS>
6.7153806686

> <CNNaffinity_variance>
0.1988567859

$$$$
[H]O[C@]1([H])C([H])([H])C([H])([H])[C@]([H])(N([H])c2nc(N([H])c3c([H])c([H])c(C#N)c([H])c3[H])nc([H])c2Br)C([H])([H])C1([H])[H]


 27 29  0  0  0  0  0  0  0  0999 V2000
   36.5317   12.3310  -14.8918 C   0  0  0  0  0  0  0  0  0  0  0  0
   37.8184   12.4813  -15.2560 N   0  0  0  0  0  0  0  0  0  0  0  0
   38.2472   12.0139  -16.4805 C   0  0  0  0  0  0  0  0  0  0  0  0
   37.3747   11.4160  -17.2909 N   0  0  0  0  0  0  0  0  0  0  0  0
   36.0773   11.2286  -17.0002 C   0  0  0  0  0  0  0  0  0  0  0  0
   35.6644   11.7086  -15.7574 C   0  0  0  0  0  0  0  0  0  0  0  0
   33.8500   11.5055  -15.2249 Br  0  0  0  0  0  0  0  0  0  0  0  0
   36.0349   12.7917  -13.6452 N   0  0  0  0  0  0  0  0  0  0  0  0
   35.8455   12.1386  -12.8681 H   0  0  0  0  0  0  0  0  0  0  0  0
   35.8730   14.0647  -10.0010 O   0  0  0  0  0  0  0  0  0  0  0  0
   36.1750   15.2105  -10.7704 C   0  0  0  0  0  0  0  0  0  0  0  0
   34.9541   15.5904  -11.5423 C   0  0  0  0  0  0  0  0  0  0  0  0
   34.6437   14.4814  -12.5198 C   0  0  0  0  0  0  0  0  0  0  0  0
   35.7896   14.2316  -13.4720 C   0  0  0  0  0  0  0  0  0  0  0  0
   37.0369   14.9634  -13.1128 C   0  0  0  0  0  0  0  0  0  0  0  0
   37.3580   14.9306  -11.6407 C   0  0  0  0  0  0  0  0  0  0  0  0
   36.5891   13.3661  -10.1149 H   0  0  0  0  0  0  0  0  0  0  0  0
   39.6099   12.1660  -16.8210 N   0  0  0  0  0  0  0  0  0  0  0  0
   39.9050   11.8368  -17.8216 H   0  0  0  0  0  0  0  0  0  0  0  0
   40.6341   12.6850  -16.0255 C   0  0  0  0  0  0  0  0  0  0  0  0
   41.9442   12.4796  -16.4318 C   0  0  0  0  0  0  0  0  0  0  0  0
   42.9841   12.9470  -15.6697 C   0  0  0  0  0  0  0  0  0  0  0  0
   42.7904   13.6272  -14.4922 C   0  0  0  0  0  0  0  0  0  0  0  0
   41.4911   13.8256  -14.0978 C   0  0  0  0  0  0  0  0  0  0  0  0
   40.4209   13.3538  -14.8654 C   0  0  0  0  0  0  0  0  0  0  0  0
   43.9082   14.1135  -13.7018 C   0  0  0  0  0  0  0  0  0  0  0  0
   44.8023   14.4841  -13.0634 N   0  0  0  0  0  0  0  0  0  0  0  0
 10 11  1  0  0  0
 11 12  1  0  0  0
 12 13  1  0  0  0
 13 14  1  0  0  0
 14 15  1  0  0  0
 15 16  1  0  0  0
 14  8  1  0  0  0
  8  1  1  0  0  0
  1  2  2  0  0  0
  2  3  1  0  0  0
  3 18  1  0  0  0
 18 20  1  0  0  0
 20 21  2  0  0  0
 21 22  1  0  0  0
 22 23  2  0  0  0
 23 24  1  0  0  0
 24 25  2  0  0  0
 23 26  1  0  0  0
 26 27  3  0  0  0
  3  4  2  0  0  0
  4  5  1  0  0  0
  5  6  2  0  0  0
  6  7  1  0  0  0
 16 11  1  0  0  0
  6  1  1  0  0  0
 25 20  1  0  0  0
 10 17  1  0  0  0
  8  9  1  0  0  0
 18 19  1  0  0  0
M  END
> <minimizedAffinity>
-7.90648

> <CNNscore>
0.4914585948

> <CNNaffinity>
6.7501411438

> <CNN_VS>
3.3174149990

> <CNNaffinity_variance>
0.1121455878

$$$$
[H]O[C@]1([H])C([H])([H])C([H])([H])[C@]([H])(N([H])c2nc(N([H])c3c([H])c([H])c(C#N)c([H])c3[H])nc([H])c2Br)C([H])([H])C1([H])[H]


 27 29  0  0  0  0  0  0  0  0999 V2000
   38.8319   11.9028  -16.0297 C   0  0  0  0  0  0  0  0  0  0  0  0
   39.8962   12.4967  -15.4593 N   0  0  0  0  0  0  0  0  0  0  0  0
   41.0782   12.6133  -16.1602 C   0  0  0  0  0  0  0  0  0  0  0  0
   41.1494   12.1327  -17.4009 N   0  0  0  0  0  0  0  0  0  0  0  0
   40.1336   11.5282  -18.0379 C   0  0  0  0  0  0  0  0  0  0  0  0
   38.9477   11.4206  -17.3115 C   0  0  0  0  0  0  0  0  0  0  0  0
   37.4327   10.5845  -18.1005 Br  0  0  0  0  0  0  0  0  0  0  0  0
   37.5916   11.7549  -15.3568 N   0  0  0  0  0  0  0  0  0  0  0  0
   37.3264   10.8629  -14.9093 H   0  0  0  0  0  0  0  0  0  0  0  0
   35.3060   11.9704  -12.2493 O   0  0  0  0  0  0  0  0  0  0  0  0
   35.3595   13.2904  -12.7501 C   0  0  0  0  0  0  0  0  0  0  0  0
   34.5725   13.3414  -14.0185 C   0  0  0  0  0  0  0  0  0  0  0  0
   35.2559   12.4625  -15.0394 C   0  0  0  0  0  0  0  0  0  0  0  0
   36.6759   12.9048  -15.3043 C   0  0  0  0  0  0  0  0  0  0  0  0
   37.1617   13.9533  -14.3636 C   0  0  0  0  0  0  0  0  0  0  0  0
   36.7863   13.7008  -12.9260 C   0  0  0  0  0  0  0  0  0  0  0  0
   36.2287   11.6493  -12.0054 H   0  0  0  0  0  0  0  0  0  0  0  0
   42.1833   13.2201  -15.5226 N   0  0  0  0  0  0  0  0  0  0  0  0
   43.1432   13.1614  -16.0440 H   0  0  0  0  0  0  0  0  0  0  0  0
   42.1986   13.8863  -14.2950 C   0  0  0  0  0  0  0  0  0  0  0  0
   43.2032   13.5697  -13.3928 C   0  0  0  0  0  0  0  0  0  0  0  0
   43.2440   14.1777  -12.1643 C   0  0  0  0  0  0  0  0  0  0  0  0
   42.3157   15.1102  -11.7697 C   0  0  0  0  0  0  0  0  0  0  0  0
   41.3252   15.4170  -12.6685 C   0  0  0  0  0  0  0  0  0  0  0  0
   41.2715   14.8040  -13.9249 C   0  0  0  0  0  0  0  0  0  0  0  0
   42.3796   15.7415  -10.4629 C   0  0  0  0  0  0  0  0  0  0  0  0
   42.4246   16.2619   -9.4277 N   0  0  0  0  0  0  0  0  0  0  0  0
 10 11  1  0  0  0
 11 12  1  0  0  0
 12 13  1  0  0  0
 13 14  1  0  0  0
 14 15  1  0  0  0
 15 16  1  0  0  0
 14  8  1  0  0  0
  8  1  1  0  0  0
  1  2  2  0  0  0
  2  3  1  0  0  0
  3 18  1  0  0  0
 18 20  1  0  0  0
 20 21  2  0  0  0
 21 22  1  0  0  0
 22 23  2  0  0  0
 23 24  1  0  0  0
 24 25  2  0  0  0
 23 26  1  0  0  0
 26 27  3  0  0  0
  3  4  2  0  0  0
  4  5  1  0  0  0
  5  6  2  0  0  0
  6  7  1  0  0  0
 16 11  1  0  0  0
  6  1  1  0  0  0
 25 20  1  0  0  0
 10 17  1  0  0  0
  8  9  1  0  0  0
 18 19  1  0  0  0
M  END
> <minimizedAffinity>
-7.08347

> <CNNscore>
0.4730274379

> <CNNaffinity>
6.7402954102

> <CNN_VS>
3.1883447170

> <CNNaffinity_variance>
0.1144116893

$$$$
[H]O[C@]1([H])C([H])([H])C([H])([H])[C@]([H])(N([H])c2nc(N([H])c3c([H])c([H])c(C#N)c([H])c3[H])nc([H])c2Br)C([H])([H])C1([H])[H]


 27 29  0  0  0  0  0  0  0  0999 V2000
   43.9782   13.6067  -14.9232 C   0  0  0  0  0  0  0  0  0  0  0  0
   42.7981   13.4378  -15.5475 N   0  0  0  0  0  0  0  0  0  0  0  0
   42.6888   12.5319  -16.5815 C   0  0  0  0  0  0  0  0  0  0  0  0
   43.7612   11.8320  -16.9498 N   0  0  0  0  0  0  0  0  0  0  0  0
   44.9708   11.9433  -16.3775 C   0  0  0  0  0  0  0  0  0  0  0  0
   45.0596   12.8647  -15.3342 C   0  0  0  0  0  0  0  0  0  0  0  0
   46.7188   13.1173  -14.4397 Br  0  0  0  0  0  0  0  0  0  0  0  0
   44.1492   14.5237  -13.8541 N   0  0  0  0  0  0  0  0  0  0  0  0
   44.8900   15.2426  -13.8767 H   0  0  0  0  0  0  0  0  0  0  0  0
   45.7649   15.0583  -10.3856 O   0  0  0  0  0  0  0  0  0  0  0  0
   44.3926   15.3318  -10.1905 C   0  0  0  0  0  0  0  0  0  0  0  0
   43.6445   14.0409  -10.2576 C   0  0  0  0  0  0  0  0  0  0  0  0
   43.7808   13.4829  -11.6547 C   0  0  0  0  0  0  0  0  0  0  0  0
   43.2449   14.4355  -12.6975 C   0  0  0  0  0  0  0  0  0  0  0  0
   42.9058   15.7830  -12.1594 C   0  0  0  0  0  0  0  0  0  0  0  0
   43.9333   16.3314  -11.2030 C   0  0  0  0  0  0  0  0  0  0  0  0
   46.1537   15.6835  -11.0726 H   0  0  0  0  0  0  0  0  0  0  0  0
   41.4416   12.3974  -17.2314 N   0  0  0  0  0  0  0  0  0  0  0  0
   41.4626   12.3266  -18.3229 H   0  0  0  0  0  0  0  0  0  0  0  0
   40.1754   12.3490  -16.6437 C   0  0  0  0  0  0  0  0  0  0  0  0
   39.2093   11.5517  -17.2390 C   0  0  0  0  0  0  0  0  0  0  0  0
   37.9438   11.4930  -16.7139 C   0  0  0  0  0  0  0  0  0  0  0  0
   37.5729   12.2024  -15.5976 C   0  0  0  0  0  0  0  0  0  0  0  0
   38.5350   12.9888  -15.0154 C   0  0  0  0  0  0  0  0  0  0  0  0
   39.8297   13.0582  -15.5409 C   0  0  0  0  0  0  0  0  0  0  0  0
   36.2260   12.1239  -15.0592 C   0  0  0  0  0  0  0  0  0  0  0  0
   35.1583   12.0574  -14.6120 N   0  0  0  0  0  0  0  0  0  0  0  0
 10 11  1  0  0  0
 11 12  1  0  0  0
 12 13  1  0  0  0
 13 14  1  0  0  0
 14 15  1  0  0  0
 15 16  1  0  0  0
 14  8  1  0  0  0
  8  1  1  0  0  0
  1  2  2  0  0  0
  2  3  1  0  0  0
  3 18  1  0  0  0
 18 20  1  0  0  0
 20 21  2  0  0  0
 21 22  1  0  0  0
 22 23  2  0  0  0
 23 24  1  0  0  0
 24 25  2  0  0  0
 23 26  1  0  0  0
 26 27  3  0  0  0
  3  4  2  0  0  0
  4  5  1  0  0  0
  5  6  2  0  0  0
  6  7  1  0  0  0
 16 11  1  0  0  0
  6  1  1  0  0  0
 25 20  1  0  0  0
 10 17  1  0  0  0
  8  9  1  0  0  0
 18 19  1  0  0  0
M  END
> <minimizedAffinity>
-6.86739

> <CNNscore>
0.3704040349

> <CNNaffinity>
6.0198154449

> <CNN_VS>
2.2297639847

> <CNNaffinity_variance>
0.2555521727

$$$$
[H]O[C@]1([H])C([H])([H])C([H])([H])[C@]([H])(N([H])c2nc(N([H])c3c([H])c([H])c(C#N)c([H])c3[H])nc([H])c2Br)C([H])([H])C1([H])[H]


 27 29  0  0  0  0  0  0  0  0999 V2000
   38.3122   12.0205  -15.9684 C   0  0  0  0  0  0  0  0  0  0  0  0
   39.0064   12.8195  -15.1376 N   0  0  0  0  0  0  0  0  0  0  0  0
   40.2474   13.2908  -15.5114 C   0  0  0  0  0  0  0  0  0  0  0  0
   40.7442   12.9455  -16.6986 N   0  0  0  0  0  0  0  0  0  0  0  0
   40.1142   12.1540  -17.5816 C   0  0  0  0  0  0  0  0  0  0  0  0
   38.8610   11.6884  -17.1840 C   0  0  0  0  0  0  0  0  0  0  0  0
   37.8648   10.5581  -18.3444 Br  0  0  0  0  0  0  0  0  0  0  0  0
   37.0320   11.5063  -15.6369 N   0  0  0  0  0  0  0  0  0  0  0  0
   36.9193   10.5574  -15.2456 H   0  0  0  0  0  0  0  0  0  0  0  0
   34.8581   12.2531  -12.5315 O   0  0  0  0  0  0  0  0  0  0  0  0
   34.5533   13.2887  -13.4429 C   0  0  0  0  0  0  0  0  0  0  0  0
   33.7442   12.7085  -14.5562 C   0  0  0  0  0  0  0  0  0  0  0  0
   34.6028   11.7140  -15.3016 C   0  0  0  0  0  0  0  0  0  0  0  0
   35.8514   12.3544  -15.8611 C   0  0  0  0  0  0  0  0  0  0  0  0
   36.0753   13.7477  -15.3829 C   0  0  0  0  0  0  0  0  0  0  0  0
   35.8193   13.9328  -13.9093 C   0  0  0  0  0  0  0  0  0  0  0  0
   35.8391   12.2622  -12.3044 H   0  0  0  0  0  0  0  0  0  0  0  0
   40.9598   14.1074  -14.6050 N   0  0  0  0  0  0  0  0  0  0  0  0
   42.0370   14.2007  -14.7716 H   0  0  0  0  0  0  0  0  0  0  0  0
   40.4511   14.8107  -13.5106 C   0  0  0  0  0  0  0  0  0  0  0  0
   41.3338   15.5641  -12.7512 C   0  0  0  0  0  0  0  0  0  0  0  0
   40.8859   16.2502  -11.6515 C   0  0  0  0  0  0  0  0  0  0  0  0
   39.5718   16.2296  -11.2519 C   0  0  0  0  0  0  0  0  0  0  0  0
   38.7058   15.4814  -12.0089 C   0  0  0  0  0  0  0  0  0  0  0  0
   39.1493   14.7764  -13.1328 C   0  0  0  0  0  0  0  0  0  0  0  0
   39.1206   16.9652  -10.0832 C   0  0  0  0  0  0  0  0  0  0  0  0
   38.7424   17.5516   -9.1572 N   0  0  0  0  0  0  0  0  0  0  0  0
 10 11  1  0  0  0
 11 12  1  0  0  0
 12 13  1  0  0  0
 13 14  1  0  0  0
 14 15  1  0  0  0
 15 16  1  0  0  0
 14  8  1  0  0  0
  8  1  1  0  0  0
  1  2  2  0  0  0
  2  3  1  0  0  0
  3 18  1  0  0  0
 18 20  1  0  0  0
 20 21  2  0  0  0
 21 22  1  0  0  0
 22 23  2  0  0  0
 23 24  1  0  0  0
 24 25  2  0  0  0
 23 26  1  0  0  0
 26 27  3  0  0  0
  3  4  2  0  0  0
  4  5  1  0  0  0
  5  6  2  0  0  0
  6  7  1  0  0  0
 16 11  1  0  0  0
  6  1  1  0  0  0
 25 20  1  0  0  0
 10 17  1  0  0  0
  8  9  1  0  0  0
 18 19  1  0  0  0
M  END
> <minimizedAffinity>
-7.22615

> <CNNscore>
0.3484208286

> <CNNaffinity>
6.6667709351

> <CNN_VS>
2.3228418827

> <CNNaffinity_variance>
0.0775892660

$$$$
[H]O[C@]1([H])C([H])([H])C([H])([H])[C@]([H])(N([H])c2nc(N([H])c3c([H])c([H])c(C#N)c([H])c3[H])nc([H])c2Br)C([H])([H])C1([H])[H]


 27 29  0  0  0  0  0  0  0  0999 V2000
   42.3017   13.2020  -14.7629 C   0  0  0  0  0  0  0  0  0  0  0  0
   41.0104   13.3539  -14.4162 N   0  0  0  0  0  0  0  0  0  0  0  0
   40.0136   13.0374  -15.3152 C   0  0  0  0  0  0  0  0  0  0  0  0
   40.3464   12.5825  -16.5226 N   0  0  0  0  0  0  0  0  0  0  0  0
   41.6092   12.4038  -16.9425 C   0  0  0  0  0  0  0  0  0  0  0  0
   42.6017   12.7299  -16.0183 C   0  0  0  0  0  0  0  0  0  0  0  0
   44.4324   12.5221  -16.4898 Br  0  0  0  0  0  0  0  0  0  0  0  0
   43.3683   13.5116  -13.8798 N   0  0  0  0  0  0  0  0  0  0  0  0
   43.9722   12.7719  -13.4871 H   0  0  0  0  0  0  0  0  0  0  0  0
   45.4242   14.1374  -10.6692 O   0  0  0  0  0  0  0  0  0  0  0  0
   45.5533   15.3283  -11.4182 C   0  0  0  0  0  0  0  0  0  0  0  0
   44.2442   16.0464  -11.3838 C   0  0  0  0  0  0  0  0  0  0  0  0
   43.2159   15.1975  -12.0934 C   0  0  0  0  0  0  0  0  0  0  0  0
   43.6054   14.9195  -13.5263 C   0  0  0  0  0  0  0  0  0  0  0  0
   44.9930   15.3457  -13.8629 C   0  0  0  0  0  0  0  0  0  0  0  0
   46.0083   15.0003  -12.8041 C   0  0  0  0  0  0  0  0  0  0  0  0
   45.7843   13.3541  -11.1895 H   0  0  0  0  0  0  0  0  0  0  0  0
   38.6690   13.2321  -14.9276 N   0  0  0  0  0  0  0  0  0  0  0  0
   38.4931   13.9236  -14.0984 H   0  0  0  0  0  0  0  0  0  0  0  0
   37.5296   12.6391  -15.4764 C   0  0  0  0  0  0  0  0  0  0  0  0
   36.3011   12.9308  -14.9028 C   0  0  0  0  0  0  0  0  0  0  0  0
   35.1574   12.3518  -15.3898 C   0  0  0  0  0  0  0  0  0  0  0  0
   35.1654   11.4735  -16.4459 C   0  0  0  0  0  0  0  0  0  0  0  0
   36.3852   11.1904  -17.0070 C   0  0  0  0  0  0  0  0  0  0  0  0
   37.5597   11.7737  -16.5198 C   0  0  0  0  0  0  0  0  0  0  0  0
   33.9404   10.8728  -16.9450 C   0  0  0  0  0  0  0  0  0  0  0  0
   32.9679   10.3980  -17.3613 N   0  0  0  0  0  0  0  0  0  0  0  0
 10 11  1  0  0  0
 11 12  1  0  0  0
 12 13  1  0  0  0
 13 14  1  0  0  0
 14 15  1  0  0  0
 15 16  1  0  0  0
 14  8  1  0  0  0
  8  1  1  0  0  0
  1  2  2  0  0  0
  2  3  1  0  0  0
  3 18  1  0  0  0
 18 20  1  0  0  0
 20 21  2  0  0  0
 21 22  1  0  0  0
 22 23  2  0  0  0
 23 24  1  0  0  0
 24 25  2  0  0  0
 23 26  1  0  0  0
 26 27  3  0  0  0
  3  4  2  0  0  0
  4  5  1  0  0  0
  5  6  2  0  0  0
  6  7  1  0  0  0
 16 11  1  0  0  0
  6  1  1  0  0  0
 25 20  1  0  0  0
 10 17  1  0  0  0
  8  9  1  0  0  0
 18 19  1  0  0  0
M  END
> <minimizedAffinity>
-6.99331

> <CNNscore>
0.2872508764

> <CNNaffinity>
6.1752624512

> <CNN_VS>
1.7738496065

> <CNNaffinity_variance>
0.2329214066

$$$$
[H]O[C@]12C([H])([H])C([H])([H])[C@]3([H])[C@]4(C([H])([H])[H])C(=C([H])C(=O)C([H])([H])C4([H])[H])C([H])([H])C([H])([H])[C@@]3([H])[C@]1([H])C([H])([H])[C@@]([H])(C([H])([H])[H])C2([H])[H]


 22 25  0  0  0  0  0  0  0  0999 V2000
   40.1553   14.0442   -7.6571 C   0  0  0  0  0  0  0  0  0  0  0  0
   39.3131   13.5343   -6.5114 C   0  0  0  0  0  0  0  0  0  0  0  0
   37.8381   13.5615   -6.8438 C   0  0  0  0  0  0  0  0  0  0  0  0
   37.3455   14.7577   -6.1425 C   0  0  0  0  0  0  0  0  0  0  0  0
   35.9080   14.7400   -5.7259 C   0  0  0  0  0  0  0  0  0  0  0  0
   34.9589   14.3786   -6.8309 C   0  0  0  0  0  0  0  0  0  0  0  0
   33.6102   14.1616   -6.1267 C   0  0  0  0  0  0  0  0  0  0  0  0
   33.2545   15.5076   -5.5844 C   0  0  0  0  0  0  0  0  0  0  0  0
   32.0182   15.9253   -5.7969 C   0  0  0  0  0  0  0  0  0  0  0  0
   31.5290   17.2179   -5.3262 C   0  0  0  0  0  0  0  0  0  0  0  0
   30.3208   17.4692   -5.2116 O   0  0  0  0  0  0  0  0  0  0  0  0
   32.5279   18.2510   -4.9786 C   0  0  0  0  0  0  0  0  0  0  0  0
   33.9391   17.8075   -5.2298 C   0  0  0  0  0  0  0  0  0  0  0  0
   34.1796   16.3617   -4.8516 C   0  0  0  0  0  0  0  0  0  0  0  0
   33.8541   16.2190   -3.3612 C   0  0  0  0  0  0  0  0  0  0  0  0
   35.6279   16.0629   -5.0745 C   0  0  0  0  0  0  0  0  0  0  0  0
   36.4214   16.0530   -3.7601 C   0  0  0  0  0  0  0  0  0  0  0  0
   37.9045   16.0316   -4.1586 C   0  0  0  0  0  0  0  0  0  0  0  0
   38.1443   14.7053   -4.8302 C   0  0  0  0  0  0  0  0  0  0  0  0
   37.7753   13.6300   -4.0587 O   0  0  0  0  0  0  0  0  0  0  0  0
   39.5177   14.5021   -5.3502 C   0  0  0  0  0  0  0  0  0  0  0  0
   37.4988   12.8434   -4.5735 H   0  0  0  0  0  0  0  0  0  0  0  0
  1  2  1  0  0  0
  2  3  1  0  0  0
  3  4  1  0  0  0
  4  5  1  0  0  0
  5  6  1  0  0  0
  6  7  1  0  0  0
  7  8  1  0  0  0
  8  9  2  0  0  0
  9 10  1  0  0  0
 10 11  2  0  0  0
 10 12  1  0  0  0
 12 13  1  0  0  0
 13 14  1  0  0  0
 14 15  1  0  0  0
 14 16  1  0  0  0
 16 17  1  0  0  0
 17 18  1  0  0  0
 18 19  1  0  0  0
 19 20  1  0  0  0
 19 21  1  0  0  0
 21  2  1  0  0  0
 19  4  1  0  0  0
 16  5  1  0  0  0
 14  8  1  0  0  0
 20 22  1  0  0  0
M  END
> <minimizedAffinity>
-5.19699

> <CNNscore>
0.6060456634

> <CNNaffinity>
4.9384689331

> <CNN_VS>
2.9929375648

> <CNNaffinity_variance>
0.0714702085

$$$$
[H]O[C@]12C([H])([H])C([H])([H])[C@]3([H])[C@]4(C([H])([H])[H])C(=C([H])C(=O)C([H])([H])C4([H])[H])C([H])([H])C([H])([H])[C@@]3([H])[C@]1([H])C([H])([H])[C@@]([H])(C([H])([H])[H])C2([H])[H]


 22 25  0  0  0  0  0  0  0  0999 V2000
   41.6005   17.1699   -5.9498 C   0  0  0  0  0  0  0  0  0  0  0  0
   40.9572   15.8037   -5.9916 C   0  0  0  0  0  0  0  0  0  0  0  0
   39.7341   15.7866   -6.8808 C   0  0  0  0  0  0  0  0  0  0  0  0
   38.6122   15.8405   -5.9300 C   0  0  0  0  0  0  0  0  0  0  0  0
   37.3281   15.2167   -6.3802 C   0  0  0  0  0  0  0  0  0  0  0  0
   36.8661   15.6824   -7.7300 C   0  0  0  0  0  0  0  0  0  0  0  0
   35.7125   14.7337   -8.0923 C   0  0  0  0  0  0  0  0  0  0  0  0
   34.6578   15.0275   -7.0757 C   0  0  0  0  0  0  0  0  0  0  0  0
   33.4267   15.1932   -7.5285 C   0  0  0  0  0  0  0  0  0  0  0  0
   32.2954   15.4852   -6.6530 C   0  0  0  0  0  0  0  0  0  0  0  0
   31.1204   15.3021   -7.0024 O   0  0  0  0  0  0  0  0  0  0  0  0
   32.5835   16.0180   -5.3044 C   0  0  0  0  0  0  0  0  0  0  0  0
   34.0483   16.2361   -5.0627 C   0  0  0  0  0  0  0  0  0  0  0  0
   34.9124   15.1384   -5.6456 C   0  0  0  0  0  0  0  0  0  0  0  0
   34.4756   13.8204   -4.9977 C   0  0  0  0  0  0  0  0  0  0  0  0
   36.3327   15.4265   -5.2766 C   0  0  0  0  0  0  0  0  0  0  0  0
   36.8137   14.5476   -4.1131 C   0  0  0  0  0  0  0  0  0  0  0  0
   38.1532   15.1432   -3.6554 C   0  0  0  0  0  0  0  0  0  0  0  0
   39.1190   14.9393   -4.7926 C   0  0  0  0  0  0  0  0  0  0  0  0
   39.2180   13.6291   -5.1943 O   0  0  0  0  0  0  0  0  0  0  0  0
   40.4736   15.5016   -4.5768 C   0  0  0  0  0  0  0  0  0  0  0  0
   39.4508   13.5161   -6.1394 H   0  0  0  0  0  0  0  0  0  0  0  0
  1  2  1  0  0  0
  2  3  1  0  0  0
  3  4  1  0  0  0
  4  5  1  0  0  0
  5  6  1  0  0  0
  6  7  1  0  0  0
  7  8  1  0  0  0
  8  9  2  0  0  0
  9 10  1  0  0  0
 10 11  2  0  0  0
 10 12  1  0  0  0
 12 13  1  0  0  0
 13 14  1  0  0  0
 14 15  1  0  0  0
 14 16  1  0  0  0
 16 17  1  0  0  0
 17 18  1  0  0  0
 18 19  1  0  0  0
 19 20  1  0  0  0
 19 21  1  0  0  0
 21  2  1  0  0  0
 19  4  1  0  0  0
 16  5  1  0  0  0
 14  8  1  0  0  0
 20 22  1  0  0  0
M  END
> <minimizedAffinity>
-4.84382

> <CNNscore>
0.5881206989

> <CNNaffinity>
4.9607014656

> <CNN_VS>
2.9174911976

> <CNNaffinity_variance>
0.1231710687

$$$$
[H]O[C@]12C([H])([H])C([H])([H])[C@]3([H])[C@]4(C([H])([H])[H])C(=C([H])C(=O)C([H])([H])C4([H])[H])C([H])([H])C([H])([H])[C@@]3([H])[C@]1([H])C([H])([H])[C@@]([H])(C([H])([H])[H])C2([H])[H]


 22 25  0  0  0  0  0  0  0  0999 V2000
   32.0243   18.4399   -3.4777 C   0  0  0  0  0  0  0  0  0  0  0  0
   32.0699   17.7958   -4.8434 C   0  0  0  0  0  0  0  0  0  0  0  0
   32.8939   16.5276   -4.8383 C   0  0  0  0  0  0  0  0  0  0  0  0
   34.1731   16.9417   -5.4363 C   0  0  0  0  0  0  0  0  0  0  0  0
   34.9476   15.8795   -6.1521 C   0  0  0  0  0  0  0  0  0  0  0  0
   35.1499   14.6283   -5.3483 C   0  0  0  0  0  0  0  0  0  0  0  0
   35.7124   13.6101   -6.3528 C   0  0  0  0  0  0  0  0  0  0  0  0
   37.0405   14.1711   -6.7448 C   0  0  0  0  0  0  0  0  0  0  0  0
   38.0628   13.3326   -6.7431 C   0  0  0  0  0  0  0  0  0  0  0  0
   39.4182   13.7385   -7.1033 C   0  0  0  0  0  0  0  0  0  0  0  0
   40.2895   12.9224   -7.4366 O   0  0  0  0  0  0  0  0  0  0  0  0
   39.7427   15.1802   -7.0623 C   0  0  0  0  0  0  0  0  0  0  0  0
   38.5981   16.0237   -6.5829 C   0  0  0  0  0  0  0  0  0  0  0  0
   37.2598   15.5619   -7.1188 C   0  0  0  0  0  0  0  0  0  0  0  0
   37.3353   15.6199   -8.6480 C   0  0  0  0  0  0  0  0  0  0  0  0
   36.2164   16.5185   -6.6363 C   0  0  0  0  0  0  0  0  0  0  0  0
   35.7904   17.5051   -7.7329 C   0  0  0  0  0  0  0  0  0  0  0  0
   34.9585   18.5884   -7.0308 C   0  0  0  0  0  0  0  0  0  0  0  0
   33.7085   17.9097   -6.5363 C   0  0  0  0  0  0  0  0  0  0  0  0
   33.0179   17.2531   -7.5261 O   0  0  0  0  0  0  0  0  0  0  0  0
   32.7827   18.7767   -5.7689 C   0  0  0  0  0  0  0  0  0  0  0  0
   32.5037   16.4806   -7.2112 H   0  0  0  0  0  0  0  0  0  0  0  0
  1  2  1  0  0  0
  2  3  1  0  0  0
  3  4  1  0  0  0
  4  5  1  0  0  0
  5  6  1  0  0  0
  6  7  1  0  0  0
  7  8  1  0  0  0
  8  9  2  0  0  0
  9 10  1  0  0  0
 10 11  2  0  0  0
 10 12  1  0  0  0
 12 13  1  0  0  0
 13 14  1  0  0  0
 14 15  1  0  0  0
 14 16  1  0  0  0
 16 17  1  0  0  0
 17 18  1  0  0  0
 18 19  1  0  0  0
 19 20  1  0  0  0
 19 21  1  0  0  0
 21  2  1  0  0  0
 19  4  1  0  0  0
 16  5  1  0  0  0
 14  8  1  0  0  0
 20 22  1  0  0  0
M  END
> <minimizedAffinity>
-4.82362

> <CNNscore>
0.5758646727

> <CNNaffinity>
4.9442114830

> <CNN_VS>
2.8471968174

> <CNNaffinity_variance>
0.3163217008

$$$$
[H]O[C@]12C([H])([H])C([H])([H])[C@]3([H])[C@]4(C([H])([H])[H])C(=C([H])C(=O)C([H])([H])C4([H])[H])C([H])([H])C([H])([H])[C@@]3([H])[C@]1([H])C([H])([H])[C@@]([H])(C([H])([H])[H])C2([H])[H]


 22 25  0  0  0  0  0  0  0  0999 V2000
   40.7822   12.6430   -5.5509 C   0  0  0  0  0  0  0  0  0  0  0  0
   40.3720   14.0889   -5.7024 C   0  0  0  0  0  0  0  0  0  0  0  0
   39.1040   14.3954   -4.9373 C   0  0  0  0  0  0  0  0  0  0  0  0
   38.0648   14.4122   -5.9791 C   0  0  0  0  0  0  0  0  0  0  0  0
   36.8707   15.2749   -5.7138 C   0  0  0  0  0  0  0  0  0  0  0  0
   36.2361   15.0397   -4.3742 C   0  0  0  0  0  0  0  0  0  0  0  0
   35.2306   16.1912   -4.2153 C   0  0  0  0  0  0  0  0  0  0  0  0
   34.2229   15.9547   -5.2927 C   0  0  0  0  0  0  0  0  0  0  0  0
   32.9503   16.0346   -4.9431 C   0  0  0  0  0  0  0  0  0  0  0  0
   31.8568   15.8274   -5.8880 C   0  0  0  0  0  0  0  0  0  0  0  0
   30.7049   16.2294   -5.6695 O   0  0  0  0  0  0  0  0  0  0  0  0
   32.1555   15.1098   -7.1456 C   0  0  0  0  0  0  0  0  0  0  0  0
   33.5783   14.6403   -7.2269 C   0  0  0  0  0  0  0  0  0  0  0  0
   34.5645   15.6474   -6.6752 C   0  0  0  0  0  0  0  0  0  0  0  0
   34.4022   16.9373   -7.4860 C   0  0  0  0  0  0  0  0  0  0  0  0
   35.9419   15.1019   -6.8800 C   0  0  0  0  0  0  0  0  0  0  0  0
   36.6490   15.7603   -8.0733 C   0  0  0  0  0  0  0  0  0  0  0  0
   37.9029   14.9158   -8.3437 C   0  0  0  0  0  0  0  0  0  0  0  0
   38.7991   15.0914   -7.1464 C   0  0  0  0  0  0  0  0  0  0  0  0
   39.0820   16.4064   -6.8664 O   0  0  0  0  0  0  0  0  0  0  0  0
   40.0548   14.3040   -7.1789 C   0  0  0  0  0  0  0  0  0  0  0  0
   39.2571   16.5858   -5.9191 H   0  0  0  0  0  0  0  0  0  0  0  0
  1  2  1  0  0  0
  2  3  1  0  0  0
  3  4  1  0  0  0
  4  5  1  0  0  0
  5  6  1  0  0  0
  6  7  1  0  0  0
  7  8  1  0  0  0
  8  9  2  0  0  0
  9 10  1  0  0  0
 10 11  2  0  0  0
 10 12  1  0  0  0
 12 13  1  0  0  0
 13 14  1  0  0  0
 14 15  1  0  0  0
 14 16  1  0  0  0
 16 17  1  0  0  0
 17 18  1  0  0  0
 18 19  1  0  0  0
 19 20  1  0  0  0
 19 21  1  0  0  0
 21  2  1  0  0  0
 19  4  1  0  0  0
 16  5  1  0  0  0
 14  8  1  0  0  0
 20 22  1  0  0  0
M  END
> <minimizedAffinity>
-4.88003

> <CNNscore>
0.5635826588

> <CNNaffinity>
5.0757308006

> <CNN_VS>
2.8605937958

> <CNNaffinity_variance>
0.2391032726

$$$$
[H]O[C@]12C([H])([H])C([H])([H])[C@]3([H])[C@]4(C([H])([H])[H])C(=C([H])C(=O)C([H])([H])C4([H])[H])C([H])([H])C([H])([H])[C@@]3([H])[C@]1([H])C([H])([H])[C@@]([H])(C([H])([H])[H])C2([H])[H]


 22 25  0  0  0  0  0  0  0  0999 V2000
   32.5156   13.9829   -5.6523 C   0  0  0  0  0  0  0  0  0  0  0  0
   33.5110   15.0853   -5.3765 C   0  0  0  0  0  0  0  0  0  0  0  0
   34.5631   15.1749   -6.4591 C   0  0  0  0  0  0  0  0  0  0  0  0
   35.7357   14.5181   -5.8596 C   0  0  0  0  0  0  0  0  0  0  0  0
   37.0752   14.9709   -6.3507 C   0  0  0  0  0  0  0  0  0  0  0  0
   37.2074   14.9691   -7.8456 C   0  0  0  0  0  0  0  0  0  0  0  0
   38.5272   15.7083   -8.1179 C   0  0  0  0  0  0  0  0  0  0  0  0
   39.5758   14.8255   -7.5236 C   0  0  0  0  0  0  0  0  0  0  0  0
   40.6396   14.5821   -8.2702 C   0  0  0  0  0  0  0  0  0  0  0  0
   41.7434   13.7383   -7.8216 C   0  0  0  0  0  0  0  0  0  0  0  0
   42.8666   13.7807   -8.3439 O   0  0  0  0  0  0  0  0  0  0  0  0
   41.4913   12.8063   -6.7021 C   0  0  0  0  0  0  0  0  0  0  0  0
   40.0690   12.8369   -6.2249 C   0  0  0  0  0  0  0  0  0  0  0  0
   39.4865   14.2338   -6.1954 C   0  0  0  0  0  0  0  0  0  0  0  0
   40.3607   15.0737   -5.2585 C   0  0  0  0  0  0  0  0  0  0  0  0
   38.1028   14.1431   -5.6353 C   0  0  0  0  0  0  0  0  0  0  0  0
   38.0465   14.5913   -4.1678 C   0  0  0  0  0  0  0  0  0  0  0  0
   36.6632   14.1730   -3.6480 C   0  0  0  0  0  0  0  0  0  0  0  0
   35.6578   15.0019   -4.4027 C   0  0  0  0  0  0  0  0  0  0  0  0
   35.8858   16.3535   -4.3080 O   0  0  0  0  0  0  0  0  0  0  0  0
   34.2385   14.7094   -4.0895 C   0  0  0  0  0  0  0  0  0  0  0  0
   35.5753   16.8675   -5.0823 H   0  0  0  0  0  0  0  0  0  0  0  0
  1  2  1  0  0  0
  2  3  1  0  0  0
  3  4  1  0  0  0
  4  5  1  0  0  0
  5  6  1  0  0  0
  6  7  1  0  0  0
  7  8  1  0  0  0
  8  9  2  0  0  0
  9 10  1  0  0  0
 10 11  2  0  0  0
 10 12  1  0  0  0
 12 13  1  0  0  0
 13 14  1  0  0  0
 14 15  1  0  0  0
 14 16  1  0  0  0
 16 17  1  0  0  0
 17 18  1  0  0  0
 18 19  1  0  0  0
 19 20  1  0  0  0
 19 21  1  0  0  0
 21  2  1  0  0  0
 19  4  1  0  0  0
 16  5  1  0  0  0
 14  8  1  0  0  0
 20 22  1  0  0  0
M  END
> <minimizedAffinity>
-5.05901

> <CNNscore>
0.5479623079

> <CNNaffinity>
4.5956954956

> <CNN_VS>
2.5182678699

> <CNNaffinity_variance>
0.1277243346

$$$$
[H]O[C@]12C([H])([H])C([H])([H])[C@]3([H])[C@]4(C([H])([H])[H])C(=C([H])C(=O)C([H])([H])C4([H])[H])C([H])([H])C([H])([H])[C@@]3([H])[C@]1([H])C([H])([H])[C@@]([H])(C([H])([H])[H])C2([H])[H]


 22 25  0  0  0  0  0  0  0  0999 V2000
   30.8147   14.5091  -11.5944 C   0  0  0  0  0  0  0  0  0  0  0  0
   30.5019   15.2006  -10.2882 C   0  0  0  0  0  0  0  0  0  0  0  0
   31.7142   15.9061   -9.7226 C   0  0  0  0  0  0  0  0  0  0  0  0
   32.1827   14.9978   -8.6638 C   0  0  0  0  0  0  0  0  0  0  0  0
   32.9176   15.6291   -7.5229 C   0  0  0  0  0  0  0  0  0  0  0  0
   34.0412   16.5292   -7.9467 C   0  0  0  0  0  0  0  0  0  0  0  0
   34.4604   17.2567   -6.6594 C   0  0  0  0  0  0  0  0  0  0  0  0
   34.9940   16.1740   -5.7789 C   0  0  0  0  0  0  0  0  0  0  0  0
   36.1489   16.4110   -5.1803 C   0  0  0  0  0  0  0  0  0  0  0  0
   36.7911   15.4464   -4.2921 C   0  0  0  0  0  0  0  0  0  0  0  0
   37.6637   15.7741   -3.4753 O   0  0  0  0  0  0  0  0  0  0  0  0
   36.3707   14.0322   -4.3865 C   0  0  0  0  0  0  0  0  0  0  0  0
   35.3519   13.7958   -5.4625 C   0  0  0  0  0  0  0  0  0  0  0  0
   34.3220   14.9014   -5.5531 C   0  0  0  0  0  0  0  0  0  0  0  0
   33.6220   14.9865   -4.1929 C   0  0  0  0  0  0  0  0  0  0  0  0
   33.3263   14.5174   -6.6010 C   0  0  0  0  0  0  0  0  0  0  0  0
   32.0222   13.9879   -5.9877 C   0  0  0  0  0  0  0  0  0  0  0  0
   31.2282   13.3674   -7.1467 C   0  0  0  0  0  0  0  0  0  0  0  0
   30.8571   14.5034   -8.0629 C   0  0  0  0  0  0  0  0  0  0  0  0
   30.1832   15.5178   -7.4268 O   0  0  0  0  0  0  0  0  0  0  0  0
   30.1266   14.1088   -9.2912 C   0  0  0  0  0  0  0  0  0  0  0  0
   30.3165   16.4014   -7.8289 H   0  0  0  0  0  0  0  0  0  0  0  0
  1  2  1  0  0  0
  2  3  1  0  0  0
  3  4  1  0  0  0
  4  5  1  0  0  0
  5  6  1  0  0  0
  6  7  1  0  0  0
  7  8  1  0  0  0
  8  9  2  0  0  0
  9 10  1  0  0  0
 10 11  2  0  0  0
 10 12  1  0  0  0
 12 13  1  0  0  0
 13 14  1  0  0  0
 14 15  1  0  0  0
 14 16  1  0  0  0
 16 17  1  0  0  0
 17 18  1  0  0  0
 18 19  1  0  0  0
 19 20  1  0  0  0
 19 21  1  0  0  0
 21  2  1  0  0  0
 19  4  1  0  0  0
 16  5  1  0  0  0
 14  8  1  0  0  0
 20 22  1  0  0  0
M  END
> <minimizedAffinity>
-5.91612

> <CNNscore>
0.5234130025

> <CNNaffinity>
4.8443889618

> <CNN_VS>
2.5356161594

> <CNNaffinity_variance>
0.0870272741

$$$$
[H]O[C@]12C([H])([H])C([H])([H])[C@]3([H])[C@]4(C([H])([H])[H])C(=C([H])C(=O)C([H])([H])C4([H])[H])C([H])([H])C([H])([H])[C@@]3([H])[C@]1([H])C([H])([H])[C@@]([H])(C([H])([H])[H])C2([H])[H]


 22 25  0  0  0  0  0  0  0  0999 V2000
   31.0746   16.4496   -5.8109 C   0  0  0  0  0  0  0  0  0  0  0  0
   32.0557   15.4595   -6.3934 C   0  0  0  0  0  0  0  0  0  0  0  0
   33.2252   15.2168   -5.4657 C   0  0  0  0  0  0  0  0  0  0  0  0
   34.3081   16.0213   -6.0536 C   0  0  0  0  0  0  0  0  0  0  0  0
   35.7040   15.5427   -5.8025 C   0  0  0  0  0  0  0  0  0  0  0  0
   36.0043   15.2752   -4.3566 C   0  0  0  0  0  0  0  0  0  0  0  0
   37.3618   14.5547   -4.3706 C   0  0  0  0  0  0  0  0  0  0  0  0
   38.3175   15.5750   -4.8978 C   0  0  0  0  0  0  0  0  0  0  0  0
   39.4533   15.7215   -4.2371 C   0  0  0  0  0  0  0  0  0  0  0  0
   40.4811   16.6791   -4.6352 C   0  0  0  0  0  0  0  0  0  0  0  0
   41.6568   16.5887   -4.2535 O   0  0  0  0  0  0  0  0  0  0  0  0
   40.0842   17.7896   -5.5267 C   0  0  0  0  0  0  0  0  0  0  0  0
   38.6181   17.7874   -5.8461 C   0  0  0  0  0  0  0  0  0  0  0  0
   38.0659   16.3965   -6.0742 C   0  0  0  0  0  0  0  0  0  0  0  0
   38.8463   15.7807   -7.2400 C   0  0  0  0  0  0  0  0  0  0  0  0
   36.6261   16.5303   -6.4559 C   0  0  0  0  0  0  0  0  0  0  0  0
   36.4138   16.3576   -7.9667 C   0  0  0  0  0  0  0  0  0  0  0  0
   34.9721   16.8058   -8.2478 C   0  0  0  0  0  0  0  0  0  0  0  0
   34.0764   15.8107   -7.5585 C   0  0  0  0  0  0  0  0  0  0  0  0
   34.3211   14.5104   -7.9286 O   0  0  0  0  0  0  0  0  0  0  0  0
   32.6249   16.0959   -7.6575 C   0  0  0  0  0  0  0  0  0  0  0  0
   34.1112   13.8501   -7.2356 H   0  0  0  0  0  0  0  0  0  0  0  0
  1  2  1  0  0  0
  2  3  1  0  0  0
  3  4  1  0  0  0
  4  5  1  0  0  0
  5  6  1  0  0  0
  6  7  1  0  0  0
  7  8  1  0  0  0
  8  9  2  0  0  0
  9 10  1  0  0  0
 10 11  2  0  0  0
 10 12  1  0  0  0
 12 13  1  0  0  0
 13 14  1  0  0  0
 14 15  1  0  0  0
 14 16  1  0  0  0
 16 17  1  0  0  0
 17 18  1  0  0  0
 18 19  1  0  0  0
 19 20  1  0  0  0
 19 21  1  0  0  0
 21  2  1  0  0  0
 19  4  1  0  0  0
 16  5  1  0  0  0
 14  8  1  0  0  0
 20 22  1  0  0  0
M  END
> <minimizedAffinity>
-4.60797

> <CNNscore>
0.5030395389

> <CNNaffinity>
4.8548183441

> <CNN_VS>
2.4421656132

> <CNNaffinity_variance>
0.1195432395

$$$$
[H]O[C@]12C([H])([H])C([H])([H])[C@]3([H])[C@]4(C([H])([H])[H])C(=C([H])C(=O)C([H])([H])C4([H])[H])C([H])([H])C([H])([H])[C@@]3([H])[C@]1([H])C([H])([H])[C@@]([H])(C([H])([H])[H])C2([H])[H]


 22 25  0  0  0  0  0  0  0  0999 V2000
   40.8063   12.9476   -5.8371 C   0  0  0  0  0  0  0  0  0  0  0  0
   42.2281   13.4439   -5.7184 C   0  0  0  0  0  0  0  0  0  0  0  0
   42.8721   13.6306   -7.0740 C   0  0  0  0  0  0  0  0  0  0  0  0
   43.7271   12.4417   -7.2195 C   0  0  0  0  0  0  0  0  0  0  0  0
   44.9390   12.5957   -8.0843 C   0  0  0  0  0  0  0  0  0  0  0  0
   44.6506   13.1763   -9.4378 C   0  0  0  0  0  0  0  0  0  0  0  0
   46.0351   13.4883  -10.0278 C   0  0  0  0  0  0  0  0  0  0  0  0
   46.6804   12.1502  -10.1865 C   0  0  0  0  0  0  0  0  0  0  0  0
   47.2719   11.9102  -11.3444 C   0  0  0  0  0  0  0  0  0  0  0  0
   47.9428   10.6481  -11.6423 C   0  0  0  0  0  0  0  0  0  0  0  0
   48.7754   10.5373  -12.5537 O   0  0  0  0  0  0  0  0  0  0  0  0
   47.6025    9.4713  -10.8146 C   0  0  0  0  0  0  0  0  0  0  0  0
   46.5375    9.7600   -9.7978 C   0  0  0  0  0  0  0  0  0  0  0  0
   46.6894   11.1219   -9.1546 C   0  0  0  0  0  0  0  0  0  0  0  0
   48.0654   11.1585   -8.4817 C   0  0  0  0  0  0  0  0  0  0  0  0
   45.6239   11.2605   -8.1144 C   0  0  0  0  0  0  0  0  0  0  0  0
   46.1734   11.0454   -6.6969 C   0  0  0  0  0  0  0  0  0  0  0  0
   44.9478   10.9227   -5.7796 C   0  0  0  0  0  0  0  0  0  0  0  0
   44.2717   12.2682   -5.7926 C   0  0  0  0  0  0  0  0  0  0  0  0
   45.1081   13.3010   -5.4437 O   0  0  0  0  0  0  0  0  0  0  0  0
   43.0178   12.3504   -5.0059 C   0  0  0  0  0  0  0  0  0  0  0  0
   44.8724   14.1617   -5.8485 H   0  0  0  0  0  0  0  0  0  0  0  0
  1  2  1  0  0  0
  2  3  1  0  0  0
  3  4  1  0  0  0
  4  5  1  0  0  0
  5  6  1  0  0  0
  6  7  1  0  0  0
  7  8  1  0  0  0
  8  9  2  0  0  0
  9 10  1  0  0  0
 10 11  2  0  0  0
 10 12  1  0  0  0
 12 13  1  0  0  0
 13 14  1  0  0  0
 14 15  1  0  0  0
 14 16  1  0  0  0
 16 17  1  0  0  0
 17 18  1  0  0  0
 18 19  1  0  0  0
 19 20  1  0  0  0
 19 21  1  0  0  0
 21  2  1  0  0  0
 19  4  1  0  0  0
 16  5  1  0  0  0
 14  8  1  0  0  0
 20 22  1  0  0  0
M  END
> <minimizedAffinity>
-4.83683

> <CNNscore>
0.5011175275

> <CNNaffinity>
4.5731210709

> <CNN_VS>
2.2916710377

> <CNNaffinity_variance>
0.0757237747

$$$$
[H]O[C@]12C([H])([H])C([H])([H])[C@]3([H])[C@]4(C([H])([H])[H])C(=C([H])C(=O)C([H])([H])C4([H])[H])C([H])([H])C([H])([H])[C@@]3([H])[C@]1([H])C([H])([H])[C@@]([H])(C([H])([H])[H])C2([H])[H]


 22 25  0  0  0  0  0  0  0  0999 V2000
   35.8601   16.3573  -11.6609 C   0  0  0  0  0  0  0  0  0  0  0  0
   35.8982   14.8476  -11.6234 C   0  0  0  0  0  0  0  0  0  0  0  0
   36.9844   14.2915  -12.5168 C   0  0  0  0  0  0  0  0  0  0  0  0
   36.2543   13.8404  -13.7122 C   0  0  0  0  0  0  0  0  0  0  0  0
   36.8691   12.7127  -14.4810 C   0  0  0  0  0  0  0  0  0  0  0  0
   38.3138   12.9278  -14.8255 C   0  0  0  0  0  0  0  0  0  0  0  0
   38.7918   11.5666  -15.3554 C   0  0  0  0  0  0  0  0  0  0  0  0
   38.0057   11.3603  -16.6091 C   0  0  0  0  0  0  0  0  0  0  0  0
   38.6809   10.9637  -17.6744 C   0  0  0  0  0  0  0  0  0  0  0  0
   38.0466   10.7220  -18.9671 C   0  0  0  0  0  0  0  0  0  0  0  0
   38.5809   10.0374  -19.8515 O   0  0  0  0  0  0  0  0  0  0  0  0
   36.7187   11.3248  -19.2098 C   0  0  0  0  0  0  0  0  0  0  0  0
   36.2420   12.1693  -18.0648 C   0  0  0  0  0  0  0  0  0  0  0  0
   36.5679   11.5698  -16.7136 C   0  0  0  0  0  0  0  0  0  0  0  0
   35.8974   10.1936  -16.6506 C   0  0  0  0  0  0  0  0  0  0  0  0
   35.9801   12.4572  -15.6631 C   0  0  0  0  0  0  0  0  0  0  0  0
   34.6796   11.8805  -15.0857 C   0  0  0  0  0  0  0  0  0  0  0  0
   34.0453   13.0075  -14.2574 C   0  0  0  0  0  0  0  0  0  0  0  0
   34.9728   13.2552  -13.0973 C   0  0  0  0  0  0  0  0  0  0  0  0
   35.2377   12.1256  -12.3614 O   0  0  0  0  0  0  0  0  0  0  0  0
   34.5702   14.3596  -12.1939 C   0  0  0  0  0  0  0  0  0  0  0  0
   36.1139   12.1294  -11.9226 H   0  0  0  0  0  0  0  0  0  0  0  0
  1  2  1  0  0  0
  2  3  1  0  0  0
  3  4  1  0  0  0
  4  5  1  0  0  0
  5  6  1  0  0  0
  6  7  1  0  0  0
  7  8  1  0  0  0
  8  9  2  0  0  0
  9 10  1  0  0  0
 10 11  2  0  0  0
 10 12  1  0  0  0
 12 13  1  0  0  0
 13 14  1  0  0  0
 14 15  1  0  0  0
 14 16  1  0  0  0
 16 17  1  0  0  0
 17 18  1  0  0  0
 18 19  1  0  0  0
 19 20  1  0  0  0
 19 21  1  0  0  0
 21  2  1  0  0  0
 19  4  1  0  0  0
 16  5  1  0  0  0
 14  8  1  0  0  0
 20 22  1  0  0  0
M  END
> <minimizedAffinity>
-6.06380

> <CNNscore>
0.4625765681

> <CNNaffinity>
6.0741243362

> <CNN_VS>
2.8097476959

> <CNNaffinity_variance>
0.1644149721

$$$$
[H]c1nc2c(nc([H])c(=O)n2[H])c(Oc2c([H])c([H])c(N([H])C(=O)N([H])c3c([H])c(C(C([H])([H])[H])(C([H])([H])[H])C([H])([H])[H])nn3-c3c([H])c([H])c([H])c([H])c3[H])c3c([H])c([H])c([H])c([H])c23)c1[H]


 44 49  0  0  0  0  0  0  0  0999 V2000
   35.3382   14.6656  -11.7517 C   0  0  0  0  0  0  0  0  0  0  0  0
   36.6590   14.5882  -11.3889 C   0  0  0  0  0  0  0  0  0  0  0  0
   37.5796   13.7975  -12.0875 C   0  0  0  0  0  0  0  0  0  0  0  0
   37.2182   13.0509  -13.1788 C   0  0  0  0  0  0  0  0  0  0  0  0
   35.8950   13.1159  -13.5508 C   0  0  0  0  0  0  0  0  0  0  0  0
   35.4783   12.3612  -14.6110 C   0  0  0  0  0  0  0  0  0  0  0  0
   34.1658   12.3503  -15.0356 C   0  0  0  0  0  0  0  0  0  0  0  0
   33.2678   13.1099  -14.3771 C   0  0  0  0  0  0  0  0  0  0  0  0
   33.6401   13.9039  -13.2772 C   0  0  0  0  0  0  0  0  0  0  0  0
   34.9505   13.8990  -12.8715 C   0  0  0  0  0  0  0  0  0  0  0  0
   33.2696   16.4753   -9.1568 N   0  0  0  0  0  0  0  0  0  0  0  0
   34.3240   15.6636   -9.7011 C   0  0  0  0  0  0  0  0  0  0  0  0
   35.1391   15.2208   -8.8825 O   0  0  0  0  0  0  0  0  0  0  0  0
   34.3542   15.4348  -11.1143 N   0  0  0  0  0  0  0  0  0  0  0  0
   32.5660   16.8559   -9.8621 H   0  0  0  0  0  0  0  0  0  0  0  0
   33.5622   15.8927  -11.6484 H   0  0  0  0  0  0  0  0  0  0  0  0
   33.3722   17.5347   -5.7349 C   0  0  0  0  0  0  0  0  0  0  0  0
   33.8975   17.5984   -7.0212 C   0  0  0  0  0  0  0  0  0  0  0  0
   33.1590   16.7621   -7.7940 C   0  0  0  0  0  0  0  0  0  0  0  0
   32.1948   16.1920   -6.9998 N   0  0  0  0  0  0  0  0  0  0  0  0
   32.3576   16.6723   -5.8063 N   0  0  0  0  0  0  0  0  0  0  0  0
   31.2058   15.2476   -7.4285 C   0  0  0  0  0  0  0  0  0  0  0  0
   31.4635   13.9190   -7.3446 C   0  0  0  0  0  0  0  0  0  0  0  0
   30.5167   13.0014   -7.7509 C   0  0  0  0  0  0  0  0  0  0  0  0
   29.2818   13.4259   -8.2534 C   0  0  0  0  0  0  0  0  0  0  0  0
   29.0146   14.7750   -8.3408 C   0  0  0  0  0  0  0  0  0  0  0  0
   29.9819   15.6725   -7.9266 C   0  0  0  0  0  0  0  0  0  0  0  0
   32.9954   18.0366   -3.3612 C   0  0  0  0  0  0  0  0  0  0  0  0
   33.8829   18.2975   -4.5571 C   0  0  0  0  0  0  0  0  0  0  0  0
   33.9568   19.7749   -4.8169 C   0  0  0  0  0  0  0  0  0  0  0  0
   35.2689   17.7710   -4.1859 C   0  0  0  0  0  0  0  0  0  0  0  0
   38.1742   12.2942  -13.8284 O   0  0  0  0  0  0  0  0  0  0  0  0
   39.2166   12.8248  -14.5777 C   0  0  0  0  0  0  0  0  0  0  0  0
   40.0707   13.8001  -14.0942 C   0  0  0  0  0  0  0  0  0  0  0  0
   41.0659   14.2547  -14.9236 C   0  0  0  0  0  0  0  0  0  0  0  0
   41.2291   13.7882  -16.1638 N   0  0  0  0  0  0  0  0  0  0  0  0
   40.4267   12.8429  -16.6765 C   0  0  0  0  0  0  0  0  0  0  0  0
   40.6259   12.3990  -17.9423 N   0  0  0  0  0  0  0  0  0  0  0  0
   39.8227   11.4606  -18.4488 C   0  0  0  0  0  0  0  0  0  0  0  0
   40.0118   11.0469  -19.6350 O   0  0  0  0  0  0  0  0  0  0  0  0
   38.8020   10.9574  -17.6747 C   0  0  0  0  0  0  0  0  0  0  0  0
   38.6225   11.4152  -16.4145 N   0  0  0  0  0  0  0  0  0  0  0  0
   39.4126   12.3631  -15.8654 C   0  0  0  0  0  0  0  0  0  0  0  0
   41.4151   12.8185  -18.4765 H   0  0  0  0  0  0  0  0  0  0  0  0
 28 29  1  0  0  0
 29 30  1  0  0  0
 29 31  1  0  0  0
 29 17  1  0  0  0
 17 18  1  0  0  0
 18 19  2  0  0  0
 19 11  1  0  0  0
 11 12  1  0  0  0
 12 13  2  0  0  0
 12 14  1  0  0  0
 14  1  1  0  0  0
  1  2  2  0  0  0
  2  3  1  0  0  0
  3  4  2  0  0  0
  4 32  1  0  0  0
 32 33  1  0  0  0
 33 34  2  0  0  0
 34 35  1  0  0  0
 35 36  2  0  0  0
 36 37  1  0  0  0
 37 38  1  0  0  0
 38 39  1  0  0  0
 39 40  2  0  0  0
 39 41  1  0  0  0
 41 42  2  0  0  0
 42 43  1  0  0  0
  4  5  1  0  0  0
  5  6  2  0  0  0
  6  7  1  0  0  0
  7  8  2  0  0  0
  8  9  1  0  0  0
  9 10  2  0  0  0
 19 20  1  0  0  0
 20 21  1  0  0  0
 20 22  1  0  0  0
 22 23  2  0  0  0
 23 24  1  0  0  0
 24 25  2  0  0  0
 25 26  1  0  0  0
 26 27  2  0  0  0
 21 17  2  0  0  0
 27 22  1  0  0  0
 10  1  1  0  0  0
 43 33  1  0  0  0
 10  5  1  0  0  0
 43 37  2  0  0  0
 11 15  1  0  0  0
 14 16  1  0  0  0
 38 44  1  0  0  0
M  END
> <minimizedAffinity>
-9.92468

> <CNNscore>
0.2619266510

> <CNNaffinity>
7.2492952347

> <CNN_VS>
1.8987835646

> <CNNaffinity_variance>
0.2023183405

$$$$
[H]c1nc2c(nc([H])c(=O)n2[H])c(Oc2c([H])c([H])c(N([H])C(=O)N([H])c3c([H])c(C(C([H])([H])[H])(C([H])([H])[H])C([H])([H])[H])nn3-c3c([H])c([H])c([H])c([H])c3[H])c3c([H])c([H])c([H])c([H])c23)c1[H]


 44 49  0  0  0  0  0  0  0  0999 V2000
   41.9464   15.8314  -10.6498 C   0  0  0  0  0  0  0  0  0  0  0  0
   42.3741   15.4249  -11.8882 C   0  0  0  0  0  0  0  0  0  0  0  0
   41.4897   15.2308  -12.9564 C   0  0  0  0  0  0  0  0  0  0  0  0
   40.1401   15.4352  -12.8311 C   0  0  0  0  0  0  0  0  0  0  0  0
   39.6970   15.8388  -11.5924 C   0  0  0  0  0  0  0  0  0  0  0  0
   38.3555   16.0210  -11.4077 C   0  0  0  0  0  0  0  0  0  0  0  0
   37.8253   16.4025  -10.1927 C   0  0  0  0  0  0  0  0  0  0  0  0
   38.6634   16.5987   -9.1554 C   0  0  0  0  0  0  0  0  0  0  0  0
   40.0529   16.4228   -9.2875 C   0  0  0  0  0  0  0  0  0  0  0  0
   40.5585   16.0422  -10.5046 C   0  0  0  0  0  0  0  0  0  0  0  0
   43.9273   15.3859   -7.4614 N   0  0  0  0  0  0  0  0  0  0  0  0
   43.0744   15.0440   -8.5671 C   0  0  0  0  0  0  0  0  0  0  0  0
   42.6730   13.8741   -8.5952 O   0  0  0  0  0  0  0  0  0  0  0  0
   42.7617   16.0556   -9.5311 N   0  0  0  0  0  0  0  0  0  0  0  0
   44.2721   16.3948   -7.4362 H   0  0  0  0  0  0  0  0  0  0  0  0
   43.1949   17.0010   -9.3291 H   0  0  0  0  0  0  0  0  0  0  0  0
   45.3165   12.9993   -5.1774 C   0  0  0  0  0  0  0  0  0  0  0  0
   45.4458   13.7615   -6.3337 C   0  0  0  0  0  0  0  0  0  0  0  0
   44.2956   14.4679   -6.4747 C   0  0  0  0  0  0  0  0  0  0  0  0
   43.4705   14.1483   -5.4247 N   0  0  0  0  0  0  0  0  0  0  0  0
   44.1079   13.2878   -4.6934 N   0  0  0  0  0  0  0  0  0  0  0  0
   42.1578   14.6770   -5.1986 C   0  0  0  0  0  0  0  0  0  0  0  0
   41.0712   13.9781   -5.6104 C   0  0  0  0  0  0  0  0  0  0  0  0
   39.8028   14.4762   -5.3942 C   0  0  0  0  0  0  0  0  0  0  0  0
   39.6194   15.7043   -4.7494 C   0  0  0  0  0  0  0  0  0  0  0  0
   40.7202   16.4187   -4.3288 C   0  0  0  0  0  0  0  0  0  0  0  0
   41.9797   15.8958   -4.5588 C   0  0  0  0  0  0  0  0  0  0  0  0
   47.1619   12.7699   -3.5744 C   0  0  0  0  0  0  0  0  0  0  0  0
   46.3519   12.0670   -4.6401 C   0  0  0  0  0  0  0  0  0  0  0  0
   47.2693   11.5480   -5.7100 C   0  0  0  0  0  0  0  0  0  0  0  0
   45.6559   10.8959   -3.9473 C   0  0  0  0  0  0  0  0  0  0  0  0
   39.3198   15.2306  -13.9236 O   0  0  0  0  0  0  0  0  0  0  0  0
   38.8050   13.9952  -14.2959 C   0  0  0  0  0  0  0  0  0  0  0  0
   37.8129   13.3470  -13.5818 C   0  0  0  0  0  0  0  0  0  0  0  0
   37.3807   12.1272  -14.0400 C   0  0  0  0  0  0  0  0  0  0  0  0
   37.8836   11.5589  -15.1384 N   0  0  0  0  0  0  0  0  0  0  0  0
   38.8461   12.1487  -15.8638 C   0  0  0  0  0  0  0  0  0  0  0  0
   39.3312   11.5353  -16.9718 N   0  0  0  0  0  0  0  0  0  0  0  0
   40.2910   12.1248  -17.6882 C   0  0  0  0  0  0  0  0  0  0  0  0
   40.7434   11.5475  -18.7255 O   0  0  0  0  0  0  0  0  0  0  0  0
   40.7740   13.3501  -17.2888 C   0  0  0  0  0  0  0  0  0  0  0  0
   40.2749   13.9433  -16.1802 N   0  0  0  0  0  0  0  0  0  0  0  0
   39.3042   13.3803  -15.4284 C   0  0  0  0  0  0  0  0  0  0  0  0
   38.9242   10.6101  -17.2217 H   0  0  0  0  0  0  0  0  0  0  0  0
 28 29  1  0  0  0
 29 30  1  0  0  0
 29 31  1  0  0  0
 29 17  1  0  0  0
 17 18  1  0  0  0
 18 19  2  0  0  0
 19 11  1  0  0  0
 11 12  1  0  0  0
 12 13  2  0  0  0
 12 14  1  0  0  0
 14  1  1  0  0  0
  1  2  2  0  0  0
  2  3  1  0  0  0
  3  4  2  0  0  0
  4 32  1  0  0  0
 32 33  1  0  0  0
 33 34  2  0  0  0
 34 35  1  0  0  0
 35 36  2  0  0  0
 36 37  1  0  0  0
 37 38  1  0  0  0
 38 39  1  0  0  0
 39 40  2  0  0  0
 39 41  1  0  0  0
 41 42  2  0  0  0
 42 43  1  0  0  0
  4  5  1  0  0  0
  5  6  2  0  0  0
  6  7  1  0  0  0
  7  8  2  0  0  0
  8  9  1  0  0  0
  9 10  2  0  0  0
 19 20  1  0  0  0
 20 21  1  0  0  0
 20 22  1  0  0  0
 22 23  2  0  0  0
 23 24  1  0  0  0
 24 25  2  0  0  0
 25 26  1  0  0  0
 26 27  2  0  0  0
 21 17  2  0  0  0
 27 22  1  0  0  0
 10  1  1  0  0  0
 43 33  1  0  0  0
 10  5  1  0  0  0
 43 37  2  0  0  0
 11 15  1  0  0  0
 14 16  1  0  0  0
 38 44  1  0  0  0
M  END
> <minimizedAffinity>
-8.15004

> <CNNscore>
0.0639526471

> <CNNaffinity>
6.3622703552

> <CNN_VS>
0.4068840444

> <CNNaffinity_variance>
0.2220817804

$$$$
[H]c1nc2c(nc([H])c(=O)n2[H])c(Oc2c([H])c([H])c(N([H])C(=O)N([H])c3c([H])c(C(C([H])([H])[H])(C([H])([H])[H])C([H])([H])[H])nn3-c3c([H])c([H])c([H])c([H])c3[H])c3c([H])c([H])c([H])c([H])c23)c1[H]


 44 49  0  0  0  0  0  0  0  0999 V2000
   36.9185   14.5208  -10.9619 C   0  0  0  0  0  0  0  0  0  0  0  0
   38.0547   15.2866  -10.8948 C   0  0  0  0  0  0  0  0  0  0  0  0
   38.9021   15.4623  -11.9956 C   0  0  0  0  0  0  0  0  0  0  0  0
   38.6489   14.8795  -13.2102 C   0  0  0  0  0  0  0  0  0  0  0  0
   37.5145   14.1048  -13.2899 C   0  0  0  0  0  0  0  0  0  0  0  0
   37.2381   13.4736  -14.4699 C   0  0  0  0  0  0  0  0  0  0  0  0
   36.1348   12.6609  -14.6287 C   0  0  0  0  0  0  0  0  0  0  0  0
   35.3059   12.4853  -13.5803 C   0  0  0  0  0  0  0  0  0  0  0  0
   35.5430   13.1079  -12.3413 C   0  0  0  0  0  0  0  0  0  0  0  0
   36.6467   13.9112  -12.2054 C   0  0  0  0  0  0  0  0  0  0  0  0
   34.3840   15.0001   -8.1988 N   0  0  0  0  0  0  0  0  0  0  0  0
   35.2914   15.3465   -9.2587 C   0  0  0  0  0  0  0  0  0  0  0  0
   35.3729   16.5520   -9.5246 O   0  0  0  0  0  0  0  0  0  0  0  0
   36.0140   14.2981   -9.9137 N   0  0  0  0  0  0  0  0  0  0  0  0
   34.3147   13.9611   -7.9684 H   0  0  0  0  0  0  0  0  0  0  0  0
   35.8146   13.3281   -9.5372 H   0  0  0  0  0  0  0  0  0  0  0  0
   32.8667   17.5105   -6.1402 C   0  0  0  0  0  0  0  0  0  0  0  0
   33.9721   16.7231   -6.4444 C   0  0  0  0  0  0  0  0  0  0  0  0
   33.6291   15.9493   -7.5053 C   0  0  0  0  0  0  0  0  0  0  0  0
   32.3353   16.2531   -7.8506 N   0  0  0  0  0  0  0  0  0  0  0  0
   31.9308   17.1691   -7.0267 N   0  0  0  0  0  0  0  0  0  0  0  0
   31.5916   15.6587   -8.9218 C   0  0  0  0  0  0  0  0  0  0  0  0
   30.6122   14.7627   -8.6446 C   0  0  0  0  0  0  0  0  0  0  0  0
   29.8877   14.1876   -9.6682 C   0  0  0  0  0  0  0  0  0  0  0  0
   30.1512   14.5188  -11.0019 C   0  0  0  0  0  0  0  0  0  0  0  0
   31.1453   15.4289  -11.2893 C   0  0  0  0  0  0  0  0  0  0  0  0
   31.8559   15.9896  -10.2436 C   0  0  0  0  0  0  0  0  0  0  0  0
   34.0835   18.4701   -4.2359 C   0  0  0  0  0  0  0  0  0  0  0  0
   32.8010   18.5131   -5.0355 C   0  0  0  0  0  0  0  0  0  0  0  0
   31.6302   18.2870   -4.1225 C   0  0  0  0  0  0  0  0  0  0  0  0
   32.7188   19.9147   -5.6394 C   0  0  0  0  0  0  0  0  0  0  0  0
   39.5213   15.0945  -14.2595 O   0  0  0  0  0  0  0  0  0  0  0  0
   40.7046   14.3924  -14.4505 C   0  0  0  0  0  0  0  0  0  0  0  0
   41.7663   14.4516  -13.5652 C   0  0  0  0  0  0  0  0  0  0  0  0
   42.8897   13.7178  -13.8553 C   0  0  0  0  0  0  0  0  0  0  0  0
   42.9836   12.9606  -14.9508 N   0  0  0  0  0  0  0  0  0  0  0  0
   41.9811   12.8709  -15.8381 C   0  0  0  0  0  0  0  0  0  0  0  0
   42.1191   12.0920  -16.9396 N   0  0  0  0  0  0  0  0  0  0  0  0
   41.1199   12.0088  -17.8210 C   0  0  0  0  0  0  0  0  0  0  0  0
   41.2523   11.2785  -18.8520 O   0  0  0  0  0  0  0  0  0  0  0  0
   39.9618   12.7176  -17.5959 C   0  0  0  0  0  0  0  0  0  0  0  0
   39.8465   13.4880  -16.4900 N   0  0  0  0  0  0  0  0  0  0  0  0
   40.8335   13.5991  -15.5747 C   0  0  0  0  0  0  0  0  0  0  0  0
   43.0189   11.5805  -17.0526 H   0  0  0  0  0  0  0  0  0  0  0  0
 28 29  1  0  0  0
 29 30  1  0  0  0
 29 31  1  0  0  0
 29 17  1  0  0  0
 17 18  1  0  0  0
 18 19  2  0  0  0
 19 11  1  0  0  0
 11 12  1  0  0  0
 12 13  2  0  0  0
 12 14  1  0  0  0
 14  1  1  0  0  0
  1  2  2  0  0  0
  2  3  1  0  0  0
  3  4  2  0  0  0
  4 32  1  0  0  0
 32 33  1  0  0  0
 33 34  2  0  0  0
 34 35  1  0  0  0
 35 36  2  0  0  0
 36 37  1  0  0  0
 37 38  1  0  0  0
 38 39  1  0  0  0
 39 40  2  0  0  0
 39 41  1  0  0  0
 41 42  2  0  0  0
 42 43  1  0  0  0
  4  5  1  0  0  0
  5  6  2  0  0  0
  6  7  1  0  0  0
  7  8  2  0  0  0
  8  9  1  0  0  0
  9 10  2  0  0  0
 19 20  1  0  0  0
 20 21  1  0  0  0
 20 22  1  0  0  0
 22 23  2  0  0  0
 23 24  1  0  0  0
 24 25  2  0  0  0
 25 26  1  0  0  0
 26 27  2  0  0  0
 21 17  2  0  0  0
 27 22  1  0  0  0
 10  1  1  0  0  0
 43 33  1  0  0  0
 10  5  1  0  0  0
 43 37  2  0  0  0
 11 15  1  0  0  0
 14 16  1  0  0  0
 38 44  1  0  0  0
M  END
> <minimizedAffinity>
-10.20995

> <CNNscore>
0.0559298918

> <CNNaffinity>
6.6493654251

> <CNN_VS>
0.3718982935

> <CNNaffinity_variance>
0.1802034676

$$$$
[H]c1nc2c(nc([H])c(=O)n2[H])c(Oc2c([H])c([H])c(N([H])C(=O)N([H])c3c([H])c(C(C([H])([H])[H])(C([H])([H])[H])C([H])([H])[H])nn3-c3c([H])c([H])c([H])c([H])c3[H])c3c([H])c([H])c([H])c([H])c23)c1[H]


 44 49  0  0  0  0  0  0  0  0999 V2000
   41.2661   15.2193  -13.0193 C   0  0  0  0  0  0  0  0  0  0  0  0
   39.9452   15.4430  -12.7245 C   0  0  0  0  0  0  0  0  0  0  0  0
   38.9085   14.7869  -13.3995 C   0  0  0  0  0  0  0  0  0  0  0  0
   39.1493   13.8791  -14.3980 C   0  0  0  0  0  0  0  0  0  0  0  0
   40.4703   13.6488  -14.7070 C   0  0  0  0  0  0  0  0  0  0  0  0
   40.7604   12.7788  -15.7200 C   0  0  0  0  0  0  0  0  0  0  0  0
   42.0560   12.5083  -16.1089 C   0  0  0  0  0  0  0  0  0  0  0  0
   43.0659   13.1276  -15.4658 C   0  0  0  0  0  0  0  0  0  0  0  0
   42.8256   14.0349  -14.4179 C   0  0  0  0  0  0  0  0  0  0  0  0
   41.5294   14.2898  -14.0482 C   0  0  0  0  0  0  0  0  0  0  0  0
   43.8122   16.3412  -10.4607 N   0  0  0  0  0  0  0  0  0  0  0  0
   42.6551   15.6774  -10.9968 C   0  0  0  0  0  0  0  0  0  0  0  0
   41.9925   15.0148  -10.1890 O   0  0  0  0  0  0  0  0  0  0  0  0
   42.3630   15.8260  -12.3907 N   0  0  0  0  0  0  0  0  0  0  0  0
   44.3826   16.9137  -11.1565 H   0  0  0  0  0  0  0  0  0  0  0  0
   43.0452   16.4421  -12.9172 H   0  0  0  0  0  0  0  0  0  0  0  0
   44.4655   16.5141   -6.9413 C   0  0  0  0  0  0  0  0  0  0  0  0
   43.8391   17.0385   -8.0671 C   0  0  0  0  0  0  0  0  0  0  0  0
   44.1844   16.2511   -9.1171 C   0  0  0  0  0  0  0  0  0  0  0  0
   45.0092   15.2581   -8.6489 N   0  0  0  0  0  0  0  0  0  0  0  0
   45.1453   15.4516   -7.3739 N   0  0  0  0  0  0  0  0  0  0  0  0
   45.5972   14.2153   -9.4368 C   0  0  0  0  0  0  0  0  0  0  0  0
   46.8345   14.3872   -9.9642 C   0  0  0  0  0  0  0  0  0  0  0  0
   47.4113   13.3882  -10.7209 C   0  0  0  0  0  0  0  0  0  0  0  0
   46.7315   12.1878  -10.9543 C   0  0  0  0  0  0  0  0  0  0  0  0
   45.4737   12.0077  -10.4207 C   0  0  0  0  0  0  0  0  0  0  0  0
   44.9196   13.0259   -9.6664 C   0  0  0  0  0  0  0  0  0  0  0  0
   45.7166   17.0226   -4.8909 C   0  0  0  0  0  0  0  0  0  0  0  0
   44.3615   17.0712   -5.5597 C   0  0  0  0  0  0  0  0  0  0  0  0
   43.3575   16.3372   -4.7178 C   0  0  0  0  0  0  0  0  0  0  0  0
   43.9783   18.5481   -5.6459 C   0  0  0  0  0  0  0  0  0  0  0  0
   38.0834   13.2617  -15.0234 O   0  0  0  0  0  0  0  0  0  0  0  0
   36.8502   13.0333  -14.4260 C   0  0  0  0  0  0  0  0  0  0  0  0
   36.5631   13.4079  -13.1253 C   0  0  0  0  0  0  0  0  0  0  0  0
   35.3111   13.1299  -12.6356 C   0  0  0  0  0  0  0  0  0  0  0  0
   34.3782   12.5179  -13.3689 N   0  0  0  0  0  0  0  0  0  0  0  0
   34.6094   12.1362  -14.6343 C   0  0  0  0  0  0  0  0  0  0  0  0
   33.6346   11.5147  -15.3431 N   0  0  0  0  0  0  0  0  0  0  0  0
   33.8708   11.1340  -16.6007 C   0  0  0  0  0  0  0  0  0  0  0  0
   32.9556   10.5519  -17.2620 O   0  0  0  0  0  0  0  0  0  0  0  0
   35.1046   11.3798  -17.1589 C   0  0  0  0  0  0  0  0  0  0  0  0
   36.0618   12.0015  -16.4328 N   0  0  0  0  0  0  0  0  0  0  0  0
   35.8629   12.4021  -15.1584 C   0  0  0  0  0  0  0  0  0  0  0  0
   32.7229   11.3582  -14.8651 H   0  0  0  0  0  0  0  0  0  0  0  0
 28 29  1  0  0  0
 29 30  1  0  0  0
 29 31  1  0  0  0
 29 17  1  0  0  0
 17 18  1  0  0  0
 18 19  2  0  0  0
 19 11  1  0  0  0
 11 12  1  0  0  0
 12 13  2  0  0  0
 12 14  1  0  0  0
 14  1  1  0  0  0
  1  2  2  0  0  0
  2  3  1  0  0  0
  3  4  2  0  0  0
  4 32  1  0  0  0
 32 33  1  0  0  0
 33 34  2  0  0  0
 34 35  1  0  0  0
 35 36  2  0  0  0
 36 37  1  0  0  0
 37 38  1  0  0  0
 38 39  1  0  0  0
 39 40  2  0  0  0
 39 41  1  0  0  0
 41 42  2  0  0  0
 42 43  1  0  0  0
  4  5  1  0  0  0
  5  6  2  0  0  0
  6  7  1  0  0  0
  7  8  2  0  0  0
  8  9  1  0  0  0
  9 10  2  0  0  0
 19 20  1  0  0  0
 20 21  1  0  0  0
 20 22  1  0  0  0
 22 23  2  0  0  0
 23 24  1  0  0  0
 24 25  2  0  0  0
 25 26  1  0  0  0
 26 27  2  0  0  0
 21 17  2  0  0  0
 27 22  1  0  0  0
 10  1  1  0  0  0
 43 33  1  0  0  0
 10  5  1  0  0  0
 43 37  2  0  0  0
 11 15  1  0  0  0
 14 16  1  0  0  0
 38 44  1  0  0  0
M  END
> <minimizedAffinity>
-8.71335

> <CNNscore>
0.0516295582

> <CNNaffinity>
6.9217185974

> <CNN_VS>
0.3573652804

> <CNNaffinity_variance>
0.2628585696

$$$$
[H]c1nc2c(nc([H])c(=O)n2[H])c(Oc2c([H])c([H])c(N([H])C(=O)N([H])c3c([H])c(C(C([H])([H])[H])(C([H])([H])[H])C([H])([H])[H])nn3-c3c([H])c([H])c([H])c([H])c3[H])c3c([H])c([H])c([H])c([H])c23)c1[H]


 44 49  0  0  0  0  0  0  0  0999 V2000
   36.8512   14.5147  -10.9066 C   0  0  0  0  0  0  0  0  0  0  0  0
   37.9839   15.2758  -10.7666 C   0  0  0  0  0  0  0  0  0  0  0  0
   38.8762   15.4874  -11.8248 C   0  0  0  0  0  0  0  0  0  0  0  0
   38.6733   14.9466  -13.0680 C   0  0  0  0  0  0  0  0  0  0  0  0
   37.5429   14.1770  -13.2209 C   0  0  0  0  0  0  0  0  0  0  0  0
   37.3154   13.5867  -14.4321 C   0  0  0  0  0  0  0  0  0  0  0  0
   36.2193   12.7818  -14.6638 C   0  0  0  0  0  0  0  0  0  0  0  0
   35.3477   12.5721  -13.6572 C   0  0  0  0  0  0  0  0  0  0  0  0
   35.5335   13.1519  -12.3890 C   0  0  0  0  0  0  0  0  0  0  0  0
   36.6309   13.9482  -12.1803 C   0  0  0  0  0  0  0  0  0  0  0  0
   34.3118   14.9062   -8.1342 N   0  0  0  0  0  0  0  0  0  0  0  0
   35.2746   15.2861   -9.1320 C   0  0  0  0  0  0  0  0  0  0  0  0
   35.4829   16.5005   -9.2438 O   0  0  0  0  0  0  0  0  0  0  0  0
   35.9040   14.2581   -9.9049 N   0  0  0  0  0  0  0  0  0  0  0  0
   34.1333   13.8593   -8.0366 H   0  0  0  0  0  0  0  0  0  0  0  0
   35.5994   13.2747   -9.6552 H   0  0  0  0  0  0  0  0  0  0  0  0
   32.2794   17.3554   -6.4869 C   0  0  0  0  0  0  0  0  0  0  0  0
   32.5726   16.6202   -7.6307 C   0  0  0  0  0  0  0  0  0  0  0  0
   33.6394   15.8349   -7.3358 C   0  0  0  0  0  0  0  0  0  0  0  0
   33.9991   16.0801   -6.0336 N   0  0  0  0  0  0  0  0  0  0  0  0
   33.1777   16.9742   -5.5781 N   0  0  0  0  0  0  0  0  0  0  0  0
   35.0804   15.4555   -5.3303 C   0  0  0  0  0  0  0  0  0  0  0  0
   34.8600   14.3111   -4.6372 C   0  0  0  0  0  0  0  0  0  0  0  0
   35.8949   13.6997   -3.9600 C   0  0  0  0  0  0  0  0  0  0  0  0
   37.1818   14.2486   -3.9782 C   0  0  0  0  0  0  0  0  0  0  0  0
   37.4114   15.4115   -4.6811 C   0  0  0  0  0  0  0  0  0  0  0  0
   36.3557   16.0031   -5.3506 C   0  0  0  0  0  0  0  0  0  0  0  0
   31.7520   19.7496   -6.3544 C   0  0  0  0  0  0  0  0  0  0  0  0
   31.1746   18.3523   -6.3634 C   0  0  0  0  0  0  0  0  0  0  0  0
   30.3454   18.1418   -5.1290 C   0  0  0  0  0  0  0  0  0  0  0  0
   30.2837   18.2643   -7.6021 C   0  0  0  0  0  0  0  0  0  0  0  0
   39.5884   15.1956  -14.0724 O   0  0  0  0  0  0  0  0  0  0  0  0
   40.7688   14.4851  -14.2501 C   0  0  0  0  0  0  0  0  0  0  0  0
   41.8208   14.5367  -13.3528 C   0  0  0  0  0  0  0  0  0  0  0  0
   42.9421   13.7949  -13.6303 C   0  0  0  0  0  0  0  0  0  0  0  0
   43.0431   13.0372  -14.7248 N   0  0  0  0  0  0  0  0  0  0  0  0
   42.0501   12.9547  -15.6234 C   0  0  0  0  0  0  0  0  0  0  0  0
   42.1950   12.1750  -16.7235 N   0  0  0  0  0  0  0  0  0  0  0  0
   41.2053   12.0990  -17.6161 C   0  0  0  0  0  0  0  0  0  0  0  0
   41.3442   11.3678  -18.6456 O   0  0  0  0  0  0  0  0  0  0  0  0
   40.0498   12.8160  -17.4041 C   0  0  0  0  0  0  0  0  0  0  0  0
   39.9275   13.5871  -16.2994 N   0  0  0  0  0  0  0  0  0  0  0  0
   40.9048   13.6911  -15.3730 C   0  0  0  0  0  0  0  0  0  0  0  0
   43.0924   11.6570  -16.8263 H   0  0  0  0  0  0  0  0  0  0  0  0
 28 29  1  0  0  0
 29 30  1  0  0  0
 29 31  1  0  0  0
 29 17  1  0  0  0
 17 18  1  0  0  0
 18 19  2  0  0  0
 19 11  1  0  0  0
 11 12  1  0  0  0
 12 13  2  0  0  0
 12 14  1  0  0  0
 14  1  1  0  0  0
  1  2  2  0  0  0
  2  3  1  0  0  0
  3  4  2  0  0  0
  4 32  1  0  0  0
 32 33  1  0  0  0
 33 34  2  0  0  0
 34 35  1  0  0  0
 35 36  2  0  0  0
 36 37  1  0  0  0
 37 38  1  0  0  0
 38 39  1  0  0  0
 39 40  2  0  0  0
 39 41  1  0  0  0
 41 42  2  0  0  0
 42 43  1  0  0  0
  4  5  1  0  0  0
  5  6  2  0  0  0
  6  7  1  0  0  0
  7  8  2  0  0  0
  8  9  1  0  0  0
  9 10  2  0  0  0
 19 20  1  0  0  0
 20 21  1  0  0  0
 20 22  1  0  0  0
 22 23  2  0  0  0
 23 24  1  0  0  0
 24 25  2  0  0  0
 25 26  1  0  0  0
 26 27  2  0  0  0
 21 17  2  0  0  0
 27 22  1  0  0  0
 10  1  1  0  0  0
 43 33  1  0  0  0
 10  5  1  0  0  0
 43 37  2  0  0  0
 11 15  1  0  0  0
 14 16  1  0  0  0
 38 44  1  0  0  0
M  END
> <minimizedAffinity>
-9.64559

> <CNNscore>
0.0494502485

> <CNNaffinity>
6.6596345901

> <CNN_VS>
0.3293205798

> <CNNaffinity_variance>
0.1051279306

$$$$
[H]c1nc2c(nc([H])c(=O)n2[H])c(Oc2c([H])c([H])c(N([H])C(=O)N([H])c3c([H])c(C(C([H])([H])[H])(C([H])([H])[H])C([H])([H])[H])nn3-c3c([H])c([H])c([H])c([H])c3[H])c3c([H])c([H])c([H])c([H])c23)c1[H]


 44 49  0  0  0  0  0  0  0  0999 V2000
   42.3118   13.8636  -14.1181 C   0  0  0  0  0  0  0  0  0  0  0  0
   41.5094   14.6240  -13.3059 C   0  0  0  0  0  0  0  0  0  0  0  0
   40.1448   14.8046  -13.5627 C   0  0  0  0  0  0  0  0  0  0  0  0
   39.5249   14.2319  -14.6429 C   0  0  0  0  0  0  0  0  0  0  0  0
   40.3194   13.4700  -15.4686 C   0  0  0  0  0  0  0  0  0  0  0  0
   39.7550   12.9076  -16.5787 C   0  0  0  0  0  0  0  0  0  0  0  0
   40.4843   12.1487  -17.4705 C   0  0  0  0  0  0  0  0  0  0  0  0
   41.7981   11.9609  -17.2351 C   0  0  0  0  0  0  0  0  0  0  0  0
   42.4322   12.5186  -16.1100 C   0  0  0  0  0  0  0  0  0  0  0  0
   41.6880   13.2706  -15.2366 C   0  0  0  0  0  0  0  0  0  0  0  0
   45.6799   13.0893  -12.5871 N   0  0  0  0  0  0  0  0  0  0  0  0
   44.2629   13.3214  -12.6591 C   0  0  0  0  0  0  0  0  0  0  0  0
   43.6486   13.2346  -11.5887 O   0  0  0  0  0  0  0  0  0  0  0  0
   43.6811   13.6258  -13.9315 N   0  0  0  0  0  0  0  0  0  0  0  0
   46.2099   13.1655  -13.5094 H   0  0  0  0  0  0  0  0  0  0  0  0
   44.3744   13.6637  -14.7316 H   0  0  0  0  0  0  0  0  0  0  0  0
   47.2836   11.8049   -9.6509 C   0  0  0  0  0  0  0  0  0  0  0  0
   46.5801   11.5695  -10.8275 C   0  0  0  0  0  0  0  0  0  0  0  0
   46.3386   12.7785  -11.3948 C   0  0  0  0  0  0  0  0  0  0  0  0
   46.8829   13.7435  -10.5838 N   0  0  0  0  0  0  0  0  0  0  0  0
   47.4239   13.1290   -9.5781 N   0  0  0  0  0  0  0  0  0  0  0  0
   46.8485   15.1563  -10.8219 C   0  0  0  0  0  0  0  0  0  0  0  0
   45.8382   15.9006  -10.3083 C   0  0  0  0  0  0  0  0  0  0  0  0
   45.7978   17.2620  -10.5283 C   0  0  0  0  0  0  0  0  0  0  0  0
   46.7944   17.8925  -11.2813 C   0  0  0  0  0  0  0  0  0  0  0  0
   47.8236   17.1409  -11.8057 C   0  0  0  0  0  0  0  0  0  0  0  0
   47.8389   15.7783  -11.5696 C   0  0  0  0  0  0  0  0  0  0  0  0
   49.1364   11.1061   -8.1995 C   0  0  0  0  0  0  0  0  0  0  0  0
   47.7562   10.7511   -8.7044 C   0  0  0  0  0  0  0  0  0  0  0  0
   47.7844    9.3863   -9.3307 C   0  0  0  0  0  0  0  0  0  0  0  0
   46.8422   10.7357   -7.4796 C   0  0  0  0  0  0  0  0  0  0  0  0
   38.1741   14.4443  -14.8397 O   0  0  0  0  0  0  0  0  0  0  0  0
   37.1687   13.8065  -14.1241 C   0  0  0  0  0  0  0  0  0  0  0  0
   36.9801   13.9887  -12.7655 C   0  0  0  0  0  0  0  0  0  0  0  0
   35.9558   13.3048  -12.1592 C   0  0  0  0  0  0  0  0  0  0  0  0
   35.1496   12.4823  -12.8343 N   0  0  0  0  0  0  0  0  0  0  0  0
   35.2927   12.2736  -14.1520 C   0  0  0  0  0  0  0  0  0  0  0  0
   34.4534   11.4274  -14.7989 N   0  0  0  0  0  0  0  0  0  0  0  0
   34.6022   11.2209  -16.1094 C   0  0  0  0  0  0  0  0  0  0  0  0
   33.8144   10.4274  -16.7125 O   0  0  0  0  0  0  0  0  0  0  0  0
   35.6088   11.8729  -16.7846 C   0  0  0  0  0  0  0  0  0  0  0  0
   36.4340   12.7126  -16.1185 N   0  0  0  0  0  0  0  0  0  0  0  0
   36.3170   12.9486  -14.7937 C   0  0  0  0  0  0  0  0  0  0  0  0
   33.7120   10.9652  -14.2326 H   0  0  0  0  0  0  0  0  0  0  0  0
 28 29  1  0  0  0
 29 30  1  0  0  0
 29 31  1  0  0  0
 29 17  1  0  0  0
 17 18  1  0  0  0
 18 19  2  0  0  0
 19 11  1  0  0  0
 11 12  1  0  0  0
 12 13  2  0  0  0
 12 14  1  0  0  0
 14  1  1  0  0  0
  1  2  2  0  0  0
  2  3  1  0  0  0
  3  4  2  0  0  0
  4 32  1  0  0  0
 32 33  1  0  0  0
 33 34  2  0  0  0
 34 35  1  0  0  0
 35 36  2  0  0  0
 36 37  1  0  0  0
 37 38  1  0  0  0
 38 39  1  0  0  0
 39 40  2  0  0  0
 39 41  1  0  0  0
 41 42  2  0  0  0
 42 43  1  0  0  0
  4  5  1  0  0  0
  5  6  2  0  0  0
  6  7  1  0  0  0
  7  8  2  0  0  0
  8  9  1  0  0  0
  9 10  2  0  0  0
 19 20  1  0  0  0
 20 21  1  0  0  0
 20 22  1  0  0  0
 22 23  2  0  0  0
 23 24  1  0  0  0
 24 25  2  0  0  0
 25 26  1  0  0  0
 26 27  2  0  0  0
 21 17  2  0  0  0
 27 22  1  0  0  0
 10  1  1  0  0  0
 43 33  1  0  0  0
 10  5  1  0  0  0
 43 37  2  0  0  0
 11 15  1  0  0  0
 14 16  1  0  0  0
 38 44  1  0  0  0
M  END
> <minimizedAffinity>
-8.97516

> <CNNscore>
0.0479549356

> <CNNaffinity>
6.7154378891

> <CNN_VS>
0.3220383823

> <CNNaffinity_variance>
0.0738408417

$$$$
[H]c1nc2c(nc([H])c(=O)n2[H])c(Oc2c([H])c([H])c(N([H])C(=O)N([H])c3c([H])c(C(C([H])([H])[H])(C([H])([H])[H])C([H])([H])[H])nn3-c3c([H])c([H])c([H])c([H])c3[H])c3c([H])c([H])c([H])c([H])c23)c1[H]


 44 49  0  0  0  0  0  0  0  0999 V2000
   36.7793   15.8951  -10.7753 C   0  0  0  0  0  0  0  0  0  0  0  0
   35.6090   16.0305  -10.0725 C   0  0  0  0  0  0  0  0  0  0  0  0
   35.5901   16.2487   -8.6895 C   0  0  0  0  0  0  0  0  0  0  0  0
   36.7412   16.3410   -7.9508 C   0  0  0  0  0  0  0  0  0  0  0  0
   37.9225   16.2025   -8.6429 C   0  0  0  0  0  0  0  0  0  0  0  0
   39.0962   16.2511   -7.9449 C   0  0  0  0  0  0  0  0  0  0  0  0
   40.3230   16.0988   -8.5572 C   0  0  0  0  0  0  0  0  0  0  0  0
   40.3590   15.8931   -9.8888 C   0  0  0  0  0  0  0  0  0  0  0  0
   39.1820   15.8309  -10.6568 C   0  0  0  0  0  0  0  0  0  0  0  0
   37.9728   15.9841  -10.0273 C   0  0  0  0  0  0  0  0  0  0  0  0
   36.6794   14.3477  -14.2225 N   0  0  0  0  0  0  0  0  0  0  0  0
   36.5316   14.4515  -12.7962 C   0  0  0  0  0  0  0  0  0  0  0  0
   36.0953   13.4440  -12.2260 O   0  0  0  0  0  0  0  0  0  0  0  0
   36.8887   15.6819  -12.1569 N   0  0  0  0  0  0  0  0  0  0  0  0
   37.0569   15.2156  -14.7141 H   0  0  0  0  0  0  0  0  0  0  0  0
   37.2522   16.4277  -12.8158 H   0  0  0  0  0  0  0  0  0  0  0  0
   35.3539   11.4912  -15.9331 C   0  0  0  0  0  0  0  0  0  0  0  0
   35.1405   12.6140  -15.1403 C   0  0  0  0  0  0  0  0  0  0  0  0
   36.3510   13.1933  -14.9377 C   0  0  0  0  0  0  0  0  0  0  0  0
   37.2953   12.4425  -15.5933 N   0  0  0  0  0  0  0  0  0  0  0  0
   36.6676   11.4594  -16.1601 N   0  0  0  0  0  0  0  0  0  0  0  0
   38.7024   12.7117  -15.6313 C   0  0  0  0  0  0  0  0  0  0  0  0
   39.4280   12.3465  -16.7170 C   0  0  0  0  0  0  0  0  0  0  0  0
   40.7824   12.6045  -16.7654 C   0  0  0  0  0  0  0  0  0  0  0  0
   41.4250   13.2441  -15.6997 C   0  0  0  0  0  0  0  0  0  0  0  0
   40.6924   13.6174  -14.5938 C   0  0  0  0  0  0  0  0  0  0  0  0
   39.3364   13.3462  -14.5721 C   0  0  0  0  0  0  0  0  0  0  0  0
   33.2288   10.4179  -15.3332 C   0  0  0  0  0  0  0  0  0  0  0  0
   34.2912   10.5522  -16.4006 C   0  0  0  0  0  0  0  0  0  0  0  0
   34.8339    9.1948  -16.7449 C   0  0  0  0  0  0  0  0  0  0  0  0
   33.5978   11.1536  -17.6227 C   0  0  0  0  0  0  0  0  0  0  0  0
   36.6566   16.5616   -6.5897 O   0  0  0  0  0  0  0  0  0  0  0  0
   35.8601   15.8220   -5.7246 C   0  0  0  0  0  0  0  0  0  0  0  0
   36.1017   14.4917   -5.4308 C   0  0  0  0  0  0  0  0  0  0  0  0
   35.2473   13.8573   -4.5634 C   0  0  0  0  0  0  0  0  0  0  0  0
   34.2066   14.4796   -4.0048 N   0  0  0  0  0  0  0  0  0  0  0  0
   33.9320   15.7682   -4.2586 C   0  0  0  0  0  0  0  0  0  0  0  0
   32.8629   16.3613   -3.6718 N   0  0  0  0  0  0  0  0  0  0  0  0
   32.5922   17.6427   -3.9302 C   0  0  0  0  0  0  0  0  0  0  0  0
   31.5898   18.1953   -3.3791 O   0  0  0  0  0  0  0  0  0  0  0  0
   33.4060   18.3432   -4.7911 C   0  0  0  0  0  0  0  0  0  0  0  0
   34.4671   17.7310   -5.3647 N   0  0  0  0  0  0  0  0  0  0  0  0
   34.7749   16.4370   -5.1296 C   0  0  0  0  0  0  0  0  0  0  0  0
   32.2865   15.7782   -3.0300 H   0  0  0  0  0  0  0  0  0  0  0  0
 28 29  1  0  0  0
 29 30  1  0  0  0
 29 31  1  0  0  0
 29 17  1  0  0  0
 17 18  1  0  0  0
 18 19  2  0  0  0
 19 11  1  0  0  0
 11 12  1  0  0  0
 12 13  2  0  0  0
 12 14  1  0  0  0
 14  1  1  0  0  0
  1  2  2  0  0  0
  2  3  1  0  0  0
  3  4  2  0  0  0
  4 32  1  0  0  0
 32 33  1  0  0  0
 33 34  2  0  0  0
 34 35  1  0  0  0
 35 36  2  0  0  0
 36 37  1  0  0  0
 37 38  1  0  0  0
 38 39  1  0  0  0
 39 40  2  0  0  0
 39 41  1  0  0  0
 41 42  2  0  0  0
 42 43  1  0  0  0
  4  5  1  0  0  0
  5  6  2  0  0  0
  6  7  1  0  0  0
  7  8  2  0  0  0
  8  9  1  0  0  0
  9 10  2  0  0  0
 19 20  1  0  0  0
 20 21  1  0  0  0
 20 22  1  0  0  0
 22 23  2  0  0  0
 23 24  1  0  0  0
 24 25  2  0  0  0
 25 26  1  0  0  0
 26 27  2  0  0  0
 21 17  2  0  0  0
 27 22  1  0  0  0
 10  1  1  0  0  0
 43 33  1  0  0  0
 10  5  1  0  0  0
 43 37  2  0  0  0
 11 15  1  0  0  0
 14 16  1  0  0  0
 38 44  1  0  0  0
M  END
> <minimizedAffinity>
-9.25972

> <CNNscore>
0.0469794981

> <CNNaffinity>
6.5113840103

> <CNN_VS>
0.3059015572

> <CNNaffinity_variance>
0.2299127579

$$$$
[H]c1nc2c(nc([H])c(=O)n2[H])c(Oc2c([H])c([H])c(N([H])C(=O)N([H])c3c([H])c(C(C([H])([H])[H])(C([H])([H])[H])C([H])([H])[H])nn3-c3c([H])c([H])c([H])c([H])c3[H])c3c([H])c([H])c([H])c([H])c23)c1[H]


 44 49  0  0  0  0  0  0  0  0999 V2000
   37.2243   15.5174   -9.8389 C   0  0  0  0  0  0  0  0  0  0  0  0
   36.1395   14.9428  -10.4511 C   0  0  0  0  0  0  0  0  0  0  0  0
   36.1713   14.5246  -11.7870 C   0  0  0  0  0  0  0  0  0  0  0  0
   37.2898   14.6634  -12.5673 C   0  0  0  0  0  0  0  0  0  0  0  0
   38.3840   15.2426  -11.9668 C   0  0  0  0  0  0  0  0  0  0  0  0
   39.5116   15.4354  -12.7141 C   0  0  0  0  0  0  0  0  0  0  0  0
   40.6444   16.0290  -12.1969 C   0  0  0  0  0  0  0  0  0  0  0  0
   40.6321   16.4327  -10.9109 C   0  0  0  0  0  0  0  0  0  0  0  0
   39.4981   16.2623  -10.0960 C   0  0  0  0  0  0  0  0  0  0  0  0
   38.3822   15.6703  -10.6312 C   0  0  0  0  0  0  0  0  0  0  0  0
   36.5498   17.3231   -6.5874 N   0  0  0  0  0  0  0  0  0  0  0  0
   36.4055   16.9542   -7.9694 C   0  0  0  0  0  0  0  0  0  0  0  0
   35.5135   17.5426   -8.5929 O   0  0  0  0  0  0  0  0  0  0  0  0
   37.2804   15.9571   -8.5085 N   0  0  0  0  0  0  0  0  0  0  0  0
   37.3196   16.8172   -6.0501 H   0  0  0  0  0  0  0  0  0  0  0  0
   37.9868   15.5753   -7.8175 H   0  0  0  0  0  0  0  0  0  0  0  0
   34.8368   20.1089   -5.1219 C   0  0  0  0  0  0  0  0  0  0  0  0
   35.9557   19.6048   -5.7766 C   0  0  0  0  0  0  0  0  0  0  0  0
   35.7401   18.2787   -5.9683 C   0  0  0  0  0  0  0  0  0  0  0  0
   34.5104   17.9688   -5.4418 N   0  0  0  0  0  0  0  0  0  0  0  0
   34.0199   19.0677   -4.9587 N   0  0  0  0  0  0  0  0  0  0  0  0
   33.9028   16.6708   -5.4375 C   0  0  0  0  0  0  0  0  0  0  0  0
   34.4743   15.6630   -4.7328 C   0  0  0  0  0  0  0  0  0  0  0  0
   33.8955   14.4108   -4.7189 C   0  0  0  0  0  0  0  0  0  0  0  0
   32.7152   14.1628   -5.4282 C   0  0  0  0  0  0  0  0  0  0  0  0
   32.1301   15.1834   -6.1460 C   0  0  0  0  0  0  0  0  0  0  0  0
   32.7320   16.4285   -6.1426 C   0  0  0  0  0  0  0  0  0  0  0  0
   35.2544   22.4447   -5.7525 C   0  0  0  0  0  0  0  0  0  0  0  0
   34.6477   21.5320   -4.7110 C   0  0  0  0  0  0  0  0  0  0  0  0
   35.2519   21.8281   -3.3682 C   0  0  0  0  0  0  0  0  0  0  0  0
   33.1525   21.8476   -4.6827 C   0  0  0  0  0  0  0  0  0  0  0  0
   37.2598   14.2271  -13.8777 O   0  0  0  0  0  0  0  0  0  0  0  0
   36.2470   13.4462  -14.4200 C   0  0  0  0  0  0  0  0  0  0  0  0
   34.9327   13.5151  -13.9928 C   0  0  0  0  0  0  0  0  0  0  0  0
   34.0139   12.6941  -14.5982 C   0  0  0  0  0  0  0  0  0  0  0  0
   34.3490   11.8450  -15.5724 N   0  0  0  0  0  0  0  0  0  0  0  0
   35.6096   11.7426  -16.0204 C   0  0  0  0  0  0  0  0  0  0  0  0
   35.9075   10.8649  -17.0103 N   0  0  0  0  0  0  0  0  0  0  0  0
   37.1639   10.7646  -17.4502 C   0  0  0  0  0  0  0  0  0  0  0  0
   37.4397    9.9413  -18.3775 O   0  0  0  0  0  0  0  0  0  0  0  0
   38.1397   11.5570  -16.8896 C   0  0  0  0  0  0  0  0  0  0  0  0
   37.8192   12.4256  -15.9034 N   0  0  0  0  0  0  0  0  0  0  0  0
   36.5609   12.5572  -15.4305 C   0  0  0  0  0  0  0  0  0  0  0  0
   35.1253   10.2945  -17.3935 H   0  0  0  0  0  0  0  0  0  0  0  0
 28 29  1  0  0  0
 29 30  1  0  0  0
 29 31  1  0  0  0
 29 17  1  0  0  0
 17 18  1  0  0  0
 18 19  2  0  0  0
 19 11  1  0  0  0
 11 12  1  0  0  0
 12 13  2  0  0  0
 12 14  1  0  0  0
 14  1  1  0  0  0
  1  2  2  0  0  0
  2  3  1  0  0  0
  3  4  2  0  0  0
  4 32  1  0  0  0
 32 33  1  0  0  0
 33 34  2  0  0  0
 34 35  1  0  0  0
 35 36  2  0  0  0
 36 37  1  0  0  0
 37 38  1  0  0  0
 38 39  1  0  0  0
 39 40  2  0  0  0
 39 41  1  0  0  0
 41 42  2  0  0  0
 42 43  1  0  0  0
  4  5  1  0  0  0
  5  6  2  0  0  0
  6  7  1  0  0  0
  7  8  2  0  0  0
  8  9  1  0  0  0
  9 10  2  0  0  0
 19 20  1  0  0  0
 20 21  1  0  0  0
 20 22  1  0  0  0
 22 23  2  0  0  0
 23 24  1  0  0  0
 24 25  2  0  0  0
 25 26  1  0  0  0
 26 27  2  0  0  0
 21 17  2  0  0  0
 27 22  1  0  0  0
 10  1  1  0  0  0
 43 33  1  0  0  0
 10  5  1  0  0  0
 43 37  2  0  0  0
 11 15  1  0  0  0
 14 16  1  0  0  0
 38 44  1  0  0  0
M  END
> <minimizedAffinity>
-9.06333

> <CNNscore>
0.0416381210

> <CNNaffinity>
6.5594415665

> <CNN_VS>
0.2731228173

> <CNNaffinity_variance>
0.1644622982

$$$$
[H]c1nc2c(nc([H])c(=O)n2[H])c(Oc2c([H])c([H])c(N([H])C(=O)N([H])c3c([H])c(C(C([H])([H])[H])(C([H])([H])[H])C([H])([H])[H])nn3-c3c([H])c([H])c([H])c([H])c3[H])c3c([H])c([H])c([H])c([H])c23)c1[H]


 44 49  0  0  0  0  0  0  0  0999 V2000
   36.7551   14.6077  -10.5795 C   0  0  0  0  0  0  0  0  0  0  0  0
   36.0189   13.8885  -11.4865 C   0  0  0  0  0  0  0  0  0  0  0  0
   36.4645   13.6576  -12.7938 C   0  0  0  0  0  0  0  0  0  0  0  0
   37.6656   14.1363  -13.2491 C   0  0  0  0  0  0  0  0  0  0  0  0
   38.4122   14.8635  -12.3506 C   0  0  0  0  0  0  0  0  0  0  0  0
   39.6009   15.3922  -12.7684 C   0  0  0  0  0  0  0  0  0  0  0  0
   40.3998   16.1522  -11.9394 C   0  0  0  0  0  0  0  0  0  0  0  0
   39.9878   16.3796  -10.6763 C   0  0  0  0  0  0  0  0  0  0  0  0
   38.7718   15.8626  -10.1936 C   0  0  0  0  0  0  0  0  0  0  0  0
   37.9926   15.1102  -11.0354 C   0  0  0  0  0  0  0  0  0  0  0  0
   35.2152   16.1422   -7.4873 N   0  0  0  0  0  0  0  0  0  0  0  0
   35.5296   15.9621   -8.8786 C   0  0  0  0  0  0  0  0  0  0  0  0
   35.0175   16.7774   -9.6556 O   0  0  0  0  0  0  0  0  0  0  0  0
   36.3882   14.8794   -9.2537 N   0  0  0  0  0  0  0  0  0  0  0  0
   35.6578   15.4405   -6.8171 H   0  0  0  0  0  0  0  0  0  0  0  0
   36.7345   14.2942   -8.4413 H   0  0  0  0  0  0  0  0  0  0  0  0
   33.4911   19.0574   -6.3161 C   0  0  0  0  0  0  0  0  0  0  0  0
   34.6765   18.4529   -6.7213 C   0  0  0  0  0  0  0  0  0  0  0  0
   34.3818   17.1630   -7.0233 C   0  0  0  0  0  0  0  0  0  0  0  0
   33.0388   16.9737   -6.8088 N   0  0  0  0  0  0  0  0  0  0  0  0
   32.5600   18.1062   -6.3967 N   0  0  0  0  0  0  0  0  0  0  0  0
   32.3220   15.7488   -7.0087 C   0  0  0  0  0  0  0  0  0  0  0  0
   31.6361   15.5514   -8.1616 C   0  0  0  0  0  0  0  0  0  0  0  0
   30.9460   14.3743   -8.3657 C   0  0  0  0  0  0  0  0  0  0  0  0
   30.9437   13.3709   -7.3907 C   0  0  0  0  0  0  0  0  0  0  0  0
   31.6391   13.5663   -6.2171 C   0  0  0  0  0  0  0  0  0  0  0  0
   32.3218   14.7557   -6.0390 C   0  0  0  0  0  0  0  0  0  0  0  0
   32.2467   21.1423   -6.6803 C   0  0  0  0  0  0  0  0  0  0  0  0
   33.3527   20.4815   -5.8889 C   0  0  0  0  0  0  0  0  0  0  0  0
   34.6266   21.2589   -6.0575 C   0  0  0  0  0  0  0  0  0  0  0  0
   32.9158   20.5219   -4.4249 C   0  0  0  0  0  0  0  0  0  0  0  0
   38.0515   13.8710  -14.5488 O   0  0  0  0  0  0  0  0  0  0  0  0
   37.4878   12.8836  -15.3470 C   0  0  0  0  0  0  0  0  0  0  0  0
   36.1976   12.4168  -15.1683 C   0  0  0  0  0  0  0  0  0  0  0  0
   35.7438   11.4356  -16.0145 C   0  0  0  0  0  0  0  0  0  0  0  0
   36.5016   10.9284  -16.9897 N   0  0  0  0  0  0  0  0  0  0  0  0
   37.7579   11.3490  -17.2021 C   0  0  0  0  0  0  0  0  0  0  0  0
   38.4944   10.8048  -18.2023 N   0  0  0  0  0  0  0  0  0  0  0  0
   39.7450   11.2245  -18.4074 C   0  0  0  0  0  0  0  0  0  0  0  0
   40.4324   10.7126  -19.3451 O   0  0  0  0  0  0  0  0  0  0  0  0
   40.2678   12.2065  -17.5971 C   0  0  0  0  0  0  0  0  0  0  0  0
   39.5145   12.7350  -16.6056 N   0  0  0  0  0  0  0  0  0  0  0  0
   38.2460   12.3381  -16.3654 C   0  0  0  0  0  0  0  0  0  0  0  0
   38.0420   10.0666  -18.7807 H   0  0  0  0  0  0  0  0  0  0  0  0
 28 29  1  0  0  0
 29 30  1  0  0  0
 29 31  1  0  0  0
 29 17  1  0  0  0
 17 18  1  0  0  0
 18 19  2  0  0  0
 19 11  1  0  0  0
 11 12  1  0  0  0
 12 13  2  0  0  0
 12 14  1  0  0  0
 14  1  1  0  0  0
  1  2  2  0  0  0
  2  3  1  0  0  0
  3  4  2  0  0  0
  4 32  1  0  0  0
 32 33  1  0  0  0
 33 34  2  0  0  0
 34 35  1  0  0  0
 35 36  2  0  0  0
 36 37  1  0  0  0
 37 38  1  0  0  0
 38 39  1  0  0  0
 39 40  2  0  0  0
 39 41  1  0  0  0
 41 42  2  0  0  0
 42 43  1  0  0  0
  4  5  1  0  0  0
  5  6  2  0  0  0
  6  7  1  0  0  0
  7  8  2  0  0  0
  8  9  1  0  0  0
  9 10  2  0  0  0
 19 20  1  0  0  0
 20 21  1  0  0  0
 20 22  1  0  0  0
 22 23  2  0  0  0
 23 24  1  0  0  0
 24 25  2  0  0  0
 25 26  1  0  0  0
 26 27  2  0  0  0
 21 17  2  0  0  0
 27 22  1  0  0  0
 10  1  1  0  0  0
 43 33  1  0  0  0
 10  5  1  0  0  0
 43 37  2  0  0  0
 11 15  1  0  0  0
 14 16  1  0  0  0
 38 44  1  0  0  0
M  END
> <minimizedAffinity>
-9.66211

> <CNNscore>
0.0391299687

> <CNNaffinity>
6.6184897423

> <CNN_VS>
0.2589812875

> <CNNaffinity_variance>
0.1675332487

$$$$
[H]c1nc(N2C([H])([H])C([H])([H])OC([H])([H])C2([H])[H])c([H])c(-c2nc(-c3c([H])c([H])c(N([H])C(=O)c4c([H])c([H])c([H])c([H])c4[H])c([H])c3[H])sc2[H])c1[H]


 33 37  0  0  0  0  0  0  0  0999 V2000
   36.3218   13.0684  -14.4450 C   0  0  0  0  0  0  0  0  0  0  0  0
   37.4843   12.9069  -15.0480 N   0  0  0  0  0  0  0  0  0  0  0  0
   37.5627   12.1710  -16.1127 C   0  0  0  0  0  0  0  0  0  0  0  0
   36.4037   11.5872  -16.5638 C   0  0  0  0  0  0  0  0  0  0  0  0
   35.2659   12.1427  -15.4125 S   0  0  0  0  0  0  0  0  0  0  0  0
   35.6572   15.3378  -10.9088 C   0  0  0  0  0  0  0  0  0  0  0  0
   34.6099   15.0352  -11.7453 C   0  0  0  0  0  0  0  0  0  0  0  0
   34.7764   14.2920  -12.9201 C   0  0  0  0  0  0  0  0  0  0  0  0
   36.0249   13.8627  -13.2274 C   0  0  0  0  0  0  0  0  0  0  0  0
   37.1188   14.1395  -12.4175 C   0  0  0  0  0  0  0  0  0  0  0  0
   36.9318   14.8714  -11.2685 C   0  0  0  0  0  0  0  0  0  0  0  0
   35.3779   14.3833   -8.1962 O   0  0  0  0  0  0  0  0  0  0  0  0
   35.4464   15.6035   -8.4246 C   0  0  0  0  0  0  0  0  0  0  0  0
   35.5774   16.0981   -9.7235 N   0  0  0  0  0  0  0  0  0  0  0  0
   35.6253   17.1621   -9.8297 H   0  0  0  0  0  0  0  0  0  0  0  0
   35.3834   16.5213   -7.2660 C   0  0  0  0  0  0  0  0  0  0  0  0
   35.5220   15.9939   -5.9916 C   0  0  0  0  0  0  0  0  0  0  0  0
   35.4772   16.7948   -4.8988 C   0  0  0  0  0  0  0  0  0  0  0  0
   35.2934   18.1543   -5.0102 C   0  0  0  0  0  0  0  0  0  0  0  0
   35.1568   18.6686   -6.2795 C   0  0  0  0  0  0  0  0  0  0  0  0
   35.2013   17.8606   -7.3984 C   0  0  0  0  0  0  0  0  0  0  0  0
   38.8579   11.9623  -16.8246 C   0  0  0  0  0  0  0  0  0  0  0  0
   38.9037   11.4756  -18.1155 C   0  0  0  0  0  0  0  0  0  0  0  0
   40.1065   11.2882  -18.7603 C   0  0  0  0  0  0  0  0  0  0  0  0
   41.2463   11.5850  -18.1188 N   0  0  0  0  0  0  0  0  0  0  0  0
   41.2715   12.0627  -16.8602 C   0  0  0  0  0  0  0  0  0  0  0  0
   40.0645   12.2462  -16.2254 C   0  0  0  0  0  0  0  0  0  0  0  0
   42.5005   12.3776  -16.2046 N   0  0  0  0  0  0  0  0  0  0  0  0
   43.7952   11.9151  -16.6274 C   0  0  0  0  0  0  0  0  0  0  0  0
   44.8626   12.9885  -16.5740 C   0  0  0  0  0  0  0  0  0  0  0  0
   44.3545   14.1652  -15.9940 O   0  0  0  0  0  0  0  0  0  0  0  0
   43.7265   13.8877  -14.7989 C   0  0  0  0  0  0  0  0  0  0  0  0
   42.4013   13.2122  -15.0277 C   0  0  0  0  0  0  0  0  0  0  0  0
 12 13  2  0  0  0
 13 14  1  0  0  0
 14  6  1  0  0  0
  6  7  2  0  0  0
  7  8  1  0  0  0
  8  9  2  0  0  0
  9 10  1  0  0  0
 10 11  2  0  0  0
  9  1  1  0  0  0
  1  2  2  0  0  0
  2  3  1  0  0  0
  3  4  2  0  0  0
  4  5  1  0  0  0
  3 22  1  0  0  0
 22 23  2  0  0  0
 23 24  1  0  0  0
 24 25  2  0  0  0
 25 26  1  0  0  0
 26 27  2  0  0  0
 26 28  1  0  0  0
 28 29  1  0  0  0
 29 30  1  0  0  0
 30 31  1  0  0  0
 31 32  1  0  0  0
 32 33  1  0  0  0
 13 16  1  0  0  0
 16 17  2  0  0  0
 17 18  1  0  0  0
 18 19  2  0  0  0
 19 20  1  0  0  0
 20 21  2  0  0  0
 11  6  1  0  0  0
  5  1  1  0  0  0
 27 22  1  0  0  0
 33 28  1  0  0  0
 21 16  1  0  0  0
 14 15  1  0  0  0
M  END
> <minimizedAffinity>
-8.41298

> <CNNscore>
0.5664381981

> <CNNaffinity>
6.8929567337

> <CNN_VS>
3.9044339657

> <CNNaffinity_variance>
0.2671114802

$$$$
[H]c1nc(N2C([H])([H])C([H])([H])OC([H])([H])C2([H])[H])c([H])c(-c2nc(-c3c([H])c([H])c(N([H])C(=O)c4c([H])c([H])c([H])c([H])c4[H])c([H])c3[H])sc2[H])c1[H]


 33 37  0  0  0  0  0  0  0  0999 V2000
   40.7284   12.2902  -16.5068 C   0  0  0  0  0  0  0  0  0  0  0  0
   39.4687   12.2450  -16.1169 N   0  0  0  0  0  0  0  0  0  0  0  0
   38.5718   11.7174  -16.8905 C   0  0  0  0  0  0  0  0  0  0  0  0
   38.9935   11.2233  -18.1011 C   0  0  0  0  0  0  0  0  0  0  0  0
   40.6714   11.5549  -18.0443 S   0  0  0  0  0  0  0  0  0  0  0  0
   43.9478   13.9481  -14.2744 C   0  0  0  0  0  0  0  0  0  0  0  0
   44.1895   13.2953  -15.4591 C   0  0  0  0  0  0  0  0  0  0  0  0
   43.1654   12.7327  -16.2302 C   0  0  0  0  0  0  0  0  0  0  0  0
   41.8935   12.8465  -15.7754 C   0  0  0  0  0  0  0  0  0  0  0  0
   41.5925   13.4962  -14.5852 C   0  0  0  0  0  0  0  0  0  0  0  0
   42.6145   14.0411  -13.8440 C   0  0  0  0  0  0  0  0  0  0  0  0
   45.3333   16.4622  -14.6014 O   0  0  0  0  0  0  0  0  0  0  0  0
   45.5708   15.7422  -13.6160 C   0  0  0  0  0  0  0  0  0  0  0  0
   44.9222   14.5200  -13.4301 N   0  0  0  0  0  0  0  0  0  0  0  0
   45.1896   13.9624  -12.5565 H   0  0  0  0  0  0  0  0  0  0  0  0
   46.5713   16.2264  -12.6397 C   0  0  0  0  0  0  0  0  0  0  0  0
   46.2488   17.3115  -11.8397 C   0  0  0  0  0  0  0  0  0  0  0  0
   47.1298   17.7884  -10.9264 C   0  0  0  0  0  0  0  0  0  0  0  0
   48.3711   17.2182  -10.7580 C   0  0  0  0  0  0  0  0  0  0  0  0
   48.6822   16.1414  -11.5569 C   0  0  0  0  0  0  0  0  0  0  0  0
   47.7913   15.6487  -12.4898 C   0  0  0  0  0  0  0  0  0  0  0  0
   37.1363   11.6468  -16.4877 C   0  0  0  0  0  0  0  0  0  0  0  0
   36.2001   10.9877  -17.2587 C   0  0  0  0  0  0  0  0  0  0  0  0
   34.8786   10.9304  -16.8744 C   0  0  0  0  0  0  0  0  0  0  0  0
   34.5024   11.5259  -15.7331 N   0  0  0  0  0  0  0  0  0  0  0  0
   35.3645   12.1846  -14.9358 C   0  0  0  0  0  0  0  0  0  0  0  0
   36.6821   12.2357  -15.3290 C   0  0  0  0  0  0  0  0  0  0  0  0
   34.9368   12.8028  -13.7215 N   0  0  0  0  0  0  0  0  0  0  0  0
   35.6784   12.7850  -12.4892 C   0  0  0  0  0  0  0  0  0  0  0  0
   35.6917   14.1223  -11.7778 C   0  0  0  0  0  0  0  0  0  0  0  0
   34.8569   15.0432  -12.4366 O   0  0  0  0  0  0  0  0  0  0  0  0
   33.6109   14.4983  -12.6602 C   0  0  0  0  0  0  0  0  0  0  0  0
   33.6573   13.4754  -13.7631 C   0  0  0  0  0  0  0  0  0  0  0  0
 12 13  2  0  0  0
 13 14  1  0  0  0
 14  6  1  0  0  0
  6  7  2  0  0  0
  7  8  1  0  0  0
  8  9  2  0  0  0
  9 10  1  0  0  0
 10 11  2  0  0  0
  9  1  1  0  0  0
  1  2  2  0  0  0
  2  3  1  0  0  0
  3  4  2  0  0  0
  4  5  1  0  0  0
  3 22  1  0  0  0
 22 23  2  0  0  0
 23 24  1  0  0  0
 24 25  2  0  0  0
 25 26  1  0  0  0
 26 27  2  0  0  0
 26 28  1  0  0  0
 28 29  1  0  0  0
 29 30  1  0  0  0
 30 31  1  0  0  0
 31 32  1  0  0  0
 32 33  1  0  0  0
 13 16  1  0  0  0
 16 17  2  0  0  0
 17 18  1  0  0  0
 18 19  2  0  0  0
 19 20  1  0  0  0
 20 21  2  0  0  0
 11  6  1  0  0  0
  5  1  1  0  0  0
 27 22  1  0  0  0
 33 28  1  0  0  0
 21 16  1  0  0  0
 14 15  1  0  0  0
M  END
> <minimizedAffinity>
-9.30264

> <CNNscore>
0.4764004052

> <CNNaffinity>
6.8416113853

> <CNN_VS>
3.2593464851

> <CNNaffinity_variance>
0.1334095895

$$$$
[H]c1nc(N2C([H])([H])C([H])([H])OC([H])([H])C2([H])[H])c([H])c(-c2nc(-c3c([H])c([H])c(N([H])C(=O)c4c([H])c([H])c([H])c([H])c4[H])c([H])c3[H])sc2[H])c1[H]


 33 37  0  0  0  0  0  0  0  0999 V2000
   37.5071   13.9223  -13.0904 C   0  0  0  0  0  0  0  0  0  0  0  0
   38.5365   13.7273  -13.8924 N   0  0  0  0  0  0  0  0  0  0  0  0
   38.4833   12.8008  -14.7979 C   0  0  0  0  0  0  0  0  0  0  0  0
   37.3307   12.0567  -14.8731 C   0  0  0  0  0  0  0  0  0  0  0  0
   36.3904   12.7481  -13.6217 S   0  0  0  0  0  0  0  0  0  0  0  0
   36.9354   16.8103  -10.0197 C   0  0  0  0  0  0  0  0  0  0  0  0
   38.1556   16.1985  -10.1774 C   0  0  0  0  0  0  0  0  0  0  0  0
   38.3944   15.2423  -11.1717 C   0  0  0  0  0  0  0  0  0  0  0  0
   37.3716   14.9209  -12.0012 C   0  0  0  0  0  0  0  0  0  0  0  0
   36.1183   15.5086  -11.8869 C   0  0  0  0  0  0  0  0  0  0  0  0
   35.9065   16.4453  -10.9027 C   0  0  0  0  0  0  0  0  0  0  0  0
   38.1829   19.3701   -9.5315 O   0  0  0  0  0  0  0  0  0  0  0  0
   37.2304   18.9953   -8.8258 C   0  0  0  0  0  0  0  0  0  0  0  0
   36.6079   17.7629   -9.0324 N   0  0  0  0  0  0  0  0  0  0  0  0
   35.7982   17.5180   -8.3767 H   0  0  0  0  0  0  0  0  0  0  0  0
   36.7749   19.9048   -7.7516 C   0  0  0  0  0  0  0  0  0  0  0  0
   36.7303   21.2665   -8.0075 C   0  0  0  0  0  0  0  0  0  0  0  0
   36.3147   22.1394   -7.0574 C   0  0  0  0  0  0  0  0  0  0  0  0
   35.9231   21.7117   -5.8091 C   0  0  0  0  0  0  0  0  0  0  0  0
   35.9709   20.3581   -5.5645 C   0  0  0  0  0  0  0  0  0  0  0  0
   36.3927   19.4614   -6.5261 C   0  0  0  0  0  0  0  0  0  0  0  0
   39.6255   12.5474  -15.7247 C   0  0  0  0  0  0  0  0  0  0  0  0
   39.4394   11.9540  -16.9570 C   0  0  0  0  0  0  0  0  0  0  0  0
   40.5030   11.7265  -17.8022 C   0  0  0  0  0  0  0  0  0  0  0  0
   41.7351   12.0892  -17.4162 N   0  0  0  0  0  0  0  0  0  0  0  0
   41.9851   12.6718  -16.2284 C   0  0  0  0  0  0  0  0  0  0  0  0
   40.9155   12.8945  -15.3918 C   0  0  0  0  0  0  0  0  0  0  0  0
   43.3069   13.0548  -15.8470 N   0  0  0  0  0  0  0  0  0  0  0  0
   43.6334   13.7927  -14.6562 C   0  0  0  0  0  0  0  0  0  0  0  0
   44.8547   13.2594  -13.9361 C   0  0  0  0  0  0  0  0  0  0  0  0
   45.4628   12.2339  -14.6828 O   0  0  0  0  0  0  0  0  0  0  0  0
   45.6656   12.6344  -15.9858 C   0  0  0  0  0  0  0  0  0  0  0  0
   44.3693   12.6696  -16.7494 C   0  0  0  0  0  0  0  0  0  0  0  0
 12 13  2  0  0  0
 13 14  1  0  0  0
 14  6  1  0  0  0
  6  7  2  0  0  0
  7  8  1  0  0  0
  8  9  2  0  0  0
  9 10  1  0  0  0
 10 11  2  0  0  0
  9  1  1  0  0  0
  1  2  2  0  0  0
  2  3  1  0  0  0
  3  4  2  0  0  0
  4  5  1  0  0  0
  3 22  1  0  0  0
 22 23  2  0  0  0
 23 24  1  0  0  0
 24 25  2  0  0  0
 25 26  1  0  0  0
 26 27  2  0  0  0
 26 28  1  0  0  0
 28 29  1  0  0  0
 29 30  1  0  0  0
 30 31  1  0  0  0
 31 32  1  0  0  0
 32 33  1  0  0  0
 13 16  1  0  0  0
 16 17  2  0  0  0
 17 18  1  0  0  0
 18 19  2  0  0  0
 19 20  1  0  0  0
 20 21  2  0  0  0
 11  6  1  0  0  0
  5  1  1  0  0  0
 27 22  1  0  0  0
 33 28  1  0  0  0
 21 16  1  0  0  0
 14 15  1  0  0  0
M  END
> <minimizedAffinity>
-8.62675

> <CNNscore>
0.2222489864

> <CNNaffinity>
6.1578683853

> <CNN_VS>
1.3685799837

> <CNNaffinity_variance>
0.0949865729

$$$$
[H]c1nc(N2C([H])([H])C([H])([H])OC([H])([H])C2([H])[H])c([H])c(-c2nc(-c3c([H])c([H])c(N([H])C(=O)c4c([H])c([H])c([H])c([H])c4[H])c([H])c3[H])sc2[H])c1[H]


 33 37  0  0  0  0  0  0  0  0999 V2000
   39.0859   12.6427  -15.8235 C   0  0  0  0  0  0  0  0  0  0  0  0
   40.3589   12.9027  -15.5933 N   0  0  0  0  0  0  0  0  0  0  0  0
   41.2676   12.4394  -16.3938 C   0  0  0  0  0  0  0  0  0  0  0  0
   40.8440   11.6861  -17.4619 C   0  0  0  0  0  0  0  0  0  0  0  0
   39.1471   11.6952  -17.2400 S   0  0  0  0  0  0  0  0  0  0  0  0
   35.6099   13.7286  -13.6247 C   0  0  0  0  0  0  0  0  0  0  0  0
   36.7342   14.5172  -13.5780 C   0  0  0  0  0  0  0  0  0  0  0  0
   37.9025   14.2036  -14.2827 C   0  0  0  0  0  0  0  0  0  0  0  0
   37.9061   13.0758  -15.0347 C   0  0  0  0  0  0  0  0  0  0  0  0
   36.7976   12.2430  -15.1183 C   0  0  0  0  0  0  0  0  0  0  0  0
   35.6609   12.5707  -14.4173 C   0  0  0  0  0  0  0  0  0  0  0  0
   35.0354   15.8113  -11.7065 O   0  0  0  0  0  0  0  0  0  0  0  0
   34.1595   14.9824  -12.0089 C   0  0  0  0  0  0  0  0  0  0  0  0
   34.4054   13.9614  -12.9288 N   0  0  0  0  0  0  0  0  0  0  0  0
   33.5965   13.2894  -13.1280 H   0  0  0  0  0  0  0  0  0  0  0  0
   32.8382   15.1140  -11.3568 C   0  0  0  0  0  0  0  0  0  0  0  0
   31.7473   14.4796  -11.9304 C   0  0  0  0  0  0  0  0  0  0  0  0
   30.5172   14.5658  -11.3672 C   0  0  0  0  0  0  0  0  0  0  0  0
   30.3037   15.2818  -10.2113 C   0  0  0  0  0  0  0  0  0  0  0  0
   31.3928   15.9081   -9.6491 C   0  0  0  0  0  0  0  0  0  0  0  0
   32.6494   15.8258  -10.2156 C   0  0  0  0  0  0  0  0  0  0  0  0
   42.7182   12.7099  -16.1693 C   0  0  0  0  0  0  0  0  0  0  0  0
   43.6982   11.9820  -16.8136 C   0  0  0  0  0  0  0  0  0  0  0  0
   45.0332   12.2429  -16.5969 C   0  0  0  0  0  0  0  0  0  0  0  0
   45.3795   13.2201  -15.7460 N   0  0  0  0  0  0  0  0  0  0  0  0
   44.4742   13.9667  -15.0858 C   0  0  0  0  0  0  0  0  0  0  0  0
   43.1434   13.6978  -15.3097 C   0  0  0  0  0  0  0  0  0  0  0  0
   44.8721   15.0064  -14.1913 N   0  0  0  0  0  0  0  0  0  0  0  0
   46.0974   15.7524  -14.2972 C   0  0  0  0  0  0  0  0  0  0  0  0
   45.9178   17.2377  -14.0602 C   0  0  0  0  0  0  0  0  0  0  0  0
   44.5988   17.5207  -13.6613 O   0  0  0  0  0  0  0  0  0  0  0  0
   44.2172   16.6998  -12.6219 C   0  0  0  0  0  0  0  0  0  0  0  0
   43.9629   15.2974  -13.1049 C   0  0  0  0  0  0  0  0  0  0  0  0
 12 13  2  0  0  0
 13 14  1  0  0  0
 14  6  1  0  0  0
  6  7  2  0  0  0
  7  8  1  0  0  0
  8  9  2  0  0  0
  9 10  1  0  0  0
 10 11  2  0  0  0
  9  1  1  0  0  0
  1  2  2  0  0  0
  2  3  1  0  0  0
  3  4  2  0  0  0
  4  5  1  0  0  0
  3 22  1  0  0  0
 22 23  2  0  0  0
 23 24  1  0  0  0
 24 25  2  0  0  0
 25 26  1  0  0  0
 26 27  2  0  0  0
 26 28  1  0  0  0
 28 29  1  0  0  0
 29 30  1  0  0  0
 30 31  1  0  0  0
 31 32  1  0  0  0
 32 33  1  0  0  0
 13 16  1  0  0  0
 16 17  2  0  0  0
 17 18  1  0  0  0
 18 19  2  0  0  0
 19 20  1  0  0  0
 20 21  2  0  0  0
 11  6  1  0  0  0
  5  1  1  0  0  0
 27 22  1  0  0  0
 33 28  1  0  0  0
 21 16  1  0  0  0
 14 15  1  0  0  0
M  END
> <minimizedAffinity>
-8.68471

> <CNNscore>
0.1995974630

> <CNNaffinity>
6.2646813393

> <CNN_VS>
1.2504144907

> <CNNaffinity_variance>
0.0706967041

$$$$
[H]c1nc(N2C([H])([H])C([H])([H])OC([H])([H])C2([H])[H])c([H])c(-c2nc(-c3c([H])c([H])c(N([H])C(=O)c4c([H])c([H])c([H])c([H])c4[H])c([H])c3[H])sc2[H])c1[H]


 33 37  0  0  0  0  0  0  0  0999 V2000
   42.3016   13.7186  -14.2071 C   0  0  0  0  0  0  0  0  0  0  0  0
   41.0195   13.4637  -14.3867 N   0  0  0  0  0  0  0  0  0  0  0  0
   40.6208   12.8987  -15.4834 C   0  0  0  0  0  0  0  0  0  0  0  0
   41.5784   12.5897  -16.4191 C   0  0  0  0  0  0  0  0  0  0  0  0
   43.0043   13.1393  -15.6488 S   0  0  0  0  0  0  0  0  0  0  0  0
   44.0812   15.7009  -10.8905 C   0  0  0  0  0  0  0  0  0  0  0  0
   44.3464   14.3739  -11.1288 C   0  0  0  0  0  0  0  0  0  0  0  0
   43.7861   13.6767  -12.2058 C   0  0  0  0  0  0  0  0  0  0  0  0
   42.9533   14.3527  -13.0346 C   0  0  0  0  0  0  0  0  0  0  0  0
   42.6512   15.6945  -12.8408 C   0  0  0  0  0  0  0  0  0  0  0  0
   43.2129   16.3592  -11.7761 C   0  0  0  0  0  0  0  0  0  0  0  0
   42.7725   16.3549   -8.3991 O   0  0  0  0  0  0  0  0  0  0  0  0
   43.9258   16.7613   -8.6238 C   0  0  0  0  0  0  0  0  0  0  0  0
   44.5851   16.4668   -9.8186 N   0  0  0  0  0  0  0  0  0  0  0  0
   45.5743   16.8598   -9.9308 H   0  0  0  0  0  0  0  0  0  0  0  0
   44.5816   17.5737   -7.5757 C   0  0  0  0  0  0  0  0  0  0  0  0
   44.0172   17.6074   -6.3100 C   0  0  0  0  0  0  0  0  0  0  0  0
   44.5841   18.3326   -5.3149 C   0  0  0  0  0  0  0  0  0  0  0  0
   45.7347   19.0595   -5.5199 C   0  0  0  0  0  0  0  0  0  0  0  0
   46.2876   19.0199   -6.7797 C   0  0  0  0  0  0  0  0  0  0  0  0
   45.7174   18.2840   -7.7995 C   0  0  0  0  0  0  0  0  0  0  0  0
   39.1801   12.5935  -15.7262 C   0  0  0  0  0  0  0  0  0  0  0  0
   38.7874   11.6316  -16.6351 C   0  0  0  0  0  0  0  0  0  0  0  0
   37.4539   11.3603  -16.8487 C   0  0  0  0  0  0  0  0  0  0  0  0
   36.5283   12.0445  -16.1603 N   0  0  0  0  0  0  0  0  0  0  0  0
   36.8436   12.9947  -15.2601 C   0  0  0  0  0  0  0  0  0  0  0  0
   38.1786   13.2577  -15.0544 C   0  0  0  0  0  0  0  0  0  0  0  0
   35.8365   13.7020  -14.5356 N   0  0  0  0  0  0  0  0  0  0  0  0
   34.4220   13.5708  -14.7614 C   0  0  0  0  0  0  0  0  0  0  0  0
   33.6150   13.4931  -13.4818 C   0  0  0  0  0  0  0  0  0  0  0  0
   34.4403   13.6991  -12.3613 O   0  0  0  0  0  0  0  0  0  0  0  0
   35.2012   14.8374  -12.5191 C   0  0  0  0  0  0  0  0  0  0  0  0
   36.3048   14.6168  -13.5181 C   0  0  0  0  0  0  0  0  0  0  0  0
 12 13  2  0  0  0
 13 14  1  0  0  0
 14  6  1  0  0  0
  6  7  2  0  0  0
  7  8  1  0  0  0
  8  9  2  0  0  0
  9 10  1  0  0  0
 10 11  2  0  0  0
  9  1  1  0  0  0
  1  2  2  0  0  0
  2  3  1  0  0  0
  3  4  2  0  0  0
  4  5  1  0  0  0
  3 22  1  0  0  0
 22 23  2  0  0  0
 23 24  1  0  0  0
 24 25  2  0  0  0
 25 26  1  0  0  0
 26 27  2  0  0  0
 26 28  1  0  0  0
 28 29  1  0  0  0
 29 30  1  0  0  0
 30 31  1  0  0  0
 31 32  1  0  0  0
 32 33  1  0  0  0
 13 16  1  0  0  0
 16 17  2  0  0  0
 17 18  1  0  0  0
 18 19  2  0  0  0
 19 20  1  0  0  0
 20 21  2  0  0  0
 11  6  1  0  0  0
  5  1  1  0  0  0
 27 22  1  0  0  0
 33 28  1  0  0  0
 21 16  1  0  0  0
 14 15  1  0  0  0
M  END
> <minimizedAffinity>
-7.56519

> <CNNscore>
0.1867508292

> <CNNaffinity>
6.0754423141

> <CNN_VS>
1.1345938444

> <CNNaffinity_variance>
0.1903869510

$$$$
[H]c1nc(N2C([H])([H])C([H])([H])OC([H])([H])C2([H])[H])c([H])c(-c2nc(-c3c([H])c([H])c(N([H])C(=O)c4c([H])c([H])c([H])c([H])c4[H])c([H])c3[H])sc2[H])c1[H]


 33 37  0  0  0  0  0  0  0  0999 V2000
   39.7486   12.8603  -15.3664 C   0  0  0  0  0  0  0  0  0  0  0  0
   38.6505   13.2443  -14.7437 N   0  0  0  0  0  0  0  0  0  0  0  0
   37.4949   12.8217  -15.1527 C   0  0  0  0  0  0  0  0  0  0  0  0
   37.4784   11.9780  -16.2370 C   0  0  0  0  0  0  0  0  0  0  0  0
   39.1459   11.8480  -16.5992 S   0  0  0  0  0  0  0  0  0  0  0  0
   43.7130   13.9855  -14.3110 C   0  0  0  0  0  0  0  0  0  0  0  0
   43.4648   13.3659  -15.5120 C   0  0  0  0  0  0  0  0  0  0  0  0
   42.1790   12.9760  -15.9054 C   0  0  0  0  0  0  0  0  0  0  0  0
   41.1524   13.2280  -15.0569 C   0  0  0  0  0  0  0  0  0  0  0  0
   41.3465   13.8519  -13.8312 C   0  0  0  0  0  0  0  0  0  0  0  0
   42.6181   14.2259  -13.4653 C   0  0  0  0  0  0  0  0  0  0  0  0
   44.6613   16.6706  -13.8225 O   0  0  0  0  0  0  0  0  0  0  0  0
   45.4028   15.6971  -13.6028 C   0  0  0  0  0  0  0  0  0  0  0  0
   44.9773   14.3874  -13.8320 N   0  0  0  0  0  0  0  0  0  0  0  0
   45.6812   13.6096  -13.6195 H   0  0  0  0  0  0  0  0  0  0  0  0
   46.7615   15.9742  -13.0872 C   0  0  0  0  0  0  0  0  0  0  0  0
   47.8493   15.7145  -13.9062 C   0  0  0  0  0  0  0  0  0  0  0  0
   49.1135   15.9571  -13.4811 C   0  0  0  0  0  0  0  0  0  0  0  0
   49.3657   16.4675  -12.2280 C   0  0  0  0  0  0  0  0  0  0  0  0
   48.2793   16.7221  -11.4222 C   0  0  0  0  0  0  0  0  0  0  0  0
   46.9881   16.4782  -11.8466 C   0  0  0  0  0  0  0  0  0  0  0  0
   36.2289   13.2321  -14.4769 C   0  0  0  0  0  0  0  0  0  0  0  0
   35.0076   12.7066  -14.8477 C   0  0  0  0  0  0  0  0  0  0  0  0
   33.8472   13.0945  -14.2149 C   0  0  0  0  0  0  0  0  0  0  0  0
   33.9118   13.9965  -13.2245 N   0  0  0  0  0  0  0  0  0  0  0  0
   35.0699   14.5475  -12.8145 C   0  0  0  0  0  0  0  0  0  0  0  0
   36.2230   14.1529  -13.4534 C   0  0  0  0  0  0  0  0  0  0  0  0
   35.1095   15.5003  -11.7515 N   0  0  0  0  0  0  0  0  0  0  0  0
   34.0674   15.6824  -10.7769 C   0  0  0  0  0  0  0  0  0  0  0  0
   34.5895   15.8541   -9.3654 C   0  0  0  0  0  0  0  0  0  0  0  0
   35.9945   15.9232   -9.3609 O   0  0  0  0  0  0  0  0  0  0  0  0
   36.4398   16.8498  -10.2789 C   0  0  0  0  0  0  0  0  0  0  0  0
   36.2888   16.3347  -11.6849 C   0  0  0  0  0  0  0  0  0  0  0  0
 12 13  2  0  0  0
 13 14  1  0  0  0
 14  6  1  0  0  0
  6  7  2  0  0  0
  7  8  1  0  0  0
  8  9  2  0  0  0
  9 10  1  0  0  0
 10 11  2  0  0  0
  9  1  1  0  0  0
  1  2  2  0  0  0
  2  3  1  0  0  0
  3  4  2  0  0  0
  4  5  1  0  0  0
  3 22  1  0  0  0
 22 23  2  0  0  0
 23 24  1  0  0  0
 24 25  2  0  0  0
 25 26  1  0  0  0
 26 27  2  0  0  0
 26 28  1  0  0  0
 28 29  1  0  0  0
 29 30  1  0  0  0
 30 31  1  0  0  0
 31 32  1  0  0  0
 32 33  1  0  0  0
 13 16  1  0  0  0
 16 17  2  0  0  0
 17 18  1  0  0  0
 18 19  2  0  0  0
 19 20  1  0  0  0
 20 21  2  0  0  0
 11  6  1  0  0  0
  5  1  1  0  0  0
 27 22  1  0  0  0
 33 28  1  0  0  0
 21 16  1  0  0  0
 14 15  1  0  0  0
M  END
> <minimizedAffinity>
-7.94664

> <CNNscore>
0.1758244485

> <CNNaffinity>
6.0167350769

> <CNN_VS>
1.0578891039

> <CNNaffinity_variance>
0.1329730153

$$$$
[H]c1nc(N2C([H])([H])C([H])([H])OC([H])([H])C2([H])[H])c([H])c(-c2nc(-c3c([H])c([H])c(N([H])C(=O)c4c([H])c([H])c([H])c([H])c4[H])c([H])c3[H])sc2[H])c1[H]


 33 37  0  0  0  0  0  0  0  0999 V2000
   38.3516   12.5680  -15.6123 C   0  0  0  0  0  0  0  0  0  0  0  0
   37.4904   13.1582  -14.8053 N   0  0  0  0  0  0  0  0  0  0  0  0
   36.2308   12.8590  -14.8748 C   0  0  0  0  0  0  0  0  0  0  0  0
   35.8545   11.9221  -15.8067 C   0  0  0  0  0  0  0  0  0  0  0  0
   37.3559   11.5303  -16.5286 S   0  0  0  0  0  0  0  0  0  0  0  0
   42.5511   13.2440  -15.6692 C   0  0  0  0  0  0  0  0  0  0  0  0
   41.9509   12.5258  -16.6752 C   0  0  0  0  0  0  0  0  0  0  0  0
   40.5736   12.2760  -16.7023 C   0  0  0  0  0  0  0  0  0  0  0  0
   39.8196   12.7695  -15.6897 C   0  0  0  0  0  0  0  0  0  0  0  0
   40.3741   13.5023  -14.6482 C   0  0  0  0  0  0  0  0  0  0  0  0
   41.7293   13.7352  -14.6422 C   0  0  0  0  0  0  0  0  0  0  0  0
   44.2141   13.0766  -13.3126 O   0  0  0  0  0  0  0  0  0  0  0  0
   44.7061   13.4238  -14.4003 C   0  0  0  0  0  0  0  0  0  0  0  0
   43.9300   13.5189  -15.5568 N   0  0  0  0  0  0  0  0  0  0  0  0
   44.4335   13.8288  -16.4490 H   0  0  0  0  0  0  0  0  0  0  0  0
   46.1519   13.7359  -14.4291 C   0  0  0  0  0  0  0  0  0  0  0  0
   46.6582   14.6286  -13.4973 C   0  0  0  0  0  0  0  0  0  0  0  0
   47.9769   14.9422  -13.4797 C   0  0  0  0  0  0  0  0  0  0  0  0
   48.8598   14.3906  -14.3801 C   0  0  0  0  0  0  0  0  0  0  0  0
   48.3478   13.5054  -15.3013 C   0  0  0  0  0  0  0  0  0  0  0  0
   47.0061   13.1799  -15.3268 C   0  0  0  0  0  0  0  0  0  0  0  0
   35.2241   13.5034  -13.9808 C   0  0  0  0  0  0  0  0  0  0  0  0
   33.8713   13.2731  -14.1301 C   0  0  0  0  0  0  0  0  0  0  0  0
   32.9536   13.8746  -13.2974 C   0  0  0  0  0  0  0  0  0  0  0  0
   33.3873   14.6951  -12.3292 N   0  0  0  0  0  0  0  0  0  0  0  0
   34.6918   14.9621  -12.1299 C   0  0  0  0  0  0  0  0  0  0  0  0
   35.6001   14.3560  -12.9673 C   0  0  0  0  0  0  0  0  0  0  0  0
   35.1254   15.8341  -11.0854 N   0  0  0  0  0  0  0  0  0  0  0  0
   34.4698   15.9758   -9.8130 C   0  0  0  0  0  0  0  0  0  0  0  0
   35.4326   16.0299   -8.6448 C   0  0  0  0  0  0  0  0  0  0  0  0
   36.7635   16.0576   -9.0996 O   0  0  0  0  0  0  0  0  0  0  0  0
   36.9312   17.0346  -10.0571 C   0  0  0  0  0  0  0  0  0  0  0  0
   36.3028   16.6270  -11.3624 C   0  0  0  0  0  0  0  0  0  0  0  0
 12 13  2  0  0  0
 13 14  1  0  0  0
 14  6  1  0  0  0
  6  7  2  0  0  0
  7  8  1  0  0  0
  8  9  2  0  0  0
  9 10  1  0  0  0
 10 11  2  0  0  0
  9  1  1  0  0  0
  1  2  2  0  0  0
  2  3  1  0  0  0
  3  4  2  0  0  0
  4  5  1  0  0  0
  3 22  1  0  0  0
 22 23  2  0  0  0
 23 24  1  0  0  0
 24 25  2  0  0  0
 25 26  1  0  0  0
 26 27  2  0  0  0
 26 28  1  0  0  0
 28 29  1  0  0  0
 29 30  1  0  0  0
 30 31  1  0  0  0
 31 32  1  0  0  0
 32 33  1  0  0  0
 13 16  1  0  0  0
 16 17  2  0  0  0
 17 18  1  0  0  0
 18 19  2  0  0  0
 19 20  1  0  0  0
 20 21  2  0  0  0
 11  6  1  0  0  0
  5  1  1  0  0  0
 27 22  1  0  0  0
 33 28  1  0  0  0
 21 16  1  0  0  0
 14 15  1  0  0  0
M  END
> <minimizedAffinity>
-8.39292

> <CNNscore>
0.1639552712

> <CNNaffinity>
6.1225919724

> <CNN_VS>
1.0038312674

> <CNNaffinity_variance>
0.1694005877

$$$$
[H]c1nc(N2C([H])([H])C([H])([H])OC([H])([H])C2([H])[H])c([H])c(-c2nc(-c3c([H])c([H])c(N([H])C(=O)c4c([H])c([H])c([H])c([H])c4[H])c([H])c3[H])sc2[H])c1[H]


 33 37  0  0  0  0  0  0  0  0999 V2000
   34.9983   13.5360  -13.5282 C   0  0  0  0  0  0  0  0  0  0  0  0
   36.1656   13.2825  -14.0886 N   0  0  0  0  0  0  0  0  0  0  0  0
   36.2249   12.5389  -15.1492 C   0  0  0  0  0  0  0  0  0  0  0  0
   35.0410   12.0453  -15.6415 C   0  0  0  0  0  0  0  0  0  0  0  0
   33.9092   12.6916  -14.5325 S   0  0  0  0  0  0  0  0  0  0  0  0
   34.3781   15.8435  -10.0087 C   0  0  0  0  0  0  0  0  0  0  0  0
   33.3870   15.7427  -10.9550 C   0  0  0  0  0  0  0  0  0  0  0  0
   33.5417   14.9963  -12.1293 C   0  0  0  0  0  0  0  0  0  0  0  0
   34.7204   14.3554  -12.3227 C   0  0  0  0  0  0  0  0  0  0  0  0
   35.7554   14.4228  -11.3990 C   0  0  0  0  0  0  0  0  0  0  0  0
   35.5813   15.1620  -10.2526 C   0  0  0  0  0  0  0  0  0  0  0  0
   36.4192   17.5206   -8.8388 O   0  0  0  0  0  0  0  0  0  0  0  0
   35.3164   17.3966   -8.2783 C   0  0  0  0  0  0  0  0  0  0  0  0
   34.3102   16.5912   -8.8145 N   0  0  0  0  0  0  0  0  0  0  0  0
   33.3932   16.5384   -8.2649 H   0  0  0  0  0  0  0  0  0  0  0  0
   35.1040   18.1359   -7.0147 C   0  0  0  0  0  0  0  0  0  0  0  0
   36.0937   19.0017   -6.5762 C   0  0  0  0  0  0  0  0  0  0  0  0
   35.9431   19.7057   -5.4276 C   0  0  0  0  0  0  0  0  0  0  0  0
   34.8093   19.5897   -4.6560 C   0  0  0  0  0  0  0  0  0  0  0  0
   33.8322   18.7276   -5.0994 C   0  0  0  0  0  0  0  0  0  0  0  0
   33.9767   18.0065   -6.2681 C   0  0  0  0  0  0  0  0  0  0  0  0
   37.5247   12.2277  -15.8135 C   0  0  0  0  0  0  0  0  0  0  0  0
   37.6073   11.3249  -16.8545 C   0  0  0  0  0  0  0  0  0  0  0  0
   38.8139   11.0476  -17.4584 C   0  0  0  0  0  0  0  0  0  0  0  0
   39.9211   11.6672  -17.0239 N   0  0  0  0  0  0  0  0  0  0  0  0
   39.9097   12.5576  -16.0140 C   0  0  0  0  0  0  0  0  0  0  0  0
   38.6992   12.8273  -15.4178 C   0  0  0  0  0  0  0  0  0  0  0  0
   41.1036   13.2082  -15.5774 N   0  0  0  0  0  0  0  0  0  0  0  0
   41.1667   14.1742  -14.5135 C   0  0  0  0  0  0  0  0  0  0  0  0
   42.3499   13.9724  -13.5895 C   0  0  0  0  0  0  0  0  0  0  0  0
   43.1887   12.9517  -14.0729 O   0  0  0  0  0  0  0  0  0  0  0  0
   43.4964   13.1614  -15.3999 C   0  0  0  0  0  0  0  0  0  0  0  0
   42.3164   12.8592  -16.2836 C   0  0  0  0  0  0  0  0  0  0  0  0
 12 13  2  0  0  0
 13 14  1  0  0  0
 14  6  1  0  0  0
  6  7  2  0  0  0
  7  8  1  0  0  0
  8  9  2  0  0  0
  9 10  1  0  0  0
 10 11  2  0  0  0
  9  1  1  0  0  0
  1  2  2  0  0  0
  2  3  1  0  0  0
  3  4  2  0  0  0
  4  5  1  0  0  0
  3 22  1  0  0  0
 22 23  2  0  0  0
 23 24  1  0  0  0
 24 25  2  0  0  0
 25 26  1  0  0  0
 26 27  2  0  0  0
 26 28  1  0  0  0
 28 29  1  0  0  0
 29 30  1  0  0  0
 30 31  1  0  0  0
 31 32  1  0  0  0
 32 33  1  0  0  0
 13 16  1  0  0  0
 16 17  2  0  0  0
 17 18  1  0  0  0
 18 19  2  0  0  0
 19 20  1  0  0  0
 20 21  2  0  0  0
 11  6  1  0  0  0
  5  1  1  0  0  0
 27 22  1  0  0  0
 33 28  1  0  0  0
 21 16  1  0  0  0
 14 15  1  0  0  0
M  END
> <minimizedAffinity>
-8.13829

> <CNNscore>
0.1567721963

> <CNNaffinity>
6.4606156349

> <CNN_VS>
1.0128449202

> <CNNaffinity_variance>
0.4626558423

$$$$
[H]c1nc(N2C([H])([H])C([H])([H])OC([H])([H])C2([H])[H])c([H])c(-c2nc(-c3c([H])c([H])c(N([H])C(=O)c4c([H])c([H])c([H])c([H])c4[H])c([H])c3[H])sc2[H])c1[H]


 33 37  0  0  0  0  0  0  0  0999 V2000
   39.4285   13.2264  -15.1428 C   0  0  0  0  0  0  0  0  0  0  0  0
   40.6623   13.3947  -14.7064 N   0  0  0  0  0  0  0  0  0  0  0  0
   41.6639   13.0352  -15.4471 C   0  0  0  0  0  0  0  0  0  0  0  0
   41.3775   12.4863  -16.6737 C   0  0  0  0  0  0  0  0  0  0  0  0
   39.6667   12.5249  -16.6787 S   0  0  0  0  0  0  0  0  0  0  0  0
   35.7250   14.0318  -13.2109 C   0  0  0  0  0  0  0  0  0  0  0  0
   36.7100   14.9892  -13.2483 C   0  0  0  0  0  0  0  0  0  0  0  0
   37.9452   14.7734  -13.8710 C   0  0  0  0  0  0  0  0  0  0  0  0
   38.1595   13.5686  -14.4542 C   0  0  0  0  0  0  0  0  0  0  0  0
   37.1987   12.5655  -14.4465 C   0  0  0  0  0  0  0  0  0  0  0  0
   35.9928   12.7997  -13.8287 C   0  0  0  0  0  0  0  0  0  0  0  0
   34.8320   16.1165  -11.4210 O   0  0  0  0  0  0  0  0  0  0  0  0
   34.0659   15.1866  -11.7276 C   0  0  0  0  0  0  0  0  0  0  0  0
   34.4671   14.1616  -12.5863 N   0  0  0  0  0  0  0  0  0  0  0  0
   33.7454   13.3989  -12.7938 H   0  0  0  0  0  0  0  0  0  0  0  0
   32.7050   15.2015  -11.1477 C   0  0  0  0  0  0  0  0  0  0  0  0
   31.6774   14.5879  -11.8471 C   0  0  0  0  0  0  0  0  0  0  0  0
   30.4146   14.5702  -11.3545 C   0  0  0  0  0  0  0  0  0  0  0  0
   30.1043   15.1567  -10.1486 C   0  0  0  0  0  0  0  0  0  0  0  0
   31.1311   15.7633   -9.4616 C   0  0  0  0  0  0  0  0  0  0  0  0
   32.4205   15.7863   -9.9554 C   0  0  0  0  0  0  0  0  0  0  0  0
   43.0746   13.2079  -14.9911 C   0  0  0  0  0  0  0  0  0  0  0  0
   44.1295   13.1949  -15.8813 C   0  0  0  0  0  0  0  0  0  0  0  0
   45.4265   13.3558  -15.4462 C   0  0  0  0  0  0  0  0  0  0  0  0
   45.6612   13.5271  -14.1369 N   0  0  0  0  0  0  0  0  0  0  0  0
   44.6784   13.5496  -13.2168 C   0  0  0  0  0  0  0  0  0  0  0  0
   43.3865   13.3881  -13.6623 C   0  0  0  0  0  0  0  0  0  0  0  0
   44.9573   13.7418  -11.8295 N   0  0  0  0  0  0  0  0  0  0  0  0
   45.7535   14.8143  -11.2960 C   0  0  0  0  0  0  0  0  0  0  0  0
   45.1615   15.4380  -10.0490 C   0  0  0  0  0  0  0  0  0  0  0  0
   44.0230   14.7256   -9.6304 O   0  0  0  0  0  0  0  0  0  0  0  0
   44.2937   13.3764   -9.5523 C   0  0  0  0  0  0  0  0  0  0  0  0
   44.3957   12.7645  -10.9234 C   0  0  0  0  0  0  0  0  0  0  0  0
 12 13  2  0  0  0
 13 14  1  0  0  0
 14  6  1  0  0  0
  6  7  2  0  0  0
  7  8  1  0  0  0
  8  9  2  0  0  0
  9 10  1  0  0  0
 10 11  2  0  0  0
  9  1  1  0  0  0
  1  2  2  0  0  0
  2  3  1  0  0  0
  3  4  2  0  0  0
  4  5  1  0  0  0
  3 22  1  0  0  0
 22 23  2  0  0  0
 23 24  1  0  0  0
 24 25  2  0  0  0
 25 26  1  0  0  0
 26 27  2  0  0  0
 26 28  1  0  0  0
 28 29  1  0  0  0
 29 30  1  0  0  0
 30 31  1  0  0  0
 31 32  1  0  0  0
 32 33  1  0  0  0
 13 16  1  0  0  0
 16 17  2  0  0  0
 17 18  1  0  0  0
 18 19  2  0  0  0
 19 20  1  0  0  0
 20 21  2  0  0  0
 11  6  1  0  0  0
  5  1  1  0  0  0
 27 22  1  0  0  0
 33 28  1  0  0  0
 21 16  1  0  0  0
 14 15  1  0  0  0
M  END
> <minimizedAffinity>
-7.85148

> <CNNscore>
0.1492901146

> <CNNaffinity>
5.9975166321

> <CNN_VS>
0.8953699470

> <CNNaffinity_variance>
0.0953609198

$$$$
[H]c1c([H])c(C(=O)N2C([H])([H])C([H])([H])N(C(=O)N([H])c3c([H])c([H])c(C(F)(F)F)c([H])c3[H])C([H])([H])C2([H])[H])c([H])c([H])c1Cl


 29 31  0  0  0  0  0  0  0  0999 V2000
   38.1781   11.3237  -15.8279 N   0  0  0  0  0  0  0  0  0  0  0  0
   39.0952   12.2551  -16.3348 C   0  0  0  0  0  0  0  0  0  0  0  0
   38.8095   12.9569  -17.3453 O   0  0  0  0  0  0  0  0  0  0  0  0
   40.3744   12.4217  -15.7074 N   0  0  0  0  0  0  0  0  0  0  0  0
   41.2658   13.4259  -16.3180 C   0  0  0  0  0  0  0  0  0  0  0  0
   41.5782   14.4098  -15.1866 C   0  0  0  0  0  0  0  0  0  0  0  0
   42.2664   13.6509  -14.1829 N   0  0  0  0  0  0  0  0  0  0  0  0
   41.3227   12.7111  -13.4735 C   0  0  0  0  0  0  0  0  0  0  0  0
   40.8707   11.7274  -14.5730 C   0  0  0  0  0  0  0  0  0  0  0  0
   43.5970   13.6047  -13.7911 C   0  0  0  0  0  0  0  0  0  0  0  0
   43.7902   12.7880  -12.7699 O   0  0  0  0  0  0  0  0  0  0  0  0
   38.4934   10.7666  -14.9633 H   0  0  0  0  0  0  0  0  0  0  0  0
   44.7781   14.2474  -14.2533 C   0  0  0  0  0  0  0  0  0  0  0  0
   45.8633   14.5197  -13.4763 C   0  0  0  0  0  0  0  0  0  0  0  0
   47.0317   15.1233  -13.9857 C   0  0  0  0  0  0  0  0  0  0  0  0
   47.0865   15.4556  -15.3207 C   0  0  0  0  0  0  0  0  0  0  0  0
   48.5464   16.2039  -15.9296 Cl  0  0  0  0  0  0  0  0  0  0  0  0
   46.0029   15.1911  -16.1263 C   0  0  0  0  0  0  0  0  0  0  0  0
   44.8674   14.6006  -15.6184 C   0  0  0  0  0  0  0  0  0  0  0  0
   34.2932   10.4411  -17.0602 C   0  0  0  0  0  0  0  0  0  0  0  0
   35.3062    9.7399  -17.6352 C   0  0  0  0  0  0  0  0  0  0  0  0
   36.6194   10.0418  -17.2208 C   0  0  0  0  0  0  0  0  0  0  0  0
   36.8919   10.9989  -16.2770 C   0  0  0  0  0  0  0  0  0  0  0  0
   35.7849   11.6748  -15.7355 C   0  0  0  0  0  0  0  0  0  0  0  0
   34.5055   11.4154  -16.1068 C   0  0  0  0  0  0  0  0  0  0  0  0
   31.9706   10.6569  -16.5567 F   0  0  0  0  0  0  0  0  0  0  0  0
   32.8849   10.1563  -17.4600 C   0  0  0  0  0  0  0  0  0  0  0  0
   32.6812   10.8149  -18.6797 F   0  0  0  0  0  0  0  0  0  0  0  0
   32.7314    8.8028  -17.6757 F   0  0  0  0  0  0  0  0  0  0  0  0
 26 27  1  0  0  0
 27 28  1  0  0  0
 27 29  1  0  0  0
 27 20  1  0  0  0
 20 21  2  0  0  0
 21 22  1  0  0  0
 22 23  2  0  0  0
 23  1  1  0  0  0
  1  2  1  0  0  0
  2  3  2  0  0  0
  2  4  1  0  0  0
  4  5  1  0  0  0
  5  6  1  0  0  0
  6  7  1  0  0  0
  7  8  1  0  0  0
  8  9  1  0  0  0
  7 10  1  0  0  0
 10 11  2  0  0  0
 10 13  1  0  0  0
 13 14  2  0  0  0
 14 15  1  0  0  0
 15 16  2  0  0  0
 16 17  1  0  0  0
 16 18  1  0  0  0
 18 19  2  0  0  0
 23 24  1  0  0  0
 24 25  2  0  0  0
 25 20  1  0  0  0
  9  4  1  0  0  0
 19 13  1  0  0  0
  1 12  1  0  0  0
M  END
> <minimizedAffinity>
10.08425

> <CNNscore>
0.4468349814

> <CNNaffinity>
6.1570062637

> <CNN_VS>
2.7511658669

> <CNNaffinity_variance>
2.1822788715

$$$$
[H]c1c([H])c(C(=O)N2C([H])([H])C([H])([H])N(C(=O)N([H])c3c([H])c([H])c(C(F)(F)F)c([H])c3[H])C([H])([H])C2([H])[H])c([H])c([H])c1Cl


 29 31  0  0  0  0  0  0  0  0999 V2000
   35.7334   13.7134  -12.2356 N   0  0  0  0  0  0  0  0  0  0  0  0
   36.9197   14.1645  -11.6401 C   0  0  0  0  0  0  0  0  0  0  0  0
   38.0324   14.0011  -12.2152 O   0  0  0  0  0  0  0  0  0  0  0  0
   36.8819   14.8201  -10.3647 N   0  0  0  0  0  0  0  0  0  0  0  0
   38.1838   15.2554   -9.8250 C   0  0  0  0  0  0  0  0  0  0  0  0
   38.0311   16.7636   -9.6063 C   0  0  0  0  0  0  0  0  0  0  0  0
   36.9906   16.9172   -8.6313 N   0  0  0  0  0  0  0  0  0  0  0  0
   35.6418   16.5901   -9.2234 C   0  0  0  0  0  0  0  0  0  0  0  0
   35.7354   15.0899   -9.5723 C   0  0  0  0  0  0  0  0  0  0  0  0
   37.0093   17.2637   -7.2875 C   0  0  0  0  0  0  0  0  0  0  0  0
   35.7941   17.3393   -6.7730 O   0  0  0  0  0  0  0  0  0  0  0  0
   34.8262   13.8922  -11.6856 H   0  0  0  0  0  0  0  0  0  0  0  0
   38.0510   17.5524   -6.3638 C   0  0  0  0  0  0  0  0  0  0  0  0
   39.3486   17.1684   -6.5189 C   0  0  0  0  0  0  0  0  0  0  0  0
   40.3591   17.5113   -5.5968 C   0  0  0  0  0  0  0  0  0  0  0  0
   40.0300   18.2634   -4.4915 C   0  0  0  0  0  0  0  0  0  0  0  0
   41.3005   18.6762   -3.3612 Cl  0  0  0  0  0  0  0  0  0  0  0  0
   38.7257   18.6633   -4.3121 C   0  0  0  0  0  0  0  0  0  0  0  0
   37.7474   18.3233   -5.2193 C   0  0  0  0  0  0  0  0  0  0  0  0
   35.0413   11.6845  -15.8126 C   0  0  0  0  0  0  0  0  0  0  0  0
   36.1761   12.4280  -15.7248 C   0  0  0  0  0  0  0  0  0  0  0  0
   36.4072   13.1167  -14.5165 C   0  0  0  0  0  0  0  0  0  0  0  0
   35.5390   13.0555  -13.4566 C   0  0  0  0  0  0  0  0  0  0  0  0
   34.3913   12.2638  -13.6345 C   0  0  0  0  0  0  0  0  0  0  0  0
   34.1308   11.5856  -14.7808 C   0  0  0  0  0  0  0  0  0  0  0  0
   34.7822    9.5661  -16.8803 F   0  0  0  0  0  0  0  0  0  0  0  0
   34.7526   10.9324  -17.0676 C   0  0  0  0  0  0  0  0  0  0  0  0
   33.4491   11.2812  -17.4445 F   0  0  0  0  0  0  0  0  0  0  0  0
   35.6103   11.3503  -18.0634 F   0  0  0  0  0  0  0  0  0  0  0  0
 26 27  1  0  0  0
 27 28  1  0  0  0
 27 29  1  0  0  0
 27 20  1  0  0  0
 20 21  2  0  0  0
 21 22  1  0  0  0
 22 23  2  0  0  0
 23  1  1  0  0  0
  1  2  1  0  0  0
  2  3  2  0  0  0
  2  4  1  0  0  0
  4  5  1  0  0  0
  5  6  1  0  0  0
  6  7  1  0  0  0
  7  8  1  0  0  0
  8  9  1  0  0  0
  7 10  1  0  0  0
 10 11  2  0  0  0
 10 13  1  0  0  0
 13 14  2  0  0  0
 14 15  1  0  0  0
 15 16  2  0  0  0
 16 17  1  0  0  0
 16 18  1  0  0  0
 18 19  2  0  0  0
 23 24  1  0  0  0
 24 25  2  0  0  0
 25 20  1  0  0  0
  9  4  1  0  0  0
 19 13  1  0  0  0
  1 12  1  0  0  0
M  END
> <minimizedAffinity>
-7.37781

> <CNNscore>
0.3194783628

> <CNNaffinity>
5.2669086456

> <CNN_VS>
1.6826633215

> <CNNaffinity_variance>
0.2124898881

$$$$
[H]c1c([H])c(C(=O)N2C([H])([H])C([H])([H])N(C(=O)N([H])c3c([H])c([H])c(C(F)(F)F)c([H])c3[H])C([H])([H])C2([H])[H])c([H])c([H])c1Cl


 29 31  0  0  0  0  0  0  0  0999 V2000
   38.4406   13.1324  -14.2658 N   0  0  0  0  0  0  0  0  0  0  0  0
   39.8122   13.0731  -14.5499 C   0  0  0  0  0  0  0  0  0  0  0  0
   40.2389   12.4008  -15.5304 O   0  0  0  0  0  0  0  0  0  0  0  0
   40.7502   13.7793  -13.7258 N   0  0  0  0  0  0  0  0  0  0  0  0
   42.1689   13.6514  -14.1090 C   0  0  0  0  0  0  0  0  0  0  0  0
   42.6429   15.0900  -14.3362 C   0  0  0  0  0  0  0  0  0  0  0  0
   42.5075   15.7539  -13.0721 N   0  0  0  0  0  0  0  0  0  0  0  0
   41.0552   15.9951  -12.7407 C   0  0  0  0  0  0  0  0  0  0  0  0
   40.4615   14.5790  -12.5890 C   0  0  0  0  0  0  0  0  0  0  0  0
   43.4351   16.1634  -12.1245 C   0  0  0  0  0  0  0  0  0  0  0  0
   42.8696   16.7962  -11.1111 O   0  0  0  0  0  0  0  0  0  0  0  0
   38.1554   13.7280  -13.4165 H   0  0  0  0  0  0  0  0  0  0  0  0
   44.8484   16.0464  -12.0214 C   0  0  0  0  0  0  0  0  0  0  0  0
   45.7109   17.1006  -12.0032 C   0  0  0  0  0  0  0  0  0  0  0  0
   47.1047   16.9409  -11.8589 C   0  0  0  0  0  0  0  0  0  0  0  0
   47.6240   15.6722  -11.7317 C   0  0  0  0  0  0  0  0  0  0  0  0
   49.3562   15.4991  -11.5542 Cl  0  0  0  0  0  0  0  0  0  0  0  0
   46.7732   14.5908  -11.7475 C   0  0  0  0  0  0  0  0  0  0  0  0
   45.4138   14.7585  -11.8884 C   0  0  0  0  0  0  0  0  0  0  0  0
   35.1529   11.3495  -16.1102 C   0  0  0  0  0  0  0  0  0  0  0  0
   36.3336   11.3321  -16.7840 C   0  0  0  0  0  0  0  0  0  0  0  0
   37.4435   11.9385  -16.1613 C   0  0  0  0  0  0  0  0  0  0  0  0
   37.3631   12.5287  -14.9259 C   0  0  0  0  0  0  0  0  0  0  0  0
   36.1041   12.5010  -14.3015 C   0  0  0  0  0  0  0  0  0  0  0  0
   35.0108   11.9285  -14.8661 C   0  0  0  0  0  0  0  0  0  0  0  0
   33.6895   11.1986  -17.9891 F   0  0  0  0  0  0  0  0  0  0  0  0
   33.9494   10.7169  -16.7230 C   0  0  0  0  0  0  0  0  0  0  0  0
   34.2391    9.3511  -16.8396 F   0  0  0  0  0  0  0  0  0  0  0  0
   32.8729   10.8530  -15.8719 F   0  0  0  0  0  0  0  0  0  0  0  0
 26 27  1  0  0  0
 27 28  1  0  0  0
 27 29  1  0  0  0
 27 20  1  0  0  0
 20 21  2  0  0  0
 21 22  1  0  0  0
 22 23  2  0  0  0
 23  1  1  0  0  0
  1  2  1  0  0  0
  2  3  2  0  0  0
  2  4  1  0  0  0
  4  5  1  0  0  0
  5  6  1  0  0  0
  6  7  1  0  0  0
  7  8  1  0  0  0
  8  9  1  0  0  0
  7 10  1  0  0  0
 10 11  2  0  0  0
 10 13  1  0  0  0
 13 14  2  0  0  0
 14 15  1  0  0  0
 15 16  2  0  0  0
 16 17  1  0  0  0
 16 18  1  0  0  0
 18 19  2  0  0  0
 23 24  1  0  0  0
 24 25  2  0  0  0
 25 20  1  0  0  0
  9  4  1  0  0  0
 19 13  1  0  0  0
  1 12  1  0  0  0
M  END
> <minimizedAffinity>
-5.29894

> <CNNscore>
0.2742221355

> <CNNaffinity>
5.5323071480

> <CNN_VS>
1.5170810223

> <CNNaffinity_variance>
0.3591551483

$$$$
[H]c1c([H])c(C(=O)N2C([H])([H])C([H])([H])N(C(=O)N([H])c3c([H])c([H])c(C(F)(F)F)c([H])c3[H])C([H])([H])C2([H])[H])c([H])c([H])c1Cl


 29 31  0  0  0  0  0  0  0  0999 V2000
   39.1334   12.6211  -15.8765 N   0  0  0  0  0  0  0  0  0  0  0  0
   39.7272   13.3364  -14.8271 C   0  0  0  0  0  0  0  0  0  0  0  0
   39.0577   13.6554  -13.8046 O   0  0  0  0  0  0  0  0  0  0  0  0
   41.1086   13.7153  -14.9040 N   0  0  0  0  0  0  0  0  0  0  0  0
   41.6364   14.4655  -13.7489 C   0  0  0  0  0  0  0  0  0  0  0  0
   42.8159   13.6281  -13.2457 C   0  0  0  0  0  0  0  0  0  0  0  0
   43.7656   13.5991  -14.3201 N   0  0  0  0  0  0  0  0  0  0  0  0
   43.2764   12.7282  -15.4511 C   0  0  0  0  0  0  0  0  0  0  0  0
   42.0132   13.4498  -15.9654 C   0  0  0  0  0  0  0  0  0  0  0  0
   44.9859   14.2325  -14.5096 C   0  0  0  0  0  0  0  0  0  0  0  0
   45.5649   13.8750  -15.6427 O   0  0  0  0  0  0  0  0  0  0  0  0
   39.7694   12.3841  -16.7113 H   0  0  0  0  0  0  0  0  0  0  0  0
   45.7323   15.1714  -13.7459 C   0  0  0  0  0  0  0  0  0  0  0  0
   46.5486   14.8452  -12.7054 C   0  0  0  0  0  0  0  0  0  0  0  0
   47.3029   15.8056  -12.0000 C   0  0  0  0  0  0  0  0  0  0  0  0
   47.2163   17.1289  -12.3699 C   0  0  0  0  0  0  0  0  0  0  0  0
   48.1612   18.3023  -11.4797 Cl  0  0  0  0  0  0  0  0  0  0  0  0
   46.3982   17.4839  -13.4178 C   0  0  0  0  0  0  0  0  0  0  0  0
   45.6667   16.5376  -14.0999 C   0  0  0  0  0  0  0  0  0  0  0  0
   35.2591   11.1710  -16.4024 C   0  0  0  0  0  0  0  0  0  0  0  0
   35.4589   12.0745  -15.4063 C   0  0  0  0  0  0  0  0  0  0  0  0
   36.7698   12.5611  -15.2268 C   0  0  0  0  0  0  0  0  0  0  0  0
   37.8191   12.1567  -16.0119 C   0  0  0  0  0  0  0  0  0  0  0  0
   37.5222   11.2203  -17.0171 C   0  0  0  0  0  0  0  0  0  0  0  0
   36.2750   10.7264  -17.2231 C   0  0  0  0  0  0  0  0  0  0  0  0
   33.3418   11.0796  -17.8203 F   0  0  0  0  0  0  0  0  0  0  0  0
   33.8896   10.6292  -16.6372 C   0  0  0  0  0  0  0  0  0  0  0  0
   34.0281    9.2385  -16.7357 F   0  0  0  0  0  0  0  0  0  0  0  0
   33.0923   10.9018  -15.5455 F   0  0  0  0  0  0  0  0  0  0  0  0
 26 27  1  0  0  0
 27 28  1  0  0  0
 27 29  1  0  0  0
 27 20  1  0  0  0
 20 21  2  0  0  0
 21 22  1  0  0  0
 22 23  2  0  0  0
 23  1  1  0  0  0
  1  2  1  0  0  0
  2  3  2  0  0  0
  2  4  1  0  0  0
  4  5  1  0  0  0
  5  6  1  0  0  0
  6  7  1  0  0  0
  7  8  1  0  0  0
  8  9  1  0  0  0
  7 10  1  0  0  0
 10 11  2  0  0  0
 10 13  1  0  0  0
 13 14  2  0  0  0
 14 15  1  0  0  0
 15 16  2  0  0  0
 16 17  1  0  0  0
 16 18  1  0  0  0
 18 19  2  0  0  0
 23 24  1  0  0  0
 24 25  2  0  0  0
 25 20  1  0  0  0
  9  4  1  0  0  0
 19 13  1  0  0  0
  1 12  1  0  0  0
M  END
> <minimizedAffinity>
-8.32105

> <CNNscore>
0.2021490484

> <CNNaffinity>
5.5054550171

> <CNN_VS>
1.1129225492

> <CNNaffinity_variance>
0.0941765606

$$$$
[H]c1c([H])c(C(=O)N2C([H])([H])C([H])([H])N(C(=O)N([H])c3c([H])c([H])c(C(F)(F)F)c([H])c3[H])C([H])([H])C2([H])[H])c([H])c([H])c1Cl


 29 31  0  0  0  0  0  0  0  0999 V2000
   37.8792   15.8463   -9.2502 N   0  0  0  0  0  0  0  0  0  0  0  0
   36.7260   15.3314   -9.8588 C   0  0  0  0  0  0  0  0  0  0  0  0
   35.5912   15.4888   -9.3269 O   0  0  0  0  0  0  0  0  0  0  0  0
   36.8233   14.6167  -11.0988 N   0  0  0  0  0  0  0  0  0  0  0  0
   35.5526   14.1154  -11.6553 C   0  0  0  0  0  0  0  0  0  0  0  0
   35.4634   14.7416  -13.0502 C   0  0  0  0  0  0  0  0  0  0  0  0
   36.5851   14.2314  -13.7838 N   0  0  0  0  0  0  0  0  0  0  0  0
   37.8751   14.8418  -13.2934 C   0  0  0  0  0  0  0  0  0  0  0  0
   38.0023   14.3405  -11.8397 C   0  0  0  0  0  0  0  0  0  0  0  0
   36.6920   13.2890  -14.7970 C   0  0  0  0  0  0  0  0  0  0  0  0
   37.9338   13.1585  -15.2305 O   0  0  0  0  0  0  0  0  0  0  0  0
   38.8075   15.6740   -9.7658 H   0  0  0  0  0  0  0  0  0  0  0  0
   35.7541   12.4486  -15.4573 C   0  0  0  0  0  0  0  0  0  0  0  0
   34.4735   12.2442  -15.0404 C   0  0  0  0  0  0  0  0  0  0  0  0
   33.5631   11.4329  -15.7488 C   0  0  0  0  0  0  0  0  0  0  0  0
   33.9766   10.8175  -16.9090 C   0  0  0  0  0  0  0  0  0  0  0  0
   32.8294    9.8155  -17.7704 Cl  0  0  0  0  0  0  0  0  0  0  0  0
   35.2657   11.0081  -17.3507 C   0  0  0  0  0  0  0  0  0  0  0  0
   36.1460   11.8029  -16.6513 C   0  0  0  0  0  0  0  0  0  0  0  0
   38.2820   17.8575   -5.6194 C   0  0  0  0  0  0  0  0  0  0  0  0
   38.0896   18.6117   -6.7341 C   0  0  0  0  0  0  0  0  0  0  0  0
   37.9574   17.9310   -7.9615 C   0  0  0  0  0  0  0  0  0  0  0  0
   38.0160   16.5640   -8.0553 C   0  0  0  0  0  0  0  0  0  0  0  0
   38.2179   15.8637   -6.8535 C   0  0  0  0  0  0  0  0  0  0  0  0
   38.3505   16.4799   -5.6516 C   0  0  0  0  0  0  0  0  0  0  0  0
   37.7822   19.7497   -4.2540 F   0  0  0  0  0  0  0  0  0  0  0  0
   38.4226   18.5287   -4.2951 C   0  0  0  0  0  0  0  0  0  0  0  0
   37.7995   17.6908   -3.3610 F   0  0  0  0  0  0  0  0  0  0  0  0
   39.7581   18.6184   -3.9629 F   0  0  0  0  0  0  0  0  0  0  0  0
 26 27  1  0  0  0
 27 28  1  0  0  0
 27 29  1  0  0  0
 27 20  1  0  0  0
 20 21  2  0  0  0
 21 22  1  0  0  0
 22 23  2  0  0  0
 23  1  1  0  0  0
  1  2  1  0  0  0
  2  3  2  0  0  0
  2  4  1  0  0  0
  4  5  1  0  0  0
  5  6  1  0  0  0
  6  7  1  0  0  0
  7  8  1  0  0  0
  8  9  1  0  0  0
  7 10  1  0  0  0
 10 11  2  0  0  0
 10 13  1  0  0  0
 13 14  2  0  0  0
 14 15  1  0  0  0
 15 16  2  0  0  0
 16 17  1  0  0  0
 16 18  1  0  0  0
 18 19  2  0  0  0
 23 24  1  0  0  0
 24 25  2  0  0  0
 25 20  1  0  0  0
  9  4  1  0  0  0
 19 13  1  0  0  0
  1 12  1  0  0  0
M  END
> <minimizedAffinity>
-6.59571

> <CNNscore>
0.2003705800

> <CNNaffinity>
5.2580261230

> <CNN_VS>
1.0535537004

> <CNNaffinity_variance>
0.3272933066

$$$$
[H]c1c([H])c(C(=O)N2C([H])([H])C([H])([H])N(C(=O)N([H])c3c([H])c([H])c(C(F)(F)F)c([H])c3[H])C([H])([H])C2([H])[H])c([H])c([H])c1Cl


 29 31  0  0  0  0  0  0  0  0999 V2000
   34.6451   15.4169   -9.9753 N   0  0  0  0  0  0  0  0  0  0  0  0
   35.7817   14.8289  -10.5479 C   0  0  0  0  0  0  0  0  0  0  0  0
   36.8621   14.7479   -9.8985 O   0  0  0  0  0  0  0  0  0  0  0  0
   35.7291   14.3100  -11.8843 N   0  0  0  0  0  0  0  0  0  0  0  0
   36.9780   13.7128  -12.3934 C   0  0  0  0  0  0  0  0  0  0  0  0
   36.5979   12.2790  -12.7747 C   0  0  0  0  0  0  0  0  0  0  0  0
   35.6188   12.3945  -13.8163 N   0  0  0  0  0  0  0  0  0  0  0  0
   34.3023   12.8886  -13.2688 C   0  0  0  0  0  0  0  0  0  0  0  0
   34.6136   14.3125  -12.7623 C   0  0  0  0  0  0  0  0  0  0  0  0
   35.6769   12.1758  -15.1855 C   0  0  0  0  0  0  0  0  0  0  0  0
   34.5057   12.3546  -15.7714 O   0  0  0  0  0  0  0  0  0  0  0  0
   33.7626   15.4457  -10.5901 H   0  0  0  0  0  0  0  0  0  0  0  0
   36.7212   11.8018  -16.0753 C   0  0  0  0  0  0  0  0  0  0  0  0
   36.5535   11.0167  -17.1757 C   0  0  0  0  0  0  0  0  0  0  0  0
   37.6107   10.7031  -18.0549 C   0  0  0  0  0  0  0  0  0  0  0  0
   38.8668   11.2052  -17.7981 C   0  0  0  0  0  0  0  0  0  0  0  0
   40.1627   10.8021  -18.9027 Cl  0  0  0  0  0  0  0  0  0  0  0  0
   39.0618   12.0005  -16.6923 C   0  0  0  0  0  0  0  0  0  0  0  0
   38.0221   12.3008  -15.8411 C   0  0  0  0  0  0  0  0  0  0  0  0
   34.2385   17.1964   -6.2259 C   0  0  0  0  0  0  0  0  0  0  0  0
   33.5572   16.0408   -6.4469 C   0  0  0  0  0  0  0  0  0  0  0  0
   33.6923   15.4421   -7.7161 C   0  0  0  0  0  0  0  0  0  0  0  0
   34.4734   15.9822   -8.7056 C   0  0  0  0  0  0  0  0  0  0  0  0
   35.1416   17.1781   -8.3907 C   0  0  0  0  0  0  0  0  0  0  0  0
   35.0384   17.7871   -7.1822 C   0  0  0  0  0  0  0  0  0  0  0  0
   33.5350   19.1069   -4.9811 F   0  0  0  0  0  0  0  0  0  0  0  0
   34.1336   17.8670   -4.8980 C   0  0  0  0  0  0  0  0  0  0  0  0
   33.3124   17.0511   -4.1088 F   0  0  0  0  0  0  0  0  0  0  0  0
   35.3786   17.9173   -4.3070 F   0  0  0  0  0  0  0  0  0  0  0  0
 26 27  1  0  0  0
 27 28  1  0  0  0
 27 29  1  0  0  0
 27 20  1  0  0  0
 20 21  2  0  0  0
 21 22  1  0  0  0
 22 23  2  0  0  0
 23  1  1  0  0  0
  1  2  1  0  0  0
  2  3  2  0  0  0
  2  4  1  0  0  0
  4  5  1  0  0  0
  5  6  1  0  0  0
  6  7  1  0  0  0
  7  8  1  0  0  0
  8  9  1  0  0  0
  7 10  1  0  0  0
 10 11  2  0  0  0
 10 13  1  0  0  0
 13 14  2  0  0  0
 14 15  1  0  0  0
 15 16  2  0  0  0
 16 17  1  0  0  0
 16 18  1  0  0  0
 18 19  2  0  0  0
 23 24  1  0  0  0
 24 25  2  0  0  0
 25 20  1  0  0  0
  9  4  1  0  0  0
 19 13  1  0  0  0
  1 12  1  0  0  0
M  END
> <minimizedAffinity>
-8.56441

> <CNNscore>
0.1933167726

> <CNNaffinity>
5.3321447372

> <CNN_VS>
1.0307930708

> <CNNaffinity_variance>
0.6572564840

$$$$
[H]c1c([H])c(C(=O)N2C([H])([H])C([H])([H])N(C(=O)N([H])c3c([H])c([H])c(C(F)(F)F)c([H])c3[H])C([H])([H])C2([H])[H])c([H])c([H])c1Cl


 29 31  0  0  0  0  0  0  0  0999 V2000
   43.9617   14.8848  -13.2408 N   0  0  0  0  0  0  0  0  0  0  0  0
   42.5657   14.9587  -13.1350 C   0  0  0  0  0  0  0  0  0  0  0  0
   42.0210   15.8025  -12.3691 O   0  0  0  0  0  0  0  0  0  0  0  0
   41.7371   14.0721  -13.9000 N   0  0  0  0  0  0  0  0  0  0  0  0
   40.2821   14.2306  -13.7162 C   0  0  0  0  0  0  0  0  0  0  0  0
   39.7398   14.5127  -15.1205 C   0  0  0  0  0  0  0  0  0  0  0  0
   40.0377   13.3461  -15.8998 N   0  0  0  0  0  0  0  0  0  0  0  0
   41.5152   13.2537  -16.1922 C   0  0  0  0  0  0  0  0  0  0  0  0
   42.1644   13.0654  -14.8050 C   0  0  0  0  0  0  0  0  0  0  0  0
   39.2456   12.3131  -16.3808 C   0  0  0  0  0  0  0  0  0  0  0  0
   39.9334   11.4537  -17.1126 O   0  0  0  0  0  0  0  0  0  0  0  0
   44.3498   14.1427  -13.9161 H   0  0  0  0  0  0  0  0  0  0  0  0
   37.8658   11.9942  -16.2527 C   0  0  0  0  0  0  0  0  0  0  0  0
   37.0659   12.4216  -15.2364 C   0  0  0  0  0  0  0  0  0  0  0  0
   35.6910   12.1146  -15.1695 C   0  0  0  0  0  0  0  0  0  0  0  0
   35.1258   11.3516  -16.1665 C   0  0  0  0  0  0  0  0  0  0  0  0
   33.4184   10.9833  -16.0618 Cl  0  0  0  0  0  0  0  0  0  0  0  0
   35.9132   10.9074  -17.2039 C   0  0  0  0  0  0  0  0  0  0  0  0
   37.2544   11.2138  -17.2594 C   0  0  0  0  0  0  0  0  0  0  0  0
   46.8659   17.2453  -11.4012 C   0  0  0  0  0  0  0  0  0  0  0  0
   46.8568   15.9190  -11.1026 C   0  0  0  0  0  0  0  0  0  0  0  0
   45.8721   15.1226  -11.7220 C   0  0  0  0  0  0  0  0  0  0  0  0
   44.9492   15.6394  -12.5950 C   0  0  0  0  0  0  0  0  0  0  0  0
   45.0317   17.0199  -12.8459 C   0  0  0  0  0  0  0  0  0  0  0  0
   45.9631   17.8220  -12.2705 C   0  0  0  0  0  0  0  0  0  0  0  0
   49.1544   17.5789  -10.8129 F   0  0  0  0  0  0  0  0  0  0  0  0
   47.8906   18.1306  -10.7765 C   0  0  0  0  0  0  0  0  0  0  0  0
   47.9171   19.3035  -11.5424 F   0  0  0  0  0  0  0  0  0  0  0  0
   47.4941   18.4650   -9.4987 F   0  0  0  0  0  0  0  0  0  0  0  0
 26 27  1  0  0  0
 27 28  1  0  0  0
 27 29  1  0  0  0
 27 20  1  0  0  0
 20 21  2  0  0  0
 21 22  1  0  0  0
 22 23  2  0  0  0
 23  1  1  0  0  0
  1  2  1  0  0  0
  2  3  2  0  0  0
  2  4  1  0  0  0
  4  5  1  0  0  0
  5  6  1  0  0  0
  6  7  1  0  0  0
  7  8  1  0  0  0
  8  9  1  0  0  0
  7 10  1  0  0  0
 10 11  2  0  0  0
 10 13  1  0  0  0
 13 14  2  0  0  0
 14 15  1  0  0  0
 15 16  2  0  0  0
 16 17  1  0  0  0
 16 18  1  0  0  0
 18 19  2  0  0  0
 23 24  1  0  0  0
 24 25  2  0  0  0
 25 20  1  0  0  0
  9  4  1  0  0  0
 19 13  1  0  0  0
  1 12  1  0  0  0
M  END
> <minimizedAffinity>
-7.65151

> <CNNscore>
0.1510094851

> <CNNaffinity>
5.3517675400

> <CNN_VS>
0.8081676364

> <CNNaffinity_variance>
0.2948912382

$$$$
[H]c1c([H])c(C(=O)N2C([H])([H])C([H])([H])N(C(=O)N([H])c3c([H])c([H])c(C(F)(F)F)c([H])c3[H])C([H])([H])C2([H])[H])c([H])c([H])c1Cl


 29 31  0  0  0  0  0  0  0  0999 V2000
   35.4533   11.3565  -15.8870 N   0  0  0  0  0  0  0  0  0  0  0  0
   36.8197   11.5389  -16.1424 C   0  0  0  0  0  0  0  0  0  0  0  0
   37.3535   11.0474  -17.1762 O   0  0  0  0  0  0  0  0  0  0  0  0
   37.6300   12.2899  -15.2273 N   0  0  0  0  0  0  0  0  0  0  0  0
   39.0543   12.4226  -15.5871 C   0  0  0  0  0  0  0  0  0  0  0  0
   39.3010   13.9328  -15.6533 C   0  0  0  0  0  0  0  0  0  0  0  0
   39.0539   14.4309  -14.3313 N   0  0  0  0  0  0  0  0  0  0  0  0
   37.5792   14.4098  -14.0121 C   0  0  0  0  0  0  0  0  0  0  0  0
   37.2114   12.9112  -14.0216 C   0  0  0  0  0  0  0  0  0  0  0  0
   39.8990   14.8757  -13.3243 C   0  0  0  0  0  0  0  0  0  0  0  0
   39.2340   15.3037  -12.2652 O   0  0  0  0  0  0  0  0  0  0  0  0
   35.0722   11.8082  -14.9880 H   0  0  0  0  0  0  0  0  0  0  0  0
   41.3125   14.9670  -13.1996 C   0  0  0  0  0  0  0  0  0  0  0  0
   41.9717   16.0211  -12.6430 C   0  0  0  0  0  0  0  0  0  0  0  0
   43.3747   16.0528  -12.5027 C   0  0  0  0  0  0  0  0  0  0  0  0
   44.1164   14.9802  -12.9441 C   0  0  0  0  0  0  0  0  0  0  0  0
   45.8554   15.0425  -12.7597 Cl  0  0  0  0  0  0  0  0  0  0  0  0
   43.4736   13.9034  -13.5104 C   0  0  0  0  0  0  0  0  0  0  0  0
   42.1032   13.8829  -13.6418 C   0  0  0  0  0  0  0  0  0  0  0  0
   32.6544    9.1821  -18.0843 C   0  0  0  0  0  0  0  0  0  0  0  0
   32.5283   10.5358  -18.0763 C   0  0  0  0  0  0  0  0  0  0  0  0
   33.4727   11.2697  -17.3300 C   0  0  0  0  0  0  0  0  0  0  0  0
   34.4879   10.6675  -16.6317 C   0  0  0  0  0  0  0  0  0  0  0  0
   34.5427    9.2644  -16.6951 C   0  0  0  0  0  0  0  0  0  0  0  0
   33.6537    8.5205  -17.4009 C   0  0  0  0  0  0  0  0  0  0  0  0
   30.4199    8.9118  -18.8771 F   0  0  0  0  0  0  0  0  0  0  0  0
   31.6840    8.3598  -18.8628 C   0  0  0  0  0  0  0  0  0  0  0  0
   32.1540    8.3407  -20.1825 F   0  0  0  0  0  0  0  0  0  0  0  0
   31.6922    7.0647  -18.3887 F   0  0  0  0  0  0  0  0  0  0  0  0
 26 27  1  0  0  0
 27 28  1  0  0  0
 27 29  1  0  0  0
 27 20  1  0  0  0
 20 21  2  0  0  0
 21 22  1  0  0  0
 22 23  2  0  0  0
 23  1  1  0  0  0
  1  2  1  0  0  0
  2  3  2  0  0  0
  2  4  1  0  0  0
  4  5  1  0  0  0
  5  6  1  0  0  0
  6  7  1  0  0  0
  7  8  1  0  0  0
  8  9  1  0  0  0
  7 10  1  0  0  0
 10 11  2  0  0  0
 10 13  1  0  0  0
 13 14  2  0  0  0
 14 15  1  0  0  0
 15 16  2  0  0  0
 16 17  1  0  0  0
 16 18  1  0  0  0
 18 19  2  0  0  0
 23 24  1  0  0  0
 24 25  2  0  0  0
 25 20  1  0  0  0
  9  4  1  0  0  0
 19 13  1  0  0  0
  1 12  1  0  0  0
M  END
> <minimizedAffinity>
-2.42481

> <CNNscore>
0.1496678442

> <CNNaffinity>
5.7742729187

> <CNN_VS>
0.8642230034

> <CNNaffinity_variance>
0.2366160154

$$$$
[H]c1c([H])c(C(=O)N2C([H])([H])C([H])([H])N(C(=O)N([H])c3c([H])c([H])c(C(F)(F)F)c([H])c3[H])C([H])([H])C2([H])[H])c([H])c([H])c1Cl


 29 31  0  0  0  0  0  0  0  0999 V2000
   33.5354   15.3932  -10.5234 N   0  0  0  0  0  0  0  0  0  0  0  0
   34.8548   15.1150  -10.9076 C   0  0  0  0  0  0  0  0  0  0  0  0
   35.8223   15.4102  -10.1512 O   0  0  0  0  0  0  0  0  0  0  0  0
   35.1209   14.4885  -12.1703 N   0  0  0  0  0  0  0  0  0  0  0  0
   36.5416   14.2400  -12.4797 C   0  0  0  0  0  0  0  0  0  0  0  0
   36.6302   12.7300  -12.7204 C   0  0  0  0  0  0  0  0  0  0  0  0
   35.7995   12.4628  -13.8586 N   0  0  0  0  0  0  0  0  0  0  0  0
   34.3386   12.5968  -13.5055 C   0  0  0  0  0  0  0  0  0  0  0  0
   34.1712   14.0882  -13.1466 C   0  0  0  0  0  0  0  0  0  0  0  0
   36.0912   12.1517  -15.1793 C   0  0  0  0  0  0  0  0  0  0  0  0
   35.0017   11.9286  -15.8936 O   0  0  0  0  0  0  0  0  0  0  0  0
   32.7664   15.1090  -11.2200 H   0  0  0  0  0  0  0  0  0  0  0  0
   37.3033   12.0227  -15.9116 C   0  0  0  0  0  0  0  0  0  0  0  0
   38.4718   12.6421  -15.5854 C   0  0  0  0  0  0  0  0  0  0  0  0
   39.6626   12.4543  -16.3174 C   0  0  0  0  0  0  0  0  0  0  0  0
   39.6531   11.6137  -17.4077 C   0  0  0  0  0  0  0  0  0  0  0  0
   41.1424   11.3968  -18.3004 Cl  0  0  0  0  0  0  0  0  0  0  0  0
   38.4848   10.9766  -17.7577 C   0  0  0  0  0  0  0  0  0  0  0  0
   37.3281   11.1669  -17.0354 C   0  0  0  0  0  0  0  0  0  0  0  0
   31.9628   17.1866   -7.1029 C   0  0  0  0  0  0  0  0  0  0  0  0
   33.3099   17.0097   -7.1532 C   0  0  0  0  0  0  0  0  0  0  0  0
   33.8401   16.3997   -8.3084 C   0  0  0  0  0  0  0  0  0  0  0  0
   33.0514   15.9925   -9.3539 C   0  0  0  0  0  0  0  0  0  0  0  0
   31.6702   16.2140   -9.2172 C   0  0  0  0  0  0  0  0  0  0  0  0
   31.1191   16.7970   -8.1225 C   0  0  0  0  0  0  0  0  0  0  0  0
   32.2973   18.2230   -4.9795 F   0  0  0  0  0  0  0  0  0  0  0  0
   31.3522   17.8319   -5.9050 C   0  0  0  0  0  0  0  0  0  0  0  0
   30.7063   18.9865   -6.3662 F   0  0  0  0  0  0  0  0  0  0  0  0
   30.3969   16.9953   -5.3670 F   0  0  0  0  0  0  0  0  0  0  0  0
 26 27  1  0  0  0
 27 28  1  0  0  0
 27 29  1  0  0  0
 27 20  1  0  0  0
 20 21  2  0  0  0
 21 22  1  0  0  0
 22 23  2  0  0  0
 23  1  1  0  0  0
  1  2  1  0  0  0
  2  3  2  0  0  0
  2  4  1  0  0  0
  4  5  1  0  0  0
  5  6  1  0  0  0
  6  7  1  0  0  0
  7  8  1  0  0  0
  8  9  1  0  0  0
  7 10  1  0  0  0
 10 11  2  0  0  0
 10 13  1  0  0  0
 13 14  2  0  0  0
 14 15  1  0  0  0
 15 16  2  0  0  0
 16 17  1  0  0  0
 16 18  1  0  0  0
 18 19  2  0  0  0
 23 24  1  0  0  0
 24 25  2  0  0  0
 25 20  1  0  0  0
  9  4  1  0  0  0
 19 13  1  0  0  0
  1 12  1  0  0  0
M  END
> <minimizedAffinity>
-9.11426

> <CNNscore>
0.1155901775

> <CNNaffinity>
5.1476278305

> <CNN_VS>
0.5950152278

> <CNNaffinity_variance>
0.6180340648

$$$$
[H]OP(=O)(O[H])OC([H])([H])C([H])([H])C([H])([H])n1nc(-c2c([H])c([H])c(OC([H])([H])c3c([H])c([H])c([H])c(F)c3[H])c(F)c2[H])n(C([H])([H])[H])c1=O


 33 35  0  0  0  0  0  0  0  0999 V2000
   38.3178   12.3031  -15.9814 C   0  0  0  0  0  0  0  0  0  0  0  0
   39.6234   12.7166  -15.8964 N   0  0  0  0  0  0  0  0  0  0  0  0
   40.3464   12.1826  -16.8562 N   0  0  0  0  0  0  0  0  0  0  0  0
   39.5604   11.4165  -17.5902 C   0  0  0  0  0  0  0  0  0  0  0  0
   39.8839   10.7387  -18.5975 O   0  0  0  0  0  0  0  0  0  0  0  0
   38.3019   11.5021  -17.0342 N   0  0  0  0  0  0  0  0  0  0  0  0
   37.1706   10.8137  -17.5772 C   0  0  0  0  0  0  0  0  0  0  0  0
   35.4093   13.5310  -13.1025 C   0  0  0  0  0  0  0  0  0  0  0  0
   36.5786   12.9106  -12.7305 C   0  0  0  0  0  0  0  0  0  0  0  0
   37.4862   12.5382  -13.6785 C   0  0  0  0  0  0  0  0  0  0  0  0
   37.2883   12.7588  -15.0511 C   0  0  0  0  0  0  0  0  0  0  0  0
   36.1288   13.3741  -15.4271 C   0  0  0  0  0  0  0  0  0  0  0  0
   35.2011   13.7534  -14.4408 C   0  0  0  0  0  0  0  0  0  0  0  0
   34.0700   14.3628  -14.9055 F   0  0  0  0  0  0  0  0  0  0  0  0
   34.5058   13.9011  -12.1480 O   0  0  0  0  0  0  0  0  0  0  0  0
   34.2660   15.2122  -11.7340 C   0  0  0  0  0  0  0  0  0  0  0  0
   35.4034   15.6086  -10.8360 C   0  0  0  0  0  0  0  0  0  0  0  0
   36.1938   16.6820  -11.1919 C   0  0  0  0  0  0  0  0  0  0  0  0
   37.2408   17.0348  -10.3502 C   0  0  0  0  0  0  0  0  0  0  0  0
   37.4948   16.3335   -9.1792 C   0  0  0  0  0  0  0  0  0  0  0  0
   36.7136   15.2694   -8.8235 C   0  0  0  0  0  0  0  0  0  0  0  0
   36.9062   14.5427   -7.6962 F   0  0  0  0  0  0  0  0  0  0  0  0
   35.6754   14.9290   -9.6697 C   0  0  0  0  0  0  0  0  0  0  0  0
   41.7587   12.4301  -17.0341 C   0  0  0  0  0  0  0  0  0  0  0  0
   42.4693   12.8361  -15.7858 C   0  0  0  0  0  0  0  0  0  0  0  0
   43.8558   13.3870  -16.0236 C   0  0  0  0  0  0  0  0  0  0  0  0
   44.8327   12.4136  -15.8251 O   0  0  0  0  0  0  0  0  0  0  0  0
   46.1065   13.0472  -14.9192 P   0  0  0  0  0  0  0  0  0  0  0  0
   45.8746   12.6624  -13.4771 O   0  0  0  0  0  0  0  0  0  0  0  0
   46.0248   14.7445  -15.0784 O   0  0  0  0  0  0  0  0  0  0  0  0
   47.5968   12.5615  -15.4921 O   0  0  0  0  0  0  0  0  0  0  0  0
   45.4747   15.0625  -14.3173 H   0  0  0  0  0  0  0  0  0  0  0  0
   47.5743   12.2839  -16.4449 H   0  0  0  0  0  0  0  0  0  0  0  0
 17 16  1  0  0  0
 16 15  1  0  0  0
 15  8  1  0  0  0
  8  9  2  0  0  0
  9 10  1  0  0  0
 10 11  2  0  0  0
 11  1  1  0  0  0
  1  2  2  0  0  0
  2  3  1  0  0  0
  3 24  1  0  0  0
 24 25  1  0  0  0
 25 26  1  0  0  0
 26 27  1  0  0  0
 27 28  1  0  0  0
 28 29  2  0  0  0
 28 30  1  0  0  0
 28 31  1  0  0  0
  3  4  1  0  0  0
  4  5  2  0  0  0
  4  6  1  0  0  0
  6  7  1  0  0  0
 11 12  1  0  0  0
 12 13  2  0  0  0
 13 14  1  0  0  0
 17 18  2  0  0  0
 18 19  1  0  0  0
 19 20  2  0  0  0
 20 21  1  0  0  0
 21 22  1  0  0  0
 21 23  2  0  0  0
 23 17  1  0  0  0
 13  8  1  0  0  0
  6  1  1  0  0  0
 30 32  1  0  0  0
 31 33  1  0  0  0
M  END
> <minimizedAffinity>
-7.62753

> <CNNscore>
0.4943041801

> <CNNaffinity>
6.5911040306

> <CNN_VS>
3.2580103874

> <CNNaffinity_variance>
0.3963531256

$$$$
[H]OP(=O)(O[H])OC([H])([H])C([H])([H])C([H])([H])n1nc(-c2c([H])c([H])c(OC([H])([H])c3c([H])c([H])c([H])c(F)c3[H])c(F)c2[H])n(C([H])([H])[H])c1=O


 33 35  0  0  0  0  0  0  0  0999 V2000
   35.6185   14.6620  -12.1157 C   0  0  0  0  0  0  0  0  0  0  0  0
   34.5156   14.9284  -11.3441 N   0  0  0  0  0  0  0  0  0  0  0  0
   34.8287   15.7119  -10.3355 N   0  0  0  0  0  0  0  0  0  0  0  0
   36.1191   15.9828  -10.4059 C   0  0  0  0  0  0  0  0  0  0  0  0
   36.7901   16.6978   -9.6203 O   0  0  0  0  0  0  0  0  0  0  0  0
   36.5964   15.3234  -11.5184 N   0  0  0  0  0  0  0  0  0  0  0  0
   37.9647   15.3986  -11.9314 C   0  0  0  0  0  0  0  0  0  0  0  0
   35.5772   12.3638  -15.7172 C   0  0  0  0  0  0  0  0  0  0  0  0
   36.5049   13.3555  -15.5024 C   0  0  0  0  0  0  0  0  0  0  0  0
   36.4900   14.0643  -14.3368 C   0  0  0  0  0  0  0  0  0  0  0  0
   35.5547   13.8318  -13.3156 C   0  0  0  0  0  0  0  0  0  0  0  0
   34.6303   12.8486  -13.5231 C   0  0  0  0  0  0  0  0  0  0  0  0
   34.6558   12.1248  -14.7283 C   0  0  0  0  0  0  0  0  0  0  0  0
   33.6960   11.1603  -14.8516 F   0  0  0  0  0  0  0  0  0  0  0  0
   35.5984   11.6584  -16.8861 O   0  0  0  0  0  0  0  0  0  0  0  0
   36.2984   10.4691  -17.0942 C   0  0  0  0  0  0  0  0  0  0  0  0
   37.6362   10.8370  -17.6707 C   0  0  0  0  0  0  0  0  0  0  0  0
   37.8503   10.6705  -19.0235 C   0  0  0  0  0  0  0  0  0  0  0  0
   39.0927   11.0157  -19.5396 C   0  0  0  0  0  0  0  0  0  0  0  0
   40.1000   11.5160  -18.7257 C   0  0  0  0  0  0  0  0  0  0  0  0
   39.8913   11.6822  -17.3848 C   0  0  0  0  0  0  0  0  0  0  0  0
   40.8300   12.1647  -16.5350 F   0  0  0  0  0  0  0  0  0  0  0  0
   38.6509   11.3349  -16.8842 C   0  0  0  0  0  0  0  0  0  0  0  0
   33.8800   16.1721   -9.3478 C   0  0  0  0  0  0  0  0  0  0  0  0
   34.3406   16.0111   -7.9372 C   0  0  0  0  0  0  0  0  0  0  0  0
   34.1648   14.6128   -7.3928 C   0  0  0  0  0  0  0  0  0  0  0  0
   34.2489   14.5922   -6.0022 O   0  0  0  0  0  0  0  0  0  0  0  0
   35.7170   13.9163   -5.5203 P   0  0  0  0  0  0  0  0  0  0  0  0
   36.5593   15.0263   -4.9374 O   0  0  0  0  0  0  0  0  0  0  0  0
   36.4647   13.3113   -6.9303 O   0  0  0  0  0  0  0  0  0  0  0  0
   35.5125   12.6339   -4.4722 O   0  0  0  0  0  0  0  0  0  0  0  0
   37.0420   14.0436   -7.2671 H   0  0  0  0  0  0  0  0  0  0  0  0
   34.6154   12.2147   -4.5427 H   0  0  0  0  0  0  0  0  0  0  0  0
 17 16  1  0  0  0
 16 15  1  0  0  0
 15  8  1  0  0  0
  8  9  2  0  0  0
  9 10  1  0  0  0
 10 11  2  0  0  0
 11  1  1  0  0  0
  1  2  2  0  0  0
  2  3  1  0  0  0
  3 24  1  0  0  0
 24 25  1  0  0  0
 25 26  1  0  0  0
 26 27  1  0  0  0
 27 28  1  0  0  0
 28 29  2  0  0  0
 28 30  1  0  0  0
 28 31  1  0  0  0
  3  4  1  0  0  0
  4  5  2  0  0  0
  4  6  1  0  0  0
  6  7  1  0  0  0
 11 12  1  0  0  0
 12 13  2  0  0  0
 13 14  1  0  0  0
 17 18  2  0  0  0
 18 19  1  0  0  0
 19 20  2  0  0  0
 20 21  1  0  0  0
 21 22  1  0  0  0
 21 23  2  0  0  0
 23 17  1  0  0  0
 13  8  1  0  0  0
  6  1  1  0  0  0
 30 32  1  0  0  0
 31 33  1  0  0  0
M  END
> <minimizedAffinity>
-7.96536

> <CNNscore>
0.3981601596

> <CNNaffinity>
6.2267532349

> <CNN_VS>
2.4792449474

> <CNNaffinity_variance>
0.1033836156

$$$$
[H]OP(=O)(O[H])OC([H])([H])C([H])([H])C([H])([H])n1nc(-c2c([H])c([H])c(OC([H])([H])c3c([H])c([H])c([H])c(F)c3[H])c(F)c2[H])n(C([H])([H])[H])c1=O


 33 35  0  0  0  0  0  0  0  0999 V2000
   34.6623   14.9830  -11.3943 C   0  0  0  0  0  0  0  0  0  0  0  0
   34.6691   15.4913  -10.1198 N   0  0  0  0  0  0  0  0  0  0  0  0
   33.4577   15.8458   -9.7513 N   0  0  0  0  0  0  0  0  0  0  0  0
   32.6295   15.5891  -10.7470 C   0  0  0  0  0  0  0  0  0  0  0  0
   31.3896   15.7902  -10.7763 O   0  0  0  0  0  0  0  0  0  0  0  0
   33.3932   15.0523  -11.7615 N   0  0  0  0  0  0  0  0  0  0  0  0
   32.8315   14.6283  -13.0078 C   0  0  0  0  0  0  0  0  0  0  0  0
   38.2610   13.7517  -13.3406 C   0  0  0  0  0  0  0  0  0  0  0  0
   38.0446   15.0609  -12.9805 C   0  0  0  0  0  0  0  0  0  0  0  0
   36.8850   15.4149  -12.3551 C   0  0  0  0  0  0  0  0  0  0  0  0
   35.8716   14.4921  -12.0498 C   0  0  0  0  0  0  0  0  0  0  0  0
   36.0801   13.1904  -12.4053 C   0  0  0  0  0  0  0  0  0  0  0  0
   37.2794   12.8377  -13.0493 C   0  0  0  0  0  0  0  0  0  0  0  0
   37.4046   11.5152  -13.3684 F   0  0  0  0  0  0  0  0  0  0  0  0
   39.4242   13.4049  -13.9660 O   0  0  0  0  0  0  0  0  0  0  0  0
   39.8909   13.9586  -15.1590 C   0  0  0  0  0  0  0  0  0  0  0  0
   39.7669   12.8996  -16.2176 C   0  0  0  0  0  0  0  0  0  0  0  0
   40.8280   12.6799  -17.0716 C   0  0  0  0  0  0  0  0  0  0  0  0
   40.6963   11.6972  -18.0442 C   0  0  0  0  0  0  0  0  0  0  0  0
   39.5326   10.9495  -18.1635 C   0  0  0  0  0  0  0  0  0  0  0  0
   38.4792   11.1646  -17.3191 C   0  0  0  0  0  0  0  0  0  0  0  0
   37.3164   10.4715  -17.3806 F   0  0  0  0  0  0  0  0  0  0  0  0
   38.6233   12.1451  -16.3559 C   0  0  0  0  0  0  0  0  0  0  0  0
   33.1414   16.4121   -8.4602 C   0  0  0  0  0  0  0  0  0  0  0  0
   33.5289   15.5508   -7.3043 C   0  0  0  0  0  0  0  0  0  0  0  0
   34.8972   15.8603   -6.7434 C   0  0  0  0  0  0  0  0  0  0  0  0
   35.3768   14.8122   -5.9605 O   0  0  0  0  0  0  0  0  0  0  0  0
   36.7259   14.1127   -6.6921 P   0  0  0  0  0  0  0  0  0  0  0  0
   37.9330   14.9295   -6.2956 O   0  0  0  0  0  0  0  0  0  0  0  0
   36.4853   14.2292   -8.3777 O   0  0  0  0  0  0  0  0  0  0  0  0
   36.8830   12.4937   -6.3191 O   0  0  0  0  0  0  0  0  0  0  0  0
   36.9158   15.0779   -8.6555 H   0  0  0  0  0  0  0  0  0  0  0  0
   36.0277   12.0758   -6.0375 H   0  0  0  0  0  0  0  0  0  0  0  0
 17 16  1  0  0  0
 16 15  1  0  0  0
 15  8  1  0  0  0
  8  9  2  0  0  0
  9 10  1  0  0  0
 10 11  2  0  0  0
 11  1  1  0  0  0
  1  2  2  0  0  0
  2  3  1  0  0  0
  3 24  1  0  0  0
 24 25  1  0  0  0
 25 26  1  0  0  0
 26 27  1  0  0  0
 27 28  1  0  0  0
 28 29  2  0  0  0
 28 30  1  0  0  0
 28 31  1  0  0  0
  3  4  1  0  0  0
  4  5  2  0  0  0
  4  6  1  0  0  0
  6  7  1  0  0  0
 11 12  1  0  0  0
 12 13  2  0  0  0
 13 14  1  0  0  0
 17 18  2  0  0  0
 18 19  1  0  0  0
 19 20  2  0  0  0
 20 21  1  0  0  0
 21 22  1  0  0  0
 21 23  2  0  0  0
 23 17  1  0  0  0
 13  8  1  0  0  0
  6  1  1  0  0  0
 30 32  1  0  0  0
 31 33  1  0  0  0
M  END
> <minimizedAffinity>
-7.57132

> <CNNscore>
0.3750575483

> <CNNaffinity>
6.0137829781

> <CNN_VS>
2.2555146217

> <CNNaffinity_variance>
0.0747879893

$$$$
[H]OP(=O)(O[H])OC([H])([H])C([H])([H])C([H])([H])n1nc(-c2c([H])c([H])c(OC([H])([H])c3c([H])c([H])c([H])c(F)c3[H])c(F)c2[H])n(C([H])([H])[H])c1=O


 33 35  0  0  0  0  0  0  0  0999 V2000
   37.3708   11.9207  -16.1666 C   0  0  0  0  0  0  0  0  0  0  0  0
   36.5220   12.4044  -15.2031 N   0  0  0  0  0  0  0  0  0  0  0  0
   35.3041   11.9400  -15.3771 N   0  0  0  0  0  0  0  0  0  0  0  0
   35.3081   11.1522  -16.4367 C   0  0  0  0  0  0  0  0  0  0  0  0
   34.3336   10.5245  -16.9215 O   0  0  0  0  0  0  0  0  0  0  0  0
   36.6004   11.1497  -16.9164 N   0  0  0  0  0  0  0  0  0  0  0  0
   36.9975   10.3834  -18.0583 C   0  0  0  0  0  0  0  0  0  0  0  0
   41.4911   13.0499  -16.1113 C   0  0  0  0  0  0  0  0  0  0  0  0
   40.6147   13.4621  -15.1353 C   0  0  0  0  0  0  0  0  0  0  0  0
   39.3071   13.0761  -15.1838 C   0  0  0  0  0  0  0  0  0  0  0  0
   38.7912   12.2587  -16.2023 C   0  0  0  0  0  0  0  0  0  0  0  0
   39.6564   11.8464  -17.1749 C   0  0  0  0  0  0  0  0  0  0  0  0
   41.0018   12.2507  -17.1141 C   0  0  0  0  0  0  0  0  0  0  0  0
   41.7964   11.7923  -18.1266 F   0  0  0  0  0  0  0  0  0  0  0  0
   42.7984   13.4401  -16.0560 O   0  0  0  0  0  0  0  0  0  0  0  0
   43.8951   12.5769  -16.0534 C   0  0  0  0  0  0  0  0  0  0  0  0
   44.7816   12.9897  -14.9127 C   0  0  0  0  0  0  0  0  0  0  0  0
   44.2101   13.5599  -13.7939 C   0  0  0  0  0  0  0  0  0  0  0  0
   45.0442   13.9356  -12.7488 C   0  0  0  0  0  0  0  0  0  0  0  0
   46.4181   13.7472  -12.8169 C   0  0  0  0  0  0  0  0  0  0  0  0
   46.9877   13.1825  -13.9240 C   0  0  0  0  0  0  0  0  0  0  0  0
   48.3196   12.9704  -14.0553 F   0  0  0  0  0  0  0  0  0  0  0  0
   46.1465   12.8133  -14.9565 C   0  0  0  0  0  0  0  0  0  0  0  0
   34.1873   12.2661  -14.5204 C   0  0  0  0  0  0  0  0  0  0  0  0
   33.9894   13.7300  -14.3060 C   0  0  0  0  0  0  0  0  0  0  0  0
   34.2735   14.1846  -12.8935 C   0  0  0  0  0  0  0  0  0  0  0  0
   35.3904   13.5408  -12.3651 O   0  0  0  0  0  0  0  0  0  0  0  0
   36.2077   14.5711  -11.3092 P   0  0  0  0  0  0  0  0  0  0  0  0
   35.8559   15.9888  -11.6938 O   0  0  0  0  0  0  0  0  0  0  0  0
   37.8753   14.3079  -11.5597 O   0  0  0  0  0  0  0  0  0  0  0  0
   35.8816   14.2297   -9.7086 O   0  0  0  0  0  0  0  0  0  0  0  0
   38.1553   14.9700  -12.2424 H   0  0  0  0  0  0  0  0  0  0  0  0
   35.5654   13.2993   -9.5672 H   0  0  0  0  0  0  0  0  0  0  0  0
 17 16  1  0  0  0
 16 15  1  0  0  0
 15  8  1  0  0  0
  8  9  2  0  0  0
  9 10  1  0  0  0
 10 11  2  0  0  0
 11  1  1  0  0  0
  1  2  2  0  0  0
  2  3  1  0  0  0
  3 24  1  0  0  0
 24 25  1  0  0  0
 25 26  1  0  0  0
 26 27  1  0  0  0
 27 28  1  0  0  0
 28 29  2  0  0  0
 28 30  1  0  0  0
 28 31  1  0  0  0
  3  4  1  0  0  0
  4  5  2  0  0  0
  4  6  1  0  0  0
  6  7  1  0  0  0
 11 12  1  0  0  0
 12 13  2  0  0  0
 13 14  1  0  0  0
 17 18  2  0  0  0
 18 19  1  0  0  0
 19 20  2  0  0  0
 20 21  1  0  0  0
 21 22  1  0  0  0
 21 23  2  0  0  0
 23 17  1  0  0  0
 13  8  1  0  0  0
  6  1  1  0  0  0
 30 32  1  0  0  0
 31 33  1  0  0  0
M  END
> <minimizedAffinity>
-8.42955

> <CNNscore>
0.3637876511

> <CNNaffinity>
6.4373283386

> <CNN_VS>
2.3418204784

> <CNNaffinity_variance>
0.0566457585

$$$$
[H]OP(=O)(O[H])OC([H])([H])C([H])([H])C([H])([H])n1nc(-c2c([H])c([H])c(OC([H])([H])c3c([H])c([H])c([H])c(F)c3[H])c(F)c2[H])n(C([H])([H])[H])c1=O


 33 35  0  0  0  0  0  0  0  0999 V2000
   43.6074   12.8027  -15.6626 C   0  0  0  0  0  0  0  0  0  0  0  0
   43.9836   13.4016  -14.4868 N   0  0  0  0  0  0  0  0  0  0  0  0
   45.2931   13.4185  -14.3687 N   0  0  0  0  0  0  0  0  0  0  0  0
   45.8133   12.8446  -15.4380 C   0  0  0  0  0  0  0  0  0  0  0  0
   47.0317   12.6705  -15.6910 O   0  0  0  0  0  0  0  0  0  0  0  0
   44.7527   12.4675  -16.2337 N   0  0  0  0  0  0  0  0  0  0  0  0
   44.9293   11.8249  -17.5004 C   0  0  0  0  0  0  0  0  0  0  0  0
   39.4596   12.4626  -16.6296 C   0  0  0  0  0  0  0  0  0  0  0  0
   39.8837   13.0302  -15.4513 C   0  0  0  0  0  0  0  0  0  0  0  0
   41.2173   13.1265  -15.1803 C   0  0  0  0  0  0  0  0  0  0  0  0
   42.2090   12.6659  -16.0612 C   0  0  0  0  0  0  0  0  0  0  0  0
   41.7943   12.1006  -17.2329 C   0  0  0  0  0  0  0  0  0  0  0  0
   40.4172   12.0071  -17.5011 C   0  0  0  0  0  0  0  0  0  0  0  0
   40.0920   11.4288  -18.6954 F   0  0  0  0  0  0  0  0  0  0  0  0
   38.1232   12.3700  -16.8941 O   0  0  0  0  0  0  0  0  0  0  0  0
   37.4012   11.1784  -16.9761 C   0  0  0  0  0  0  0  0  0  0  0  0
   36.0988   11.3991  -16.2603 C   0  0  0  0  0  0  0  0  0  0  0  0
   34.9370   10.9069  -16.8184 C   0  0  0  0  0  0  0  0  0  0  0  0
   33.7420   11.1199  -16.1433 C   0  0  0  0  0  0  0  0  0  0  0  0
   33.7052   11.8083  -14.9383 C   0  0  0  0  0  0  0  0  0  0  0  0
   34.8544   12.2975  -14.3824 C   0  0  0  0  0  0  0  0  0  0  0  0
   34.8893   12.9773  -13.2107 F   0  0  0  0  0  0  0  0  0  0  0  0
   36.0364   12.0786  -15.0643 C   0  0  0  0  0  0  0  0  0  0  0  0
   45.9931   13.9861  -13.2394 C   0  0  0  0  0  0  0  0  0  0  0  0
   45.8038   13.2350  -11.9634 C   0  0  0  0  0  0  0  0  0  0  0  0
   46.1312   11.7637  -12.0661 C   0  0  0  0  0  0  0  0  0  0  0  0
   47.4088   11.4903  -11.5822 O   0  0  0  0  0  0  0  0  0  0  0  0
   47.4890    9.9010  -11.0234 P   0  0  0  0  0  0  0  0  0  0  0  0
   48.8968    9.6624  -10.5308 O   0  0  0  0  0  0  0  0  0  0  0  0
   47.1741    8.8932  -12.3644 O   0  0  0  0  0  0  0  0  0  0  0  0
   46.3299    9.5744   -9.8682 O   0  0  0  0  0  0  0  0  0  0  0  0
   48.0588    8.6799  -12.7576 H   0  0  0  0  0  0  0  0  0  0  0  0
   45.5534   10.1914   -9.9126 H   0  0  0  0  0  0  0  0  0  0  0  0
 17 16  1  0  0  0
 16 15  1  0  0  0
 15  8  1  0  0  0
  8  9  2  0  0  0
  9 10  1  0  0  0
 10 11  2  0  0  0
 11  1  1  0  0  0
  1  2  2  0  0  0
  2  3  1  0  0  0
  3 24  1  0  0  0
 24 25  1  0  0  0
 25 26  1  0  0  0
 26 27  1  0  0  0
 27 28  1  0  0  0
 28 29  2  0  0  0
 28 30  1  0  0  0
 28 31  1  0  0  0
  3  4  1  0  0  0
  4  5  2  0  0  0
  4  6  1  0  0  0
  6  7  1  0  0  0
 11 12  1  0  0  0
 12 13  2  0  0  0
 13 14  1  0  0  0
 17 18  2  0  0  0
 18 19  1  0  0  0
 19 20  2  0  0  0
 20 21  1  0  0  0
 21 22  1  0  0  0
 21 23  2  0  0  0
 23 17  1  0  0  0
 13  8  1  0  0  0
  6  1  1  0  0  0
 30 32  1  0  0  0
 31 33  1  0  0  0
M  END
> <minimizedAffinity>
-8.40703

> <CNNscore>
0.3173483312

> <CNNaffinity>
6.1397867203

> <CNN_VS>
1.9484510422

> <CNNaffinity_variance>
0.0514259748

$$$$
[H]OP(=O)(O[H])OC([H])([H])C([H])([H])C([H])([H])n1nc(-c2c([H])c([H])c(OC([H])([H])c3c([H])c([H])c([H])c(F)c3[H])c(F)c2[H])n(C([H])([H])[H])c1=O


 33 35  0  0  0  0  0  0  0  0999 V2000
   43.9801   13.3790  -15.1179 C   0  0  0  0  0  0  0  0  0  0  0  0
   44.7371   14.1199  -14.2456 N   0  0  0  0  0  0  0  0  0  0  0  0
   46.0197   13.9060  -14.4415 N   0  0  0  0  0  0  0  0  0  0  0  0
   46.1494   13.0369  -15.4270 C   0  0  0  0  0  0  0  0  0  0  0  0
   47.2190   12.5821  -15.9041 O   0  0  0  0  0  0  0  0  0  0  0  0
   44.8725   12.7189  -15.8377 N   0  0  0  0  0  0  0  0  0  0  0  0
   44.6121   11.8104  -16.9127 C   0  0  0  0  0  0  0  0  0  0  0  0
   39.7157   13.5892  -14.9583 C   0  0  0  0  0  0  0  0  0  0  0  0
   40.4983   13.9457  -13.8856 C   0  0  0  0  0  0  0  0  0  0  0  0
   41.8575   13.8707  -13.9764 C   0  0  0  0  0  0  0  0  0  0  0  0
   42.5209   13.4379  -15.1358 C   0  0  0  0  0  0  0  0  0  0  0  0
   41.7492   13.0818  -16.2046 C   0  0  0  0  0  0  0  0  0  0  0  0
   40.3495   13.1635  -16.0989 C   0  0  0  0  0  0  0  0  0  0  0  0
   39.6560   12.7887  -17.2149 F   0  0  0  0  0  0  0  0  0  0  0  0
   38.3560   13.6671  -14.8601 O   0  0  0  0  0  0  0  0  0  0  0  0
   37.5523   12.7949  -14.1245 C   0  0  0  0  0  0  0  0  0  0  0  0
   36.6040   12.1440  -15.0912 C   0  0  0  0  0  0  0  0  0  0  0  0
   35.2520   12.1625  -14.8170 C   0  0  0  0  0  0  0  0  0  0  0  0
   34.3897   11.5562  -15.7214 C   0  0  0  0  0  0  0  0  0  0  0  0
   34.8640   10.9448  -16.8740 C   0  0  0  0  0  0  0  0  0  0  0  0
   36.2031   10.9246  -17.1489 C   0  0  0  0  0  0  0  0  0  0  0  0
   36.7322   10.3459  -18.2540 F   0  0  0  0  0  0  0  0  0  0  0  0
   37.0501   11.5314  -16.2409 C   0  0  0  0  0  0  0  0  0  0  0  0
   47.0686   14.5447  -13.6803 C   0  0  0  0  0  0  0  0  0  0  0  0
   47.6306   15.7689  -14.3233 C   0  0  0  0  0  0  0  0  0  0  0  0
   46.5940   16.8181  -14.6503 C   0  0  0  0  0  0  0  0  0  0  0  0
   47.1035   18.1054  -14.4934 O   0  0  0  0  0  0  0  0  0  0  0  0
   46.2680   18.9146  -13.2722 P   0  0  0  0  0  0  0  0  0  0  0  0
   47.1810   19.9895  -12.7315 O   0  0  0  0  0  0  0  0  0  0  0  0
   45.9512   17.7657  -12.0504 O   0  0  0  0  0  0  0  0  0  0  0  0
   44.7985   19.5090  -13.7939 O   0  0  0  0  0  0  0  0  0  0  0  0
   46.7106   17.8275  -11.4160 H   0  0  0  0  0  0  0  0  0  0  0  0
   44.4490   19.0332  -14.5920 H   0  0  0  0  0  0  0  0  0  0  0  0
 17 16  1  0  0  0
 16 15  1  0  0  0
 15  8  1  0  0  0
  8  9  2  0  0  0
  9 10  1  0  0  0
 10 11  2  0  0  0
 11  1  1  0  0  0
  1  2  2  0  0  0
  2  3  1  0  0  0
  3 24  1  0  0  0
 24 25  1  0  0  0
 25 26  1  0  0  0
 26 27  1  0  0  0
 27 28  1  0  0  0
 28 29  2  0  0  0
 28 30  1  0  0  0
 28 31  1  0  0  0
  3  4  1  0  0  0
  4  5  2  0  0  0
  4  6  1  0  0  0
  6  7  1  0  0  0
 11 12  1  0  0  0
 12 13  2  0  0  0
 13 14  1  0  0  0
 17 18  2  0  0  0
 18 19  1  0  0  0
 19 20  2  0  0  0
 20 21  1  0  0  0
 21 22  1  0  0  0
 21 23  2  0  0  0
 23 17  1  0  0  0
 13  8  1  0  0  0
  6  1  1  0  0  0
 30 32  1  0  0  0
 31 33  1  0  0  0
M  END
> <minimizedAffinity>
-8.33244

> <CNNscore>
0.2641615272

> <CNNaffinity>
6.0775361061

> <CNN_VS>
1.6054512262

> <CNNaffinity_variance>
0.1104913503

$$$$
[H]OP(=O)(O[H])OC([H])([H])C([H])([H])C([H])([H])n1nc(-c2c([H])c([H])c(OC([H])([H])c3c([H])c([H])c([H])c(F)c3[H])c(F)c2[H])n(C([H])([H])[H])c1=O


 33 35  0  0  0  0  0  0  0  0999 V2000
   37.5340   12.0863  -16.0795 C   0  0  0  0  0  0  0  0  0  0  0  0
   36.5931   12.5839  -15.2135 N   0  0  0  0  0  0  0  0  0  0  0  0
   35.3932   12.1444  -15.5238 N   0  0  0  0  0  0  0  0  0  0  0  0
   35.4993   11.3599  -16.5805 C   0  0  0  0  0  0  0  0  0  0  0  0
   34.5726   10.7532  -17.1735 O   0  0  0  0  0  0  0  0  0  0  0  0
   36.8366   11.3331  -16.9141 N   0  0  0  0  0  0  0  0  0  0  0  0
   37.3429   10.5626  -18.0090 C   0  0  0  0  0  0  0  0  0  0  0  0
   41.6438   13.1339  -15.5628 C   0  0  0  0  0  0  0  0  0  0  0  0
   40.6721   13.5649  -14.6908 C   0  0  0  0  0  0  0  0  0  0  0  0
   39.3707   13.2047  -14.8854 C   0  0  0  0  0  0  0  0  0  0  0  0
   38.9559   12.3962  -15.9559 C   0  0  0  0  0  0  0  0  0  0  0  0
   39.9160   11.9654  -16.8259 C   0  0  0  0  0  0  0  0  0  0  0  0
   41.2540   12.3431  -16.6147 C   0  0  0  0  0  0  0  0  0  0  0  0
   42.1476   11.8674  -17.5322 F   0  0  0  0  0  0  0  0  0  0  0  0
   42.9442   13.4983  -15.3614 O   0  0  0  0  0  0  0  0  0  0  0  0
   43.6146   13.4407  -14.1386 C   0  0  0  0  0  0  0  0  0  0  0  0
   44.0903   14.8315  -13.8279 C   0  0  0  0  0  0  0  0  0  0  0  0
   43.4398   15.5588  -12.8526 C   0  0  0  0  0  0  0  0  0  0  0  0
   43.8928   16.8427  -12.5781 C   0  0  0  0  0  0  0  0  0  0  0  0
   44.9707   17.3903  -13.2605 C   0  0  0  0  0  0  0  0  0  0  0  0
   45.6176   16.6726  -14.2277 C   0  0  0  0  0  0  0  0  0  0  0  0
   46.6748   17.1462  -14.9308 F   0  0  0  0  0  0  0  0  0  0  0  0
   45.1568   15.3965  -14.4909 C   0  0  0  0  0  0  0  0  0  0  0  0
   34.1949   12.4901  -14.7944 C   0  0  0  0  0  0  0  0  0  0  0  0
   34.4189   12.7548  -13.3425 C   0  0  0  0  0  0  0  0  0  0  0  0
   34.3427   14.2168  -12.9692 C   0  0  0  0  0  0  0  0  0  0  0  0
   35.1268   14.5000  -11.8528 O   0  0  0  0  0  0  0  0  0  0  0  0
   36.5770   15.2169  -12.3299 P   0  0  0  0  0  0  0  0  0  0  0  0
   36.5897   16.6249  -11.7833 O   0  0  0  0  0  0  0  0  0  0  0  0
   36.5619   15.2660  -14.0358 O   0  0  0  0  0  0  0  0  0  0  0  0
   37.9093   14.3254  -11.8662 O   0  0  0  0  0  0  0  0  0  0  0  0
   36.1776   16.1470  -14.2788 H   0  0  0  0  0  0  0  0  0  0  0  0
   37.6989   13.3686  -11.7056 H   0  0  0  0  0  0  0  0  0  0  0  0
 17 16  1  0  0  0
 16 15  1  0  0  0
 15  8  1  0  0  0
  8  9  2  0  0  0
  9 10  1  0  0  0
 10 11  2  0  0  0
 11  1  1  0  0  0
  1  2  2  0  0  0
  2  3  1  0  0  0
  3 24  1  0  0  0
 24 25  1  0  0  0
 25 26  1  0  0  0
 26 27  1  0  0  0
 27 28  1  0  0  0
 28 29  2  0  0  0
 28 30  1  0  0  0
 28 31  1  0  0  0
  3  4  1  0  0  0
  4  5  2  0  0  0
  4  6  1  0  0  0
  6  7  1  0  0  0
 11 12  1  0  0  0
 12 13  2  0  0  0
 13 14  1  0  0  0
 17 18  2  0  0  0
 18 19  1  0  0  0
 19 20  2  0  0  0
 20 21  1  0  0  0
 21 22  1  0  0  0
 21 23  2  0  0  0
 23 17  1  0  0  0
 13  8  1  0  0  0
  6  1  1  0  0  0
 30 32  1  0  0  0
 31 33  1  0  0  0
M  END
> <minimizedAffinity>
-8.46796

> <CNNscore>
0.2548253238

> <CNNaffinity>
6.1062755585

> <CNN_VS>
1.5560336113

> <CNNaffinity_variance>
0.1096955314

$$$$
[H]OP(=O)(O[H])OC([H])([H])C([H])([H])C([H])([H])n1nc(-c2c([H])c([H])c(OC([H])([H])c3c([H])c([H])c([H])c(F)c3[H])c(F)c2[H])n(C([H])([H])[H])c1=O


 33 35  0  0  0  0  0  0  0  0999 V2000
   37.2344   12.4745  -15.5374 C   0  0  0  0  0  0  0  0  0  0  0  0
   36.4355   12.9854  -14.5457 N   0  0  0  0  0  0  0  0  0  0  0  0
   35.2004   12.5514  -14.6701 N   0  0  0  0  0  0  0  0  0  0  0  0
   35.1440   11.7577  -15.7238 C   0  0  0  0  0  0  0  0  0  0  0  0
   34.1361   11.1524  -16.1670 O   0  0  0  0  0  0  0  0  0  0  0  0
   36.4166   11.7193  -16.2523 N   0  0  0  0  0  0  0  0  0  0  0  0
   36.7502   10.9366  -17.4033 C   0  0  0  0  0  0  0  0  0  0  0  0
   41.4216   13.2094  -15.9637 C   0  0  0  0  0  0  0  0  0  0  0  0
   40.7281   12.4333  -16.8621 C   0  0  0  0  0  0  0  0  0  0  0  0
   39.3899   12.2260  -16.6958 C   0  0  0  0  0  0  0  0  0  0  0  0
   38.6605   12.7758  -15.6293 C   0  0  0  0  0  0  0  0  0  0  0  0
   39.3436   13.5472  -14.7334 C   0  0  0  0  0  0  0  0  0  0  0  0
   40.7226   13.7537  -14.9154 C   0  0  0  0  0  0  0  0  0  0  0  0
   41.3257   14.5379  -13.9731 F   0  0  0  0  0  0  0  0  0  0  0  0
   42.7607   13.4127  -16.1368 O   0  0  0  0  0  0  0  0  0  0  0  0
   43.7718   12.6769  -15.5169 C   0  0  0  0  0  0  0  0  0  0  0  0
   44.3536   13.5450  -14.4374 C   0  0  0  0  0  0  0  0  0  0  0  0
   45.0636   14.6724  -14.7956 C   0  0  0  0  0  0  0  0  0  0  0  0
   45.5944   15.4635  -13.7849 C   0  0  0  0  0  0  0  0  0  0  0  0
   45.4216   15.1385  -12.4463 C   0  0  0  0  0  0  0  0  0  0  0  0
   44.7187   14.0220  -12.0877 C   0  0  0  0  0  0  0  0  0  0  0  0
   44.5129   13.6475  -10.8018 F   0  0  0  0  0  0  0  0  0  0  0  0
   44.1959   13.2437  -13.1030 C   0  0  0  0  0  0  0  0  0  0  0  0
   34.1258   12.9109  -13.7738 C   0  0  0  0  0  0  0  0  0  0  0  0
   34.0448   14.3706  -13.4723 C   0  0  0  0  0  0  0  0  0  0  0  0
   33.1347   14.7057  -12.3139 C   0  0  0  0  0  0  0  0  0  0  0  0
   31.9383   13.9948  -12.3826 O   0  0  0  0  0  0  0  0  0  0  0  0
   30.7695   14.7326  -11.4162 P   0  0  0  0  0  0  0  0  0  0  0  0
   31.3361   16.0504  -10.9432 O   0  0  0  0  0  0  0  0  0  0  0  0
   30.5198   13.7041  -10.0772 O   0  0  0  0  0  0  0  0  0  0  0  0
   29.3063   14.8963  -12.2018 O   0  0  0  0  0  0  0  0  0  0  0  0
   31.1403   14.0210   -9.3719 H   0  0  0  0  0  0  0  0  0  0  0  0
   29.1951   14.2557  -12.9519 H   0  0  0  0  0  0  0  0  0  0  0  0
 17 16  1  0  0  0
 16 15  1  0  0  0
 15  8  1  0  0  0
  8  9  2  0  0  0
  9 10  1  0  0  0
 10 11  2  0  0  0
 11  1  1  0  0  0
  1  2  2  0  0  0
  2  3  1  0  0  0
  3 24  1  0  0  0
 24 25  1  0  0  0
 25 26  1  0  0  0
 26 27  1  0  0  0
 27 28  1  0  0  0
 28 29  2  0  0  0
 28 30  1  0  0  0
 28 31  1  0  0  0
  3  4  1  0  0  0
  4  5  2  0  0  0
  4  6  1  0  0  0
  6  7  1  0  0  0
 11 12  1  0  0  0
 12 13  2  0  0  0
 13 14  1  0  0  0
 17 18  2  0  0  0
 18 19  1  0  0  0
 19 20  2  0  0  0
 20 21  1  0  0  0
 21 22  1  0  0  0
 21 23  2  0  0  0
 23 17  1  0  0  0
 13  8  1  0  0  0
  6  1  1  0  0  0
 30 32  1  0  0  0
 31 33  1  0  0  0
M  END
> <minimizedAffinity>
-7.96354

> <CNNscore>
0.2428146601

> <CNNaffinity>
6.4967966080

> <CNN_VS>
1.5775175095

> <CNNaffinity_variance>
0.1988510191

$$$$
[H]OP(=O)(O[H])OC([H])([H])C([H])([H])C([H])([H])n1nc(-c2c([H])c([H])c(OC([H])([H])c3c([H])c([H])c([H])c(F)c3[H])c(F)c2[H])n(C([H])([H])[H])c1=O


 33 35  0  0  0  0  0  0  0  0999 V2000
   37.4313   11.9740  -16.1204 C   0  0  0  0  0  0  0  0  0  0  0  0
   36.5024   12.4236  -15.2160 N   0  0  0  0  0  0  0  0  0  0  0  0
   35.3099   11.9434  -15.4926 N   0  0  0  0  0  0  0  0  0  0  0  0
   35.4093   11.1783  -16.5641 C   0  0  0  0  0  0  0  0  0  0  0  0
   34.4862   10.5453  -17.1350 O   0  0  0  0  0  0  0  0  0  0  0  0
   36.7345   11.2067  -16.9426 N   0  0  0  0  0  0  0  0  0  0  0  0
   37.2317   10.4713  -18.0654 C   0  0  0  0  0  0  0  0  0  0  0  0
   41.5121   13.1801  -15.7367 C   0  0  0  0  0  0  0  0  0  0  0  0
   40.5406   13.6296  -14.8739 C   0  0  0  0  0  0  0  0  0  0  0  0
   39.2488   13.2175  -15.0248 C   0  0  0  0  0  0  0  0  0  0  0  0
   38.8440   12.3356  -16.0397 C   0  0  0  0  0  0  0  0  0  0  0  0
   39.8040   11.8860  -16.9002 C   0  0  0  0  0  0  0  0  0  0  0  0
   41.1320   12.3176  -16.7345 C   0  0  0  0  0  0  0  0  0  0  0  0
   42.0263   11.8184  -17.6387 F   0  0  0  0  0  0  0  0  0  0  0  0
   42.8028   13.5966  -15.5793 O   0  0  0  0  0  0  0  0  0  0  0  0
   43.6287   13.2651  -14.5041 C   0  0  0  0  0  0  0  0  0  0  0  0
   43.9496   14.5424  -13.7811 C   0  0  0  0  0  0  0  0  0  0  0  0
   45.0166   15.3043  -14.2107 C   0  0  0  0  0  0  0  0  0  0  0  0
   45.2991   16.4821  -13.5309 C   0  0  0  0  0  0  0  0  0  0  0  0
   44.5350   16.8921  -12.4467 C   0  0  0  0  0  0  0  0  0  0  0  0
   43.4770   16.1396  -12.0183 C   0  0  0  0  0  0  0  0  0  0  0  0
   42.6913   16.4812  -10.9685 F   0  0  0  0  0  0  0  0  0  0  0  0
   43.2068   14.9702  -12.7034 C   0  0  0  0  0  0  0  0  0  0  0  0
   34.1250   12.2333  -14.7184 C   0  0  0  0  0  0  0  0  0  0  0  0
   34.4034   12.7069  -13.3305 C   0  0  0  0  0  0  0  0  0  0  0  0
   33.9738   14.1324  -13.0736 C   0  0  0  0  0  0  0  0  0  0  0  0
   34.6519   14.6820  -11.9876 O   0  0  0  0  0  0  0  0  0  0  0  0
   36.1573   15.2631  -12.4782 P   0  0  0  0  0  0  0  0  0  0  0  0
   37.2124   14.4704  -11.7436 O   0  0  0  0  0  0  0  0  0  0  0  0
   36.2323   16.8987  -11.9965 O   0  0  0  0  0  0  0  0  0  0  0  0
   36.3456   15.2200  -14.1358 O   0  0  0  0  0  0  0  0  0  0  0  0
   36.6516   16.8983  -11.0981 H   0  0  0  0  0  0  0  0  0  0  0  0
   35.4813   15.2092  -14.6241 H   0  0  0  0  0  0  0  0  0  0  0  0
 17 16  1  0  0  0
 16 15  1  0  0  0
 15  8  1  0  0  0
  8  9  2  0  0  0
  9 10  1  0  0  0
 10 11  2  0  0  0
 11  1  1  0  0  0
  1  2  2  0  0  0
  2  3  1  0  0  0
  3 24  1  0  0  0
 24 25  1  0  0  0
 25 26  1  0  0  0
 26 27  1  0  0  0
 27 28  1  0  0  0
 28 29  2  0  0  0
 28 30  1  0  0  0
 28 31  1  0  0  0
  3  4  1  0  0  0
  4  5  2  0  0  0
  4  6  1  0  0  0
  6  7  1  0  0  0
 11 12  1  0  0  0
 12 13  2  0  0  0
 13 14  1  0  0  0
 17 18  2  0  0  0
 18 19  1  0  0  0
 19 20  2  0  0  0
 20 21  1  0  0  0
 21 22  1  0  0  0
 21 23  2  0  0  0
 23 17  1  0  0  0
 13  8  1  0  0  0
  6  1  1  0  0  0
 30 32  1  0  0  0
 31 33  1  0  0  0
M  END
> <minimizedAffinity>
-8.44483

> <CNNscore>
0.2141125798

> <CNNaffinity>
6.2255897522

> <CNN_VS>
1.3329770565

> <CNNaffinity_variance>
0.0802789479

$$$$
[H]c1nc(N([H])c2c([H])c([H])c(N3C([H])([H])C([H])([H])N(C([H])([H])[H])C([H])([H])C3([H])[H])c([H])c2[H])nc(N([H])c2c([H])c([H])c(C([H])([H])[H])c(N3C([H])([H])C([H])([H])N(C([H])([H])[H])C([H])([H])C3([H])[H])c2[H])n1


 37 41  0  0  0  0  0  0  0  0999 V2000
   38.2154   10.7625  -18.5811 N   0  0  0  0  0  0  0  0  0  0  0  0
   38.1876   11.1903  -17.3200 C   0  0  0  0  0  0  0  0  0  0  0  0
   39.3106   11.7686  -16.8485 N   0  0  0  0  0  0  0  0  0  0  0  0
   40.4476   11.9366  -17.5729 C   0  0  0  0  0  0  0  0  0  0  0  0
   40.4044   11.4868  -18.8222 N   0  0  0  0  0  0  0  0  0  0  0  0
   39.3121   10.9064  -19.3326 C   0  0  0  0  0  0  0  0  0  0  0  0
   37.0943   11.0871  -16.4603 N   0  0  0  0  0  0  0  0  0  0  0  0
   36.4629   10.2409  -16.5995 H   0  0  0  0  0  0  0  0  0  0  0  0
   36.8022   12.0246  -15.4437 C   0  0  0  0  0  0  0  0  0  0  0  0
   37.5289   11.8509  -14.2489 C   0  0  0  0  0  0  0  0  0  0  0  0
   37.3435   12.7214  -13.2071 C   0  0  0  0  0  0  0  0  0  0  0  0
   36.4658   13.7842  -13.2600 C   0  0  0  0  0  0  0  0  0  0  0  0
   35.7581   13.9521  -14.4264 C   0  0  0  0  0  0  0  0  0  0  0  0
   35.9297   13.0734  -15.5105 C   0  0  0  0  0  0  0  0  0  0  0  0
   36.2952   14.6705  -12.1726 N   0  0  0  0  0  0  0  0  0  0  0  0
   34.9729   15.2329  -11.9041 C   0  0  0  0  0  0  0  0  0  0  0  0
   34.8357   15.7334  -10.4953 C   0  0  0  0  0  0  0  0  0  0  0  0
   35.8689   16.6289  -10.0942 N   0  0  0  0  0  0  0  0  0  0  0  0
   35.9634   16.8224   -8.6796 C   0  0  0  0  0  0  0  0  0  0  0  0
   37.1197   16.4810  -10.7557 C   0  0  0  0  0  0  0  0  0  0  0  0
   37.3554   15.0643  -11.3001 C   0  0  0  0  0  0  0  0  0  0  0  0
   41.5228   12.5404  -16.9145 N   0  0  0  0  0  0  0  0  0  0  0  0
   42.4971   12.4199  -17.3133 H   0  0  0  0  0  0  0  0  0  0  0  0
   41.4337   13.3137  -15.7337 C   0  0  0  0  0  0  0  0  0  0  0  0
   42.5270   13.3439  -14.8816 C   0  0  0  0  0  0  0  0  0  0  0  0
   42.5251   14.0657  -13.6766 C   0  0  0  0  0  0  0  0  0  0  0  0
   41.4287   14.7798  -13.2893 C   0  0  0  0  0  0  0  0  0  0  0  0
   41.3132   15.6127  -12.0599 C   0  0  0  0  0  0  0  0  0  0  0  0
   40.3264   14.7459  -14.1515 C   0  0  0  0  0  0  0  0  0  0  0  0
   40.3412   14.0332  -15.3298 C   0  0  0  0  0  0  0  0  0  0  0  0
   43.6721   14.0050  -12.8494 N   0  0  0  0  0  0  0  0  0  0  0  0
   44.7456   14.9753  -13.2035 C   0  0  0  0  0  0  0  0  0  0  0  0
   45.5140   15.2552  -11.9136 C   0  0  0  0  0  0  0  0  0  0  0  0
   46.2269   14.0583  -11.5773 N   0  0  0  0  0  0  0  0  0  0  0  0
   47.3868   13.9320  -12.4370 C   0  0  0  0  0  0  0  0  0  0  0  0
   45.4635   12.8558  -11.6568 C   0  0  0  0  0  0  0  0  0  0  0  0
   43.9463   13.1200  -11.7718 C   0  0  0  0  0  0  0  0  0  0  0  0
  1  2  2  0  0  0
  2  7  1  0  0  0
  7  9  1  0  0  0
  9 10  2  0  0  0
 10 11  1  0  0  0
 11 12  2  0  0  0
 12 15  1  0  0  0
 15 16  1  0  0  0
 16 17  1  0  0  0
 17 18  1  0  0  0
 18 19  1  0  0  0
 18 20  1  0  0  0
 20 21  1  0  0  0
 12 13  1  0  0  0
 13 14  2  0  0  0
  2  3  1  0  0  0
  3  4  2  0  0  0
  4 22  1  0  0  0
 22 24  1  0  0  0
 24 25  2  0  0  0
 25 26  1  0  0  0
 26 31  1  0  0  0
 31 32  1  0  0  0
 32 33  1  0  0  0
 33 34  1  0  0  0
 34 35  1  0  0  0
 34 36  1  0  0  0
 36 37  1  0  0  0
 26 27  2  0  0  0
 27 28  1  0  0  0
 27 29  1  0  0  0
 29 30  2  0  0  0
  4  5  1  0  0  0
  5  6  2  0  0  0
  6  1  1  0  0  0
 14  9  1  0  0  0
 30 24  1  0  0  0
 21 15  1  0  0  0
 37 31  1  0  0  0
  7  8  1  0  0  0
 22 23  1  0  0  0
M  END
> <minimizedAffinity>
-9.41657

> <CNNscore>
0.9273511171

> <CNNaffinity>
7.8840246201

> <CNN_VS>
7.3112592697

> <CNNaffinity_variance>
0.0554800518

$$$$
[H]c1nc(N([H])c2c([H])c([H])c(N3C([H])([H])C([H])([H])N(C([H])([H])[H])C([H])([H])C3([H])[H])c([H])c2[H])nc(N([H])c2c([H])c([H])c(C([H])([H])[H])c(N3C([H])([H])C([H])([H])N(C([H])([H])[H])C([H])([H])C3([H])[H])c2[H])n1


 37 41  0  0  0  0  0  0  0  0999 V2000
   38.8660   10.7675  -18.6978 N   0  0  0  0  0  0  0  0  0  0  0  0
   38.5028   11.1810  -17.4848 C   0  0  0  0  0  0  0  0  0  0  0  0
   39.3161   12.0665  -16.8746 N   0  0  0  0  0  0  0  0  0  0  0  0
   40.4636   12.5518  -17.4164 C   0  0  0  0  0  0  0  0  0  0  0  0
   40.7641   12.0967  -18.6278 N   0  0  0  0  0  0  0  0  0  0  0  0
   39.9869   11.2178  -19.2713 C   0  0  0  0  0  0  0  0  0  0  0  0
   37.3550   10.7718  -16.8065 N   0  0  0  0  0  0  0  0  0  0  0  0
   36.9962    9.7949  -17.0328 H   0  0  0  0  0  0  0  0  0  0  0  0
   36.6740   11.5706  -15.8601 C   0  0  0  0  0  0  0  0  0  0  0  0
   35.2841   11.6805  -16.0659 C   0  0  0  0  0  0  0  0  0  0  0  0
   34.5223   12.4094  -15.1907 C   0  0  0  0  0  0  0  0  0  0  0  0
   35.0483   13.0580  -14.0929 C   0  0  0  0  0  0  0  0  0  0  0  0
   36.4040   12.9494  -13.8937 C   0  0  0  0  0  0  0  0  0  0  0  0
   37.2086   12.2074  -14.7764 C   0  0  0  0  0  0  0  0  0  0  0  0
   34.2403   13.8009  -13.2027 N   0  0  0  0  0  0  0  0  0  0  0  0
   34.8440   14.4009  -12.0143 C   0  0  0  0  0  0  0  0  0  0  0  0
   34.0190   15.5233  -11.4541 C   0  0  0  0  0  0  0  0  0  0  0  0
   32.6548   15.1823  -11.2242 N   0  0  0  0  0  0  0  0  0  0  0  0
   31.7890   16.3076  -11.0465 C   0  0  0  0  0  0  0  0  0  0  0  0
   32.1200   14.1478  -12.0413 C   0  0  0  0  0  0  0  0  0  0  0  0
   32.8394   14.0062  -13.3909 C   0  0  0  0  0  0  0  0  0  0  0  0
   41.1927   13.4496  -16.6313 N   0  0  0  0  0  0  0  0  0  0  0  0
   40.7982   14.4192  -16.4665 H   0  0  0  0  0  0  0  0  0  0  0  0
   42.4412   13.1829  -16.0229 C   0  0  0  0  0  0  0  0  0  0  0  0
   42.6602   13.6496  -14.7358 C   0  0  0  0  0  0  0  0  0  0  0  0
   43.8746   13.4526  -14.0578 C   0  0  0  0  0  0  0  0  0  0  0  0
   44.9057   12.7813  -14.6482 C   0  0  0  0  0  0  0  0  0  0  0  0
   46.2238   12.4750  -14.0260 C   0  0  0  0  0  0  0  0  0  0  0  0
   44.6813   12.3129  -15.9481 C   0  0  0  0  0  0  0  0  0  0  0  0
   43.4860   12.5138  -16.6018 C   0  0  0  0  0  0  0  0  0  0  0  0
   44.0227   14.0008  -12.7613 N   0  0  0  0  0  0  0  0  0  0  0  0
   44.4655   15.4230  -12.7350 C   0  0  0  0  0  0  0  0  0  0  0  0
   43.9270   16.0163  -11.4347 C   0  0  0  0  0  0  0  0  0  0  0  0
   44.6530   15.4080  -10.3591 N   0  0  0  0  0  0  0  0  0  0  0  0
   45.9739   15.9986  -10.2762 C   0  0  0  0  0  0  0  0  0  0  0  0
   44.7885   13.9905  -10.4450 C   0  0  0  0  0  0  0  0  0  0  0  0
   43.8517   13.3655  -11.5017 C   0  0  0  0  0  0  0  0  0  0  0  0
  1  2  2  0  0  0
  2  7  1  0  0  0
  7  9  1  0  0  0
  9 10  2  0  0  0
 10 11  1  0  0  0
 11 12  2  0  0  0
 12 15  1  0  0  0
 15 16  1  0  0  0
 16 17  1  0  0  0
 17 18  1  0  0  0
 18 19  1  0  0  0
 18 20  1  0  0  0
 20 21  1  0  0  0
 12 13  1  0  0  0
 13 14  2  0  0  0
  2  3  1  0  0  0
  3  4  2  0  0  0
  4 22  1  0  0  0
 22 24  1  0  0  0
 24 25  2  0  0  0
 25 26  1  0  0  0
 26 31  1  0  0  0
 31 32  1  0  0  0
 32 33  1  0  0  0
 33 34  1  0  0  0
 34 35  1  0  0  0
 34 36  1  0  0  0
 36 37  1  0  0  0
 26 27  2  0  0  0
 27 28  1  0  0  0
 27 29  1  0  0  0
 29 30  2  0  0  0
  4  5  1  0  0  0
  5  6  2  0  0  0
  6  1  1  0  0  0
 14  9  1  0  0  0
 30 24  1  0  0  0
 21 15  1  0  0  0
 37 31  1  0  0  0
  7  8  1  0  0  0
 22 23  1  0  0  0
M  END
> <minimizedAffinity>
-7.82931

> <CNNscore>
0.8502332568

> <CNNaffinity>
7.7936201096

> <CNN_VS>
6.6263952255

> <CNNaffinity_variance>
0.1023323312

$$$$
[H]c1nc(N([H])c2c([H])c([H])c(N3C([H])([H])C([H])([H])N(C([H])([H])[H])C([H])([H])C3([H])[H])c([H])c2[H])nc(N([H])c2c([H])c([H])c(C([H])([H])[H])c(N3C([H])([H])C([H])([H])N(C([H])([H])[H])C([H])([H])C3([H])[H])c2[H])n1


 37 41  0  0  0  0  0  0  0  0999 V2000
   39.8319   11.7096  -19.8410 N   0  0  0  0  0  0  0  0  0  0  0  0
   40.0666   11.5087  -18.5453 C   0  0  0  0  0  0  0  0  0  0  0  0
   39.0627   10.9753  -17.8204 N   0  0  0  0  0  0  0  0  0  0  0  0
   37.8481   10.6374  -18.3267 C   0  0  0  0  0  0  0  0  0  0  0  0
   37.6838   10.8649  -19.6253 N   0  0  0  0  0  0  0  0  0  0  0  0
   38.6517   11.3923  -20.3839 C   0  0  0  0  0  0  0  0  0  0  0  0
   41.2615   11.8045  -17.8897 N   0  0  0  0  0  0  0  0  0  0  0  0
   42.1547   11.4692  -18.3628 H   0  0  0  0  0  0  0  0  0  0  0  0
   41.3339   12.5107  -16.6676 C   0  0  0  0  0  0  0  0  0  0  0  0
   42.6308   12.6372  -16.1307 C   0  0  0  0  0  0  0  0  0  0  0  0
   42.8189   13.3274  -14.9620 C   0  0  0  0  0  0  0  0  0  0  0  0
   41.7885   13.9205  -14.2626 C   0  0  0  0  0  0  0  0  0  0  0  0
   40.5244   13.7963  -14.7881 C   0  0  0  0  0  0  0  0  0  0  0  0
   40.3039   13.0937  -15.9859 C   0  0  0  0  0  0  0  0  0  0  0  0
   42.0093   14.6305  -13.0608 N   0  0  0  0  0  0  0  0  0  0  0  0
   41.0980   15.7103  -12.6860 C   0  0  0  0  0  0  0  0  0  0  0  0
   41.1524   16.0260  -11.2192 C   0  0  0  0  0  0  0  0  0  0  0  0
   42.4674   16.2651  -10.7252 N   0  0  0  0  0  0  0  0  0  0  0  0
   42.5808   16.2029   -9.3002 C   0  0  0  0  0  0  0  0  0  0  0  0
   43.5279   15.6319  -11.4311 C   0  0  0  0  0  0  0  0  0  0  0  0
   43.0911   14.3576  -12.1690 C   0  0  0  0  0  0  0  0  0  0  0  0
   36.9197   10.1133  -17.4227 N   0  0  0  0  0  0  0  0  0  0  0  0
   36.8840    9.0639  -17.2800 H   0  0  0  0  0  0  0  0  0  0  0  0
   35.9961   10.8683  -16.6630 C   0  0  0  0  0  0  0  0  0  0  0  0
   36.4891   11.8109  -15.7737 C   0  0  0  0  0  0  0  0  0  0  0  0
   35.6514   12.5930  -14.9615 C   0  0  0  0  0  0  0  0  0  0  0  0
   34.2948   12.4553  -15.0163 C   0  0  0  0  0  0  0  0  0  0  0  0
   33.3004   13.2458  -14.2387 C   0  0  0  0  0  0  0  0  0  0  0  0
   33.8010   11.5017  -15.9142 C   0  0  0  0  0  0  0  0  0  0  0  0
   34.6337   10.7407  -16.7042 C   0  0  0  0  0  0  0  0  0  0  0  0
   36.2453   13.5013  -14.0528 N   0  0  0  0  0  0  0  0  0  0  0  0
   36.7758   12.8775  -12.8083 C   0  0  0  0  0  0  0  0  0  0  0  0
   37.9100   13.7795  -12.3257 C   0  0  0  0  0  0  0  0  0  0  0  0
   37.3153   15.0024  -11.8733 N   0  0  0  0  0  0  0  0  0  0  0  0
   36.7084   14.7900  -10.5745 C   0  0  0  0  0  0  0  0  0  0  0  0
   36.3390   15.5620  -12.7502 C   0  0  0  0  0  0  0  0  0  0  0  0
   36.3567   14.9145  -14.1521 C   0  0  0  0  0  0  0  0  0  0  0  0
  1  2  2  0  0  0
  2  7  1  0  0  0
  7  9  1  0  0  0
  9 10  2  0  0  0
 10 11  1  0  0  0
 11 12  2  0  0  0
 12 15  1  0  0  0
 15 16  1  0  0  0
 16 17  1  0  0  0
 17 18  1  0  0  0
 18 19  1  0  0  0
 18 20  1  0  0  0
 20 21  1  0  0  0
 12 13  1  0  0  0
 13 14  2  0  0  0
  2  3  1  0  0  0
  3  4  2  0  0  0
  4 22  1  0  0  0
 22 24  1  0  0  0
 24 25  2  0  0  0
 25 26  1  0  0  0
 26 31  1  0  0  0
 31 32  1  0  0  0
 32 33  1  0  0  0
 33 34  1  0  0  0
 34 35  1  0  0  0
 34 36  1  0  0  0
 36 37  1  0  0  0
 26 27  2  0  0  0
 27 28  1  0  0  0
 27 29  1  0  0  0
 29 30  2  0  0  0
  4  5  1  0  0  0
  5  6  2  0  0  0
  6  1  1  0  0  0
 14  9  1  0  0  0
 30 24  1  0  0  0
 21 15  1  0  0  0
 37 31  1  0  0  0
  7  8  1  0  0  0
 22 23  1  0  0  0
M  END
> <minimizedAffinity>
-9.50624

> <CNNscore>
0.8397091031

> <CNNaffinity>
8.1471424103

> <CNN_VS>
6.8412294388

> <CNNaffinity_variance>
0.0304791536

$$$$
[H]c1nc(N([H])c2c([H])c([H])c(N3C([H])([H])C([H])([H])N(C([H])([H])[H])C([H])([H])C3([H])[H])c([H])c2[H])nc(N([H])c2c([H])c([H])c(C([H])([H])[H])c(N3C([H])([H])C([H])([H])N(C([H])([H])[H])C([H])([H])C3([H])[H])c2[H])n1


 37 41  0  0  0  0  0  0  0  0999 V2000
   38.5855   10.7822  -18.0105 N   0  0  0  0  0  0  0  0  0  0  0  0
   38.3355   11.5685  -16.9648 C   0  0  0  0  0  0  0  0  0  0  0  0
   39.2993   12.4453  -16.6182 N   0  0  0  0  0  0  0  0  0  0  0  0
   40.4888   12.5700  -17.2626 C   0  0  0  0  0  0  0  0  0  0  0  0
   40.6705   11.7548  -18.2958 N   0  0  0  0  0  0  0  0  0  0  0  0
   39.7423   10.8692  -18.6758 C   0  0  0  0  0  0  0  0  0  0  0  0
   37.1625   11.5538  -16.2105 N   0  0  0  0  0  0  0  0  0  0  0  0
   36.4297   10.8341  -16.4918 H   0  0  0  0  0  0  0  0  0  0  0  0
   36.9162   12.4218  -15.1226 C   0  0  0  0  0  0  0  0  0  0  0  0
   37.4454   11.9927  -13.8889 C   0  0  0  0  0  0  0  0  0  0  0  0
   37.2883   12.7725  -12.7731 C   0  0  0  0  0  0  0  0  0  0  0  0
   36.6265   13.9827  -12.7864 C   0  0  0  0  0  0  0  0  0  0  0  0
   36.1115   14.3996  -13.9907 C   0  0  0  0  0  0  0  0  0  0  0  0
   36.2589   13.6187  -15.1507 C   0  0  0  0  0  0  0  0  0  0  0  0
   36.4811   14.7704  -11.6222 N   0  0  0  0  0  0  0  0  0  0  0  0
   37.6382   14.9965  -10.7580 C   0  0  0  0  0  0  0  0  0  0  0  0
   37.4714   16.2002   -9.8763 C   0  0  0  0  0  0  0  0  0  0  0  0
   36.2588   16.2083   -9.1282 N   0  0  0  0  0  0  0  0  0  0  0  0
   35.9142   17.4843   -8.5799 C   0  0  0  0  0  0  0  0  0  0  0  0
   35.1668   15.4937   -9.6948 C   0  0  0  0  0  0  0  0  0  0  0  0
   35.2483   15.3718  -11.2237 C   0  0  0  0  0  0  0  0  0  0  0  0
   41.3777   13.5205  -16.7523 N   0  0  0  0  0  0  0  0  0  0  0  0
   41.1467   14.5481  -16.8682 H   0  0  0  0  0  0  0  0  0  0  0  0
   42.5899   13.2352  -16.0819 C   0  0  0  0  0  0  0  0  0  0  0  0
   42.7276   13.6474  -14.7652 C   0  0  0  0  0  0  0  0  0  0  0  0
   43.9010   13.4286  -14.0246 C   0  0  0  0  0  0  0  0  0  0  0  0
   44.9711   12.7895  -14.5799 C   0  0  0  0  0  0  0  0  0  0  0  0
   46.2523   12.4645  -13.8933 C   0  0  0  0  0  0  0  0  0  0  0  0
   44.8288   12.3760  -15.9097 C   0  0  0  0  0  0  0  0  0  0  0  0
   43.6730   12.5978  -16.6249 C   0  0  0  0  0  0  0  0  0  0  0  0
   43.9667   13.9215  -12.6994 N   0  0  0  0  0  0  0  0  0  0  0  0
   44.2381   15.3824  -12.5926 C   0  0  0  0  0  0  0  0  0  0  0  0
   43.6167   15.8393  -11.2742 C   0  0  0  0  0  0  0  0  0  0  0  0
   44.3956   15.2646  -10.2174 N   0  0  0  0  0  0  0  0  0  0  0  0
   45.6363   16.0009  -10.0797 C   0  0  0  0  0  0  0  0  0  0  0  0
   44.6986   13.8793  -10.3725 C   0  0  0  0  0  0  0  0  0  0  0  0
   43.8558   13.2052  -11.4770 C   0  0  0  0  0  0  0  0  0  0  0  0
  1  2  2  0  0  0
  2  7  1  0  0  0
  7  9  1  0  0  0
  9 10  2  0  0  0
 10 11  1  0  0  0
 11 12  2  0  0  0
 12 15  1  0  0  0
 15 16  1  0  0  0
 16 17  1  0  0  0
 17 18  1  0  0  0
 18 19  1  0  0  0
 18 20  1  0  0  0
 20 21  1  0  0  0
 12 13  1  0  0  0
 13 14  2  0  0  0
  2  3  1  0  0  0
  3  4  2  0  0  0
  4 22  1  0  0  0
 22 24  1  0  0  0
 24 25  2  0  0  0
 25 26  1  0  0  0
 26 31  1  0  0  0
 31 32  1  0  0  0
 32 33  1  0  0  0
 33 34  1  0  0  0
 34 35  1  0  0  0
 34 36  1  0  0  0
 36 37  1  0  0  0
 26 27  2  0  0  0
 27 28  1  0  0  0
 27 29  1  0  0  0
 29 30  2  0  0  0
  4  5  1  0  0  0
  5  6  2  0  0  0
  6  1  1  0  0  0
 14  9  1  0  0  0
 30 24  1  0  0  0
 21 15  1  0  0  0
 37 31  1  0  0  0
  7  8  1  0  0  0
 22 23  1  0  0  0
M  END
> <minimizedAffinity>
-8.58064

> <CNNscore>
0.7730364799

> <CNNaffinity>
7.5360460281

> <CNN_VS>
5.8256382942

> <CNNaffinity_variance>
0.0080626002

$$$$
[H]c1nc(N([H])c2c([H])c([H])c(N3C([H])([H])C([H])([H])N(C([H])([H])[H])C([H])([H])C3([H])[H])c([H])c2[H])nc(N([H])c2c([H])c([H])c(C([H])([H])[H])c(N3C([H])([H])C([H])([H])N(C([H])([H])[H])C([H])([H])C3([H])[H])c2[H])n1


 37 41  0  0  0  0  0  0  0  0999 V2000
   39.4703   11.5579  -17.9778 N   0  0  0  0  0  0  0  0  0  0  0  0
   40.1519   12.1547  -17.0014 C   0  0  0  0  0  0  0  0  0  0  0  0
   39.5528   12.2247  -15.7956 N   0  0  0  0  0  0  0  0  0  0  0  0
   38.3166   11.7304  -15.5248 C   0  0  0  0  0  0  0  0  0  0  0  0
   37.6947   11.1486  -16.5445 N   0  0  0  0  0  0  0  0  0  0  0  0
   38.2503   11.0561  -17.7582 C   0  0  0  0  0  0  0  0  0  0  0  0
   41.4265   12.7056  -17.1316 N   0  0  0  0  0  0  0  0  0  0  0  0
   41.7282   12.9689  -18.1184 H   0  0  0  0  0  0  0  0  0  0  0  0
   42.3028   12.9256  -16.0447 C   0  0  0  0  0  0  0  0  0  0  0  0
   43.6574   12.6377  -16.3062 C   0  0  0  0  0  0  0  0  0  0  0  0
   44.5970   12.8416  -15.3299 C   0  0  0  0  0  0  0  0  0  0  0  0
   44.2879   13.3242  -14.0753 C   0  0  0  0  0  0  0  0  0  0  0  0
   42.9662   13.6049  -13.8224 C   0  0  0  0  0  0  0  0  0  0  0  0
   41.9822   13.4049  -14.8065 C   0  0  0  0  0  0  0  0  0  0  0  0
   45.2764   13.5295  -13.0865 N   0  0  0  0  0  0  0  0  0  0  0  0
   45.4951   14.8743  -12.5568 C   0  0  0  0  0  0  0  0  0  0  0  0
   46.1868   14.8625  -11.2244 C   0  0  0  0  0  0  0  0  0  0  0  0
   47.3880   14.0966  -11.2006 N   0  0  0  0  0  0  0  0  0  0  0  0
   47.8541   13.7738   -9.8868 C   0  0  0  0  0  0  0  0  0  0  0  0
   47.4698   13.0280  -12.1362 C   0  0  0  0  0  0  0  0  0  0  0  0
   46.0969   12.4853  -12.5604 C   0  0  0  0  0  0  0  0  0  0  0  0
   37.8453   11.9097  -14.2211 N   0  0  0  0  0  0  0  0  0  0  0  0
   38.4318   11.5533  -13.4137 H   0  0  0  0  0  0  0  0  0  0  0  0
   36.6268   12.5339  -13.8665 C   0  0  0  0  0  0  0  0  0  0  0  0
   36.6535   13.5342  -12.9067 C   0  0  0  0  0  0  0  0  0  0  0  0
   35.4928   14.1967  -12.4744 C   0  0  0  0  0  0  0  0  0  0  0  0
   34.2706   13.8782  -12.9911 C   0  0  0  0  0  0  0  0  0  0  0  0
   32.9756   14.5281  -12.6462 C   0  0  0  0  0  0  0  0  0  0  0  0
   34.2474   12.8670  -13.9589 C   0  0  0  0  0  0  0  0  0  0  0  0
   35.3931   12.2247  -14.3731 C   0  0  0  0  0  0  0  0  0  0  0  0
   35.6108   15.1764  -11.4597 N   0  0  0  0  0  0  0  0  0  0  0  0
   37.0003   15.6568  -11.2185 C   0  0  0  0  0  0  0  0  0  0  0  0
   36.8746   17.0777  -10.6723 C   0  0  0  0  0  0  0  0  0  0  0  0
   36.3102   16.9780   -9.3588 N   0  0  0  0  0  0  0  0  0  0  0  0
   37.3299   16.5330   -8.4300 C   0  0  0  0  0  0  0  0  0  0  0  0
   35.1804   16.1138   -9.2488 C   0  0  0  0  0  0  0  0  0  0  0  0
   34.5977   15.7175  -10.6229 C   0  0  0  0  0  0  0  0  0  0  0  0
  1  2  2  0  0  0
  2  7  1  0  0  0
  7  9  1  0  0  0
  9 10  2  0  0  0
 10 11  1  0  0  0
 11 12  2  0  0  0
 12 15  1  0  0  0
 15 16  1  0  0  0
 16 17  1  0  0  0
 17 18  1  0  0  0
 18 19  1  0  0  0
 18 20  1  0  0  0
 20 21  1  0  0  0
 12 13  1  0  0  0
 13 14  2  0  0  0
  2  3  1  0  0  0
  3  4  2  0  0  0
  4 22  1  0  0  0
 22 24  1  0  0  0
 24 25  2  0  0  0
 25 26  1  0  0  0
 26 31  1  0  0  0
 31 32  1  0  0  0
 32 33  1  0  0  0
 33 34  1  0  0  0
 34 35  1  0  0  0
 34 36  1  0  0  0
 36 37  1  0  0  0
 26 27  2  0  0  0
 27 28  1  0  0  0
 27 29  1  0  0  0
 29 30  2  0  0  0
  4  5  1  0  0  0
  5  6  2  0  0  0
  6  1  1  0  0  0
 14  9  1  0  0  0
 30 24  1  0  0  0
 21 15  1  0  0  0
 37 31  1  0  0  0
  7  8  1  0  0  0
 22 23  1  0  0  0
M  END
> <minimizedAffinity>
-8.57431

> <CNNscore>
0.7101591825

> <CNNaffinity>
7.3889136314

> <CNN_VS>
5.2473049164

> <CNNaffinity_variance>
0.0582294986

$$$$
[H]c1nc(N([H])c2c([H])c([H])c(N3C([H])([H])C([H])([H])N(C([H])([H])[H])C([H])([H])C3([H])[H])c([H])c2[H])nc(N([H])c2c([H])c([H])c(C([H])([H])[H])c(N3C([H])([H])C([H])([H])N(C([H])([H])[H])C([H])([H])C3([H])[H])c2[H])n1


 37 41  0  0  0  0  0  0  0  0999 V2000
   39.5881   11.7865  -18.0627 N   0  0  0  0  0  0  0  0  0  0  0  0
   40.2468   12.1272  -16.9562 C   0  0  0  0  0  0  0  0  0  0  0  0
   39.5824   12.0026  -15.7896 N   0  0  0  0  0  0  0  0  0  0  0  0
   38.3033   11.5579  -15.6804 C   0  0  0  0  0  0  0  0  0  0  0  0
   37.7076   11.2362  -16.8235 N   0  0  0  0  0  0  0  0  0  0  0  0
   38.3277   11.3435  -18.0044 C   0  0  0  0  0  0  0  0  0  0  0  0
   41.5594   12.5966  -16.9146 N   0  0  0  0  0  0  0  0  0  0  0  0
   42.1230   12.5020  -17.8133 H   0  0  0  0  0  0  0  0  0  0  0  0
   42.1511   13.1770  -15.7698 C   0  0  0  0  0  0  0  0  0  0  0  0
   41.2413   13.7315  -14.8474 C   0  0  0  0  0  0  0  0  0  0  0  0
   41.7063   14.2960  -13.6886 C   0  0  0  0  0  0  0  0  0  0  0  0
   43.0454   14.3551  -13.3635 C   0  0  0  0  0  0  0  0  0  0  0  0
   43.9312   13.8135  -14.2644 C   0  0  0  0  0  0  0  0  0  0  0  0
   43.4805   13.2279  -15.4606 C   0  0  0  0  0  0  0  0  0  0  0  0
   43.4996   14.9397  -12.1598 N   0  0  0  0  0  0  0  0  0  0  0  0
   44.5905   14.3073  -11.4203 C   0  0  0  0  0  0  0  0  0  0  0  0
   45.2730   15.2563  -10.4780 C   0  0  0  0  0  0  0  0  0  0  0  0
   44.3844   15.9429   -9.6009 N   0  0  0  0  0  0  0  0  0  0  0  0
   44.9545   17.0922   -8.9673 C   0  0  0  0  0  0  0  0  0  0  0  0
   43.0544   16.1259  -10.0717 C   0  0  0  0  0  0  0  0  0  0  0  0
   42.9479   16.1343  -11.6039 C   0  0  0  0  0  0  0  0  0  0  0  0
   37.7673   11.5116  -14.3903 N   0  0  0  0  0  0  0  0  0  0  0  0
   38.1271   10.7784  -13.7151 H   0  0  0  0  0  0  0  0  0  0  0  0
   36.7615   12.3691  -13.8871 C   0  0  0  0  0  0  0  0  0  0  0  0
   37.1385   13.4037  -13.0445 C   0  0  0  0  0  0  0  0  0  0  0  0
   36.2098   14.2929  -12.4788 C   0  0  0  0  0  0  0  0  0  0  0  0
   34.8759   14.1734  -12.7409 C   0  0  0  0  0  0  0  0  0  0  0  0
   33.7987   15.0697  -12.2362 C   0  0  0  0  0  0  0  0  0  0  0  0
   34.4991   13.1270  -13.5909 C   0  0  0  0  0  0  0  0  0  0  0  0
   35.4200   12.2614  -14.1381 C   0  0  0  0  0  0  0  0  0  0  0  0
   36.6819   15.2940  -11.5966 N   0  0  0  0  0  0  0  0  0  0  0  0
   37.7958   14.8625  -10.7063 C   0  0  0  0  0  0  0  0  0  0  0  0
   38.5919   16.1227  -10.3730 C   0  0  0  0  0  0  0  0  0  0  0  0
   37.7668   16.9332   -9.5267 N   0  0  0  0  0  0  0  0  0  0  0  0
   37.7631   16.3804   -8.1870 C   0  0  0  0  0  0  0  0  0  0  0  0
   36.4175   17.0872   -9.9636 C   0  0  0  0  0  0  0  0  0  0  0  0
   36.2064   16.6216  -11.4208 C   0  0  0  0  0  0  0  0  0  0  0  0
  1  2  2  0  0  0
  2  7  1  0  0  0
  7  9  1  0  0  0
  9 10  2  0  0  0
 10 11  1  0  0  0
 11 12  2  0  0  0
 12 15  1  0  0  0
 15 16  1  0  0  0
 16 17  1  0  0  0
 17 18  1  0  0  0
 18 19  1  0  0  0
 18 20  1  0  0  0
 20 21  1  0  0  0
 12 13  1  0  0  0
 13 14  2  0  0  0
  2  3  1  0  0  0
  3  4  2  0  0  0
  4 22  1  0  0  0
 22 24  1  0  0  0
 24 25  2  0  0  0
 25 26  1  0  0  0
 26 31  1  0  0  0
 31 32  1  0  0  0
 32 33  1  0  0  0
 33 34  1  0  0  0
 34 35  1  0  0  0
 34 36  1  0  0  0
 36 37  1  0  0  0
 26 27  2  0  0  0
 27 28  1  0  0  0
 27 29  1  0  0  0
 29 30  2  0  0  0
  4  5  1  0  0  0
  5  6  2  0  0  0
  6  1  1  0  0  0
 14  9  1  0  0  0
 30 24  1  0  0  0
 21 15  1  0  0  0
 37 31  1  0  0  0
  7  8  1  0  0  0
 22 23  1  0  0  0
M  END
> <minimizedAffinity>
-8.12994

> <CNNscore>
0.4633580744

> <CNNaffinity>
7.2489266396

> <CNN_VS>
3.3588485718

> <CNNaffinity_variance>
0.0773324817

$$$$
[H]c1nc(N([H])c2c([H])c([H])c(N3C([H])([H])C([H])([H])N(C([H])([H])[H])C([H])([H])C3([H])[H])c([H])c2[H])nc(N([H])c2c([H])c([H])c(C([H])([H])[H])c(N3C([H])([H])C([H])([H])N(C([H])([H])[H])C([H])([H])C3([H])[H])c2[H])n1


 37 41  0  0  0  0  0  0  0  0999 V2000
   39.8167   11.3563  -17.3338 N   0  0  0  0  0  0  0  0  0  0  0  0
   40.3489   12.4201  -16.7343 C   0  0  0  0  0  0  0  0  0  0  0  0
   39.5612   13.0880  -15.8676 N   0  0  0  0  0  0  0  0  0  0  0  0
   38.2794   12.7443  -15.5764 C   0  0  0  0  0  0  0  0  0  0  0  0
   37.8137   11.6736  -16.2103 N   0  0  0  0  0  0  0  0  0  0  0  0
   38.5591   10.9800  -17.0785 C   0  0  0  0  0  0  0  0  0  0  0  0
   41.6473   12.8887  -16.9330 N   0  0  0  0  0  0  0  0  0  0  0  0
   41.8965   13.1814  -17.9261 H   0  0  0  0  0  0  0  0  0  0  0  0
   42.6119   12.9920  -15.9051 C   0  0  0  0  0  0  0  0  0  0  0  0
   43.9324   12.6950  -16.2977 C   0  0  0  0  0  0  0  0  0  0  0  0
   44.9510   12.7904  -15.3861 C   0  0  0  0  0  0  0  0  0  0  0  0
   44.7555   13.1695  -14.0744 C   0  0  0  0  0  0  0  0  0  0  0  0
   43.4669   13.4592  -13.6935 C   0  0  0  0  0  0  0  0  0  0  0  0
   42.4036   13.3695  -14.6091 C   0  0  0  0  0  0  0  0  0  0  0  0
   45.8238   13.2639  -13.1541 N   0  0  0  0  0  0  0  0  0  0  0  0
   45.8159   14.3262  -12.1499 C   0  0  0  0  0  0  0  0  0  0  0  0
   46.7075   14.0201  -10.9814 C   0  0  0  0  0  0  0  0  0  0  0  0
   48.0382   13.6627  -11.3445 N   0  0  0  0  0  0  0  0  0  0  0  0
   48.7813   13.0246  -10.3015 C   0  0  0  0  0  0  0  0  0  0  0  0
   48.2022   13.0774  -12.6308 C   0  0  0  0  0  0  0  0  0  0  0  0
   46.9382   12.3705  -13.1424 C   0  0  0  0  0  0  0  0  0  0  0  0
   37.6054   13.5641  -14.6666 N   0  0  0  0  0  0  0  0  0  0  0  0
   36.5524   13.6529  -14.7440 H   0  0  0  0  0  0  0  0  0  0  0  0
   38.2101   14.3093  -13.6277 C   0  0  0  0  0  0  0  0  0  0  0  0
   37.4859   14.5276  -12.4657 C   0  0  0  0  0  0  0  0  0  0  0  0
   37.9935   15.2730  -11.3888 C   0  0  0  0  0  0  0  0  0  0  0  0
   39.2420   15.8211  -11.4428 C   0  0  0  0  0  0  0  0  0  0  0  0
   39.9073   16.5972  -10.3595 C   0  0  0  0  0  0  0  0  0  0  0  0
   39.9696   15.5997  -12.6181 C   0  0  0  0  0  0  0  0  0  0  0  0
   39.4594   14.8676  -13.6671 C   0  0  0  0  0  0  0  0  0  0  0  0
   37.1665   15.4792  -10.2588 N   0  0  0  0  0  0  0  0  0  0  0  0
   36.1672   16.5735  -10.4116 C   0  0  0  0  0  0  0  0  0  0  0  0
   34.9996   16.2202   -9.4925 C   0  0  0  0  0  0  0  0  0  0  0  0
   35.4642   16.3619   -8.1442 N   0  0  0  0  0  0  0  0  0  0  0  0
   35.5246   17.7689   -7.8020 C   0  0  0  0  0  0  0  0  0  0  0  0
   36.7337   15.7692   -7.8754 C   0  0  0  0  0  0  0  0  0  0  0  0
   37.1977   14.8189   -9.0007 C   0  0  0  0  0  0  0  0  0  0  0  0
  1  2  2  0  0  0
  2  7  1  0  0  0
  7  9  1  0  0  0
  9 10  2  0  0  0
 10 11  1  0  0  0
 11 12  2  0  0  0
 12 15  1  0  0  0
 15 16  1  0  0  0
 16 17  1  0  0  0
 17 18  1  0  0  0
 18 19  1  0  0  0
 18 20  1  0  0  0
 20 21  1  0  0  0
 12 13  1  0  0  0
 13 14  2  0  0  0
  2  3  1  0  0  0
  3  4  2  0  0  0
  4 22  1  0  0  0
 22 24  1  0  0  0
 24 25  2  0  0  0
 25 26  1  0  0  0
 26 31  1  0  0  0
 31 32  1  0  0  0
 32 33  1  0  0  0
 33 34  1  0  0  0
 34 35  1  0  0  0
 34 36  1  0  0  0
 36 37  1  0  0  0
 26 27  2  0  0  0
 27 28  1  0  0  0
 27 29  1  0  0  0
 29 30  2  0  0  0
  4  5  1  0  0  0
  5  6  2  0  0  0
  6  1  1  0  0  0
 14  9  1  0  0  0
 30 24  1  0  0  0
 21 15  1  0  0  0
 37 31  1  0  0  0
  7  8  1  0  0  0
 22 23  1  0  0  0
M  END
> <minimizedAffinity>
-8.22763

> <CNNscore>
0.3425066769

> <CNNaffinity>
6.7907814980

> <CNN_VS>
2.3258879185

> <CNNaffinity_variance>
0.0589967147

$$$$
[H]c1nc(N([H])c2c([H])c([H])c(N3C([H])([H])C([H])([H])N(C([H])([H])[H])C([H])([H])C3([H])[H])c([H])c2[H])nc(N([H])c2c([H])c([H])c(C([H])([H])[H])c(N3C([H])([H])C([H])([H])N(C([H])([H])[H])C([H])([H])C3([H])[H])c2[H])n1


 37 41  0  0  0  0  0  0  0  0999 V2000
   45.5081   12.0855  -15.7173 N   0  0  0  0  0  0  0  0  0  0  0  0
   44.9583   12.9621  -14.8786 C   0  0  0  0  0  0  0  0  0  0  0  0
   43.7019   13.3649  -15.1565 N   0  0  0  0  0  0  0  0  0  0  0  0
   42.9785   12.9357  -16.2234 C   0  0  0  0  0  0  0  0  0  0  0  0
   43.5887   12.0626  -17.0173 N   0  0  0  0  0  0  0  0  0  0  0  0
   44.8343   11.6346  -16.7808 C   0  0  0  0  0  0  0  0  0  0  0  0
   45.5781   13.4876  -13.7453 N   0  0  0  0  0  0  0  0  0  0  0  0
   46.6167   13.7059  -13.8339 H   0  0  0  0  0  0  0  0  0  0  0  0
   44.9071   13.7383  -12.5268 C   0  0  0  0  0  0  0  0  0  0  0  0
   44.6788   15.0999  -12.2437 C   0  0  0  0  0  0  0  0  0  0  0  0
   44.0114   15.4545  -11.1007 C   0  0  0  0  0  0  0  0  0  0  0  0
   43.5379   14.5348  -10.1883 C   0  0  0  0  0  0  0  0  0  0  0  0
   43.7612   13.2073  -10.4665 C   0  0  0  0  0  0  0  0  0  0  0  0
   44.4431   12.8164  -11.6323 C   0  0  0  0  0  0  0  0  0  0  0  0
   42.8488   14.9261   -9.0182 N   0  0  0  0  0  0  0  0  0  0  0  0
   43.1806   14.2931   -7.7430 C   0  0  0  0  0  0  0  0  0  0  0  0
   42.7505   15.1159   -6.5631 C   0  0  0  0  0  0  0  0  0  0  0  0
   41.3832   15.5151   -6.6012 N   0  0  0  0  0  0  0  0  0  0  0  0
   41.0558   16.5794   -5.7025 C   0  0  0  0  0  0  0  0  0  0  0  0
   40.7988   15.6310   -7.8931 C   0  0  0  0  0  0  0  0  0  0  0  0
   41.8237   15.9206   -8.9998 C   0  0  0  0  0  0  0  0  0  0  0  0
   41.6969   13.4755  -16.3655 N   0  0  0  0  0  0  0  0  0  0  0  0
   41.5685   14.5208  -16.2485 H   0  0  0  0  0  0  0  0  0  0  0  0
   40.5233   12.7409  -16.6540 C   0  0  0  0  0  0  0  0  0  0  0  0
   39.4653   12.8116  -15.7606 C   0  0  0  0  0  0  0  0  0  0  0  0
   38.2683   12.1014  -15.9506 C   0  0  0  0  0  0  0  0  0  0  0  0
   38.0945   11.3002  -17.0414 C   0  0  0  0  0  0  0  0  0  0  0  0
   36.8658   10.5278  -17.3761 C   0  0  0  0  0  0  0  0  0  0  0  0
   39.1653   11.2303  -17.9403 C   0  0  0  0  0  0  0  0  0  0  0  0
   40.3341   11.9312  -17.7415 C   0  0  0  0  0  0  0  0  0  0  0  0
   37.2579   12.2020  -14.9645 N   0  0  0  0  0  0  0  0  0  0  0  0
   35.9971   12.8445  -15.4301 C   0  0  0  0  0  0  0  0  0  0  0  0
   34.8783   12.2755  -14.5598 C   0  0  0  0  0  0  0  0  0  0  0  0
   35.0640   12.7962  -13.2376 N   0  0  0  0  0  0  0  0  0  0  0  0
   34.6201   14.1752  -13.1973 C   0  0  0  0  0  0  0  0  0  0  0  0
   36.4002   12.7294  -12.7423 C   0  0  0  0  0  0  0  0  0  0  0  0
   37.3075   11.8179  -13.5971 C   0  0  0  0  0  0  0  0  0  0  0  0
  1  2  2  0  0  0
  2  7  1  0  0  0
  7  9  1  0  0  0
  9 10  2  0  0  0
 10 11  1  0  0  0
 11 12  2  0  0  0
 12 15  1  0  0  0
 15 16  1  0  0  0
 16 17  1  0  0  0
 17 18  1  0  0  0
 18 19  1  0  0  0
 18 20  1  0  0  0
 20 21  1  0  0  0
 12 13  1  0  0  0
 13 14  2  0  0  0
  2  3  1  0  0  0
  3  4  2  0  0  0
  4 22  1  0  0  0
 22 24  1  0  0  0
 24 25  2  0  0  0
 25 26  1  0  0  0
 26 31  1  0  0  0
 31 32  1  0  0  0
 32 33  1  0  0  0
 33 34  1  0  0  0
 34 35  1  0  0  0
 34 36  1  0  0  0
 36 37  1  0  0  0
 26 27  2  0  0  0
 27 28  1  0  0  0
 27 29  1  0  0  0
 29 30  2  0  0  0
  4  5  1  0  0  0
  5  6  2  0  0  0
  6  1  1  0  0  0
 14  9  1  0  0  0
 30 24  1  0  0  0
 21 15  1  0  0  0
 37 31  1  0  0  0
  7  8  1  0  0  0
 22 23  1  0  0  0
M  END
> <minimizedAffinity>
-9.01477

> <CNNscore>
0.3288235962

> <CNNaffinity>
7.0714483261

> <CNN_VS>
2.3252589703

> <CNNaffinity_variance>
0.0462571308

$$$$
[H]c1nc(N([H])c2c([H])c([H])c(N3C([H])([H])C([H])([H])N(C([H])([H])[H])C([H])([H])C3([H])[H])c([H])c2[H])nc(N([H])c2c([H])c([H])c(C([H])([H])[H])c(N3C([H])([H])C([H])([H])N(C([H])([H])[H])C([H])([H])C3([H])[H])c2[H])n1


 37 41  0  0  0  0  0  0  0  0999 V2000
   34.5859   10.9392  -16.0256 N   0  0  0  0  0  0  0  0  0  0  0  0
   35.6653   11.6987  -16.2052 C   0  0  0  0  0  0  0  0  0  0  0  0
   35.7274   12.8452  -15.4984 N   0  0  0  0  0  0  0  0  0  0  0  0
   34.7696   13.2621  -14.6297 C   0  0  0  0  0  0  0  0  0  0  0  0
   33.7216   12.4559  -14.5001 N   0  0  0  0  0  0  0  0  0  0  0  0
   33.6173   11.3087  -15.1809 C   0  0  0  0  0  0  0  0  0  0  0  0
   36.7258   11.3988  -17.0598 N   0  0  0  0  0  0  0  0  0  0  0  0
   36.4769   10.8829  -17.9576 H   0  0  0  0  0  0  0  0  0  0  0  0
   38.0708   11.7433  -16.7949 C   0  0  0  0  0  0  0  0  0  0  0  0
   38.2913   12.3598  -15.5470 C   0  0  0  0  0  0  0  0  0  0  0  0
   39.5631   12.7106  -15.1768 C   0  0  0  0  0  0  0  0  0  0  0  0
   40.6677   12.4905  -15.9730 C   0  0  0  0  0  0  0  0  0  0  0  0
   40.4505   11.8887  -17.1897 C   0  0  0  0  0  0  0  0  0  0  0  0
   39.1557   11.5185  -17.5937 C   0  0  0  0  0  0  0  0  0  0  0  0
   41.9702   12.8583  -15.5665 N   0  0  0  0  0  0  0  0  0  0  0  0
   42.1497   13.6208  -14.3323 C   0  0  0  0  0  0  0  0  0  0  0  0
   43.5446   13.5137  -13.7875 C   0  0  0  0  0  0  0  0  0  0  0  0
   44.5633   13.8190  -14.7358 N   0  0  0  0  0  0  0  0  0  0  0  0
   45.8705   13.3766  -14.3579 C   0  0  0  0  0  0  0  0  0  0  0  0
   44.2358   13.5969  -16.1023 C   0  0  0  0  0  0  0  0  0  0  0  0
   43.1501   12.5288  -16.3011 C   0  0  0  0  0  0  0  0  0  0  0  0
   34.9926   14.4886  -13.9973 N   0  0  0  0  0  0  0  0  0  0  0  0
   34.4130   15.3258  -14.2905 H   0  0  0  0  0  0  0  0  0  0  0  0
   35.9454   14.7271  -12.9798 C   0  0  0  0  0  0  0  0  0  0  0  0
   35.4963   14.8629  -11.6751 C   0  0  0  0  0  0  0  0  0  0  0  0
   36.3639   15.1221  -10.6012 C   0  0  0  0  0  0  0  0  0  0  0  0
   37.7075   15.2521  -10.8016 C   0  0  0  0  0  0  0  0  0  0  0  0
   38.7330   15.4891   -9.7478 C   0  0  0  0  0  0  0  0  0  0  0  0
   38.1570   15.1157  -12.1203 C   0  0  0  0  0  0  0  0  0  0  0  0
   37.2952   14.8625  -13.1642 C   0  0  0  0  0  0  0  0  0  0  0  0
   35.8109   15.2866   -9.3087 N   0  0  0  0  0  0  0  0  0  0  0  0
   35.1217   16.5890   -9.0890 C   0  0  0  0  0  0  0  0  0  0  0  0
   34.0645   16.3395   -8.0152 C   0  0  0  0  0  0  0  0  0  0  0  0
   34.7589   16.1036   -6.7840 N   0  0  0  0  0  0  0  0  0  0  0  0
   35.2392   17.3641   -6.2540 C   0  0  0  0  0  0  0  0  0  0  0  0
   35.8551   15.1948   -6.8712 C   0  0  0  0  0  0  0  0  0  0  0  0
   35.8686   14.4032   -8.1971 C   0  0  0  0  0  0  0  0  0  0  0  0
  1  2  2  0  0  0
  2  7  1  0  0  0
  7  9  1  0  0  0
  9 10  2  0  0  0
 10 11  1  0  0  0
 11 12  2  0  0  0
 12 15  1  0  0  0
 15 16  1  0  0  0
 16 17  1  0  0  0
 17 18  1  0  0  0
 18 19  1  0  0  0
 18 20  1  0  0  0
 20 21  1  0  0  0
 12 13  1  0  0  0
 13 14  2  0  0  0
  2  3  1  0  0  0
  3  4  2  0  0  0
  4 22  1  0  0  0
 22 24  1  0  0  0
 24 25  2  0  0  0
 25 26  1  0  0  0
 26 31  1  0  0  0
 31 32  1  0  0  0
 32 33  1  0  0  0
 33 34  1  0  0  0
 34 35  1  0  0  0
 34 36  1  0  0  0
 36 37  1  0  0  0
 26 27  2  0  0  0
 27 28  1  0  0  0
 27 29  1  0  0  0
 29 30  2  0  0  0
  4  5  1  0  0  0
  5  6  2  0  0  0
  6  1  1  0  0  0
 14  9  1  0  0  0
 30 24  1  0  0  0
 21 15  1  0  0  0
 37 31  1  0  0  0
  7  8  1  0  0  0
 22 23  1  0  0  0
M  END
> <minimizedAffinity>
-9.29230

> <CNNscore>
0.2319288850

> <CNNaffinity>
7.0557837486

> <CNN_VS>
1.6364400387

> <CNNaffinity_variance>
0.1557856947

$$$$
[H]Oc1c([H])c([H])c2c(=O)n(-c3c([H])c([H])c([H])c([H])c3Cl)c(-c3c([H])c([H])c(Cl)c([H])c3[H])c([H])c(=O)c2c1[H]


 29 32  0  0  0  0  0  0  0  0999 V2000
   38.4487   14.1879   -5.9958 C   0  0  0  0  0  0  0  0  0  0  0  0
   39.0384   13.1049   -6.6592 C   0  0  0  0  0  0  0  0  0  0  0  0
   40.3507   12.6810   -6.6905 C   0  0  0  0  0  0  0  0  0  0  0  0
   40.5698   11.5793   -7.2694 O   0  0  0  0  0  0  0  0  0  0  0  0
   41.4592   13.3264   -6.1589 C   0  0  0  0  0  0  0  0  0  0  0  0
   42.6136   12.6350   -6.3920 C   0  0  0  0  0  0  0  0  0  0  0  0
   43.8279   13.1425   -5.9247 C   0  0  0  0  0  0  0  0  0  0  0  0
   45.0129   12.4764   -6.1388 O   0  0  0  0  0  0  0  0  0  0  0  0
   43.8558   14.3326   -5.2340 C   0  0  0  0  0  0  0  0  0  0  0  0
   42.6877   15.0413   -4.9927 C   0  0  0  0  0  0  0  0  0  0  0  0
   41.4963   14.5314   -5.4582 C   0  0  0  0  0  0  0  0  0  0  0  0
   40.4403   15.3562   -5.1339 C   0  0  0  0  0  0  0  0  0  0  0  0
   40.7565   16.3500   -4.4192 O   0  0  0  0  0  0  0  0  0  0  0  0
   39.1392   15.2253   -5.4848 N   0  0  0  0  0  0  0  0  0  0  0  0
   45.5467   12.6662   -6.9605 H   0  0  0  0  0  0  0  0  0  0  0  0
   32.4523   14.1086   -5.6443 Cl  0  0  0  0  0  0  0  0  0  0  0  0
   34.1904   14.1215   -5.7137 C   0  0  0  0  0  0  0  0  0  0  0  0
   34.9548   13.7906   -4.6298 C   0  0  0  0  0  0  0  0  0  0  0  0
   36.3206   13.8134   -4.7266 C   0  0  0  0  0  0  0  0  0  0  0  0
   36.9913   14.1535   -5.8644 C   0  0  0  0  0  0  0  0  0  0  0  0
   36.2401   14.4859   -6.9534 C   0  0  0  0  0  0  0  0  0  0  0  0
   34.8737   14.4686   -6.8742 C   0  0  0  0  0  0  0  0  0  0  0  0
   38.3931   16.3853   -5.2700 C   0  0  0  0  0  0  0  0  0  0  0  0
   37.8538   16.6425   -4.0342 C   0  0  0  0  0  0  0  0  0  0  0  0
   37.1230   17.7941   -3.8378 C   0  0  0  0  0  0  0  0  0  0  0  0
   36.9400   18.6783   -4.8839 C   0  0  0  0  0  0  0  0  0  0  0  0
   37.4936   18.4042   -6.1325 C   0  0  0  0  0  0  0  0  0  0  0  0
   38.2222   17.2516   -6.3204 C   0  0  0  0  0  0  0  0  0  0  0  0
   38.9216   16.9309   -7.9317 Cl  0  0  0  0  0  0  0  0  0  0  0  0
 16 17  1  0  0  0
 17 18  2  0  0  0
 18 19  1  0  0  0
 19 20  2  0  0  0
 20 21  1  0  0  0
 21 22  2  0  0  0
 20  1  1  0  0  0
  1  2  2  0  0  0
  2  3  1  0  0  0
  3  4  2  0  0  0
  3  5  1  0  0  0
  5  6  2  0  0  0
  6  7  1  0  0  0
  7  8  1  0  0  0
  7  9  2  0  0  0
  9 10  1  0  0  0
 10 11  2  0  0  0
 11 12  1  0  0  0
 12 13  2  0  0  0
 12 14  1  0  0  0
 14 23  1  0  0  0
 23 24  2  0  0  0
 24 25  1  0  0  0
 25 26  2  0  0  0
 26 27  1  0  0  0
 27 28  2  0  0  0
 28 29  1  0  0  0
 22 17  1  0  0  0
 14  1  1  0  0  0
 28 23  1  0  0  0
 11  5  1  0  0  0
  8 15  1  0  0  0
M  END
> <minimizedAffinity>
-5.93828

> <CNNscore>
0.3960365653

> <CNNaffinity>
5.3263297081

> <CNN_VS>
2.1094212532

> <CNNaffinity_variance>
0.2035261840

$$$$
[H]Oc1c([H])c([H])c2c(=O)n(-c3c([H])c([H])c([H])c([H])c3Cl)c(-c3c([H])c([H])c(Cl)c([H])c3[H])c([H])c(=O)c2c1[H]


 29 32  0  0  0  0  0  0  0  0999 V2000
   40.4241   14.5986   -8.1691 C   0  0  0  0  0  0  0  0  0  0  0  0
   39.4916   14.9805   -9.1413 C   0  0  0  0  0  0  0  0  0  0  0  0
   38.1157   15.0590   -9.0803 C   0  0  0  0  0  0  0  0  0  0  0  0
   37.5391   15.5727  -10.0805 O   0  0  0  0  0  0  0  0  0  0  0  0
   37.2913   14.6379   -8.0454 C   0  0  0  0  0  0  0  0  0  0  0  0
   35.9712   14.8456   -8.3271 C   0  0  0  0  0  0  0  0  0  0  0  0
   35.0005   14.4789   -7.3924 C   0  0  0  0  0  0  0  0  0  0  0  0
   33.6602   14.6715   -7.6379 O   0  0  0  0  0  0  0  0  0  0  0  0
   35.3770   13.9121   -6.1960 C   0  0  0  0  0  0  0  0  0  0  0  0
   36.7159   13.6977   -5.9019 C   0  0  0  0  0  0  0  0  0  0  0  0
   37.6642   14.0631   -6.8310 C   0  0  0  0  0  0  0  0  0  0  0  0
   38.9368   13.7821   -6.3815 C   0  0  0  0  0  0  0  0  0  0  0  0
   38.9844   13.3328   -5.2008 O   0  0  0  0  0  0  0  0  0  0  0  0
   40.1085   13.9291   -7.0438 N   0  0  0  0  0  0  0  0  0  0  0  0
   33.1301   13.9533   -8.0845 H   0  0  0  0  0  0  0  0  0  0  0  0
   46.1012   16.3078   -9.1368 Cl  0  0  0  0  0  0  0  0  0  0  0  0
   44.4645   15.7825   -8.8699 C   0  0  0  0  0  0  0  0  0  0  0  0
   44.0445   14.5318   -9.2275 C   0  0  0  0  0  0  0  0  0  0  0  0
   42.7469   14.1576   -8.9998 C   0  0  0  0  0  0  0  0  0  0  0  0
   41.8167   14.9712   -8.4231 C   0  0  0  0  0  0  0  0  0  0  0  0
   42.2231   16.2221   -8.0615 C   0  0  0  0  0  0  0  0  0  0  0  0
   43.5163   16.6127   -8.2819 C   0  0  0  0  0  0  0  0  0  0  0  0
   41.1712   13.2596   -6.4349 C   0  0  0  0  0  0  0  0  0  0  0  0
   41.4881   11.9779   -6.8104 C   0  0  0  0  0  0  0  0  0  0  0  0
   42.5426   11.3324   -6.2020 C   0  0  0  0  0  0  0  0  0  0  0  0
   43.2704   11.9793   -5.2215 C   0  0  0  0  0  0  0  0  0  0  0  0
   42.9374   13.2802   -4.8508 C   0  0  0  0  0  0  0  0  0  0  0  0
   41.8826   13.9180   -5.4635 C   0  0  0  0  0  0  0  0  0  0  0  0
   41.4833   15.5864   -4.9685 Cl  0  0  0  0  0  0  0  0  0  0  0  0
 16 17  1  0  0  0
 17 18  2  0  0  0
 18 19  1  0  0  0
 19 20  2  0  0  0
 20 21  1  0  0  0
 21 22  2  0  0  0
 20  1  1  0  0  0
  1  2  2  0  0  0
  2  3  1  0  0  0
  3  4  2  0  0  0
  3  5  1  0  0  0
  5  6  2  0  0  0
  6  7  1  0  0  0
  7  8  1  0  0  0
  7  9  2  0  0  0
  9 10  1  0  0  0
 10 11  2  0  0  0
 11 12  1  0  0  0
 12 13  2  0  0  0
 12 14  1  0  0  0
 14 23  1  0  0  0
 23 24  2  0  0  0
 24 25  1  0  0  0
 25 26  2  0  0  0
 26 27  1  0  0  0
 27 28  2  0  0  0
 28 29  1  0  0  0
 22 17  1  0  0  0
 14  1  1  0  0  0
 28 23  1  0  0  0
 11  5  1  0  0  0
  8 15  1  0  0  0
M  END
> <minimizedAffinity>
-5.86124

> <CNNscore>
0.2949179113

> <CNNaffinity>
5.4276437759

> <CNN_VS>
1.6007093191

> <CNNaffinity_variance>
0.2639945447

$$$$
[H]Oc1c([H])c([H])c2c(=O)n(-c3c([H])c([H])c([H])c([H])c3Cl)c(-c3c([H])c([H])c(Cl)c([H])c3[H])c([H])c(=O)c2c1[H]


 29 32  0  0  0  0  0  0  0  0999 V2000
   43.4728   16.1360  -11.9793 C   0  0  0  0  0  0  0  0  0  0  0  0
   42.1836   16.2313  -12.5175 C   0  0  0  0  0  0  0  0  0  0  0  0
   40.9558   16.3049  -11.8931 C   0  0  0  0  0  0  0  0  0  0  0  0
   39.9601   16.5245  -12.6395 O   0  0  0  0  0  0  0  0  0  0  0  0
   40.6884   16.1652  -10.5378 C   0  0  0  0  0  0  0  0  0  0  0  0
   39.3542   16.2723  -10.2666 C   0  0  0  0  0  0  0  0  0  0  0  0
   38.9066   16.1562   -8.9488 C   0  0  0  0  0  0  0  0  0  0  0  0
   37.5709   16.2581   -8.6339 O   0  0  0  0  0  0  0  0  0  0  0  0
   39.8087   15.9353   -7.9330 C   0  0  0  0  0  0  0  0  0  0  0  0
   41.1658   15.8253   -8.1998 C   0  0  0  0  0  0  0  0  0  0  0  0
   41.5955   15.9414   -9.5028 C   0  0  0  0  0  0  0  0  0  0  0  0
   42.9649   15.8079   -9.5900 C   0  0  0  0  0  0  0  0  0  0  0  0
   43.5486   15.6917   -8.4746 O   0  0  0  0  0  0  0  0  0  0  0  0
   43.7334   15.7879  -10.7045 N   0  0  0  0  0  0  0  0  0  0  0  0
   36.9997   15.4397   -8.6264 H   0  0  0  0  0  0  0  0  0  0  0  0
   47.9944   17.5988  -15.6538 Cl  0  0  0  0  0  0  0  0  0  0  0  0
   46.6890   17.1426  -14.5984 C   0  0  0  0  0  0  0  0  0  0  0  0
   46.2865   15.8421  -14.4749 C   0  0  0  0  0  0  0  0  0  0  0  0
   45.2542   15.5253  -13.6326 C   0  0  0  0  0  0  0  0  0  0  0  0
   44.5796   16.4457  -12.8857 C   0  0  0  0  0  0  0  0  0  0  0  0
   44.9715   17.7472  -12.9999 C   0  0  0  0  0  0  0  0  0  0  0  0
   46.0014   18.0816  -13.8371 C   0  0  0  0  0  0  0  0  0  0  0  0
   45.0276   15.3200  -10.4708 C   0  0  0  0  0  0  0  0  0  0  0  0
   45.3415   14.0049  -10.7078 C   0  0  0  0  0  0  0  0  0  0  0  0
   46.6248   13.5599  -10.4755 C   0  0  0  0  0  0  0  0  0  0  0  0
   47.5825   14.4393  -10.0073 C   0  0  0  0  0  0  0  0  0  0  0  0
   47.2495   15.7712   -9.7716 C   0  0  0  0  0  0  0  0  0  0  0  0
   45.9652   16.2077  -10.0062 C   0  0  0  0  0  0  0  0  0  0  0  0
   45.5710   17.9217   -9.6976 Cl  0  0  0  0  0  0  0  0  0  0  0  0
 16 17  1  0  0  0
 17 18  2  0  0  0
 18 19  1  0  0  0
 19 20  2  0  0  0
 20 21  1  0  0  0
 21 22  2  0  0  0
 20  1  1  0  0  0
  1  2  2  0  0  0
  2  3  1  0  0  0
  3  4  2  0  0  0
  3  5  1  0  0  0
  5  6  2  0  0  0
  6  7  1  0  0  0
  7  8  1  0  0  0
  7  9  2  0  0  0
  9 10  1  0  0  0
 10 11  2  0  0  0
 11 12  1  0  0  0
 12 13  2  0  0  0
 12 14  1  0  0  0
 14 23  1  0  0  0
 23 24  2  0  0  0
 24 25  1  0  0  0
 25 26  2  0  0  0
 26 27  1  0  0  0
 27 28  2  0  0  0
 28 29  1  0  0  0
 22 17  1  0  0  0
 14  1  1  0  0  0
 28 23  1  0  0  0
 11  5  1  0  0  0
  8 15  1  0  0  0
M  END
> <minimizedAffinity>
-5.91951

> <CNNscore>
0.2835017741

> <CNNaffinity>
5.4894876480

> <CNN_VS>
1.5562795401

> <CNNaffinity_variance>
0.4758170247

$$$$
[H]Oc1c([H])c([H])c2c(=O)n(-c3c([H])c([H])c([H])c([H])c3Cl)c(-c3c([H])c([H])c(Cl)c([H])c3[H])c([H])c(=O)c2c1[H]


 29 32  0  0  0  0  0  0  0  0999 V2000
   39.1144   16.0480   -5.7644 C   0  0  0  0  0  0  0  0  0  0  0  0
   40.3705   16.4371   -5.2833 C   0  0  0  0  0  0  0  0  0  0  0  0
   41.5462   15.7245   -5.1707 C   0  0  0  0  0  0  0  0  0  0  0  0
   42.5687   16.3818   -4.8251 O   0  0  0  0  0  0  0  0  0  0  0  0
   41.7352   14.3671   -5.3937 C   0  0  0  0  0  0  0  0  0  0  0  0
   43.0271   13.9870   -5.1663 C   0  0  0  0  0  0  0  0  0  0  0  0
   43.3945   12.6513   -5.3433 C   0  0  0  0  0  0  0  0  0  0  0  0
   44.6855   12.2280   -5.1247 O   0  0  0  0  0  0  0  0  0  0  0  0
   42.4566   11.7274   -5.7445 C   0  0  0  0  0  0  0  0  0  0  0  0
   41.1420   12.1051   -5.9777 C   0  0  0  0  0  0  0  0  0  0  0  0
   40.7913   13.4247   -5.8000 C   0  0  0  0  0  0  0  0  0  0  0  0
   39.4551   13.6266   -6.0728 C   0  0  0  0  0  0  0  0  0  0  0  0
   38.8509   12.6023   -6.5019 O   0  0  0  0  0  0  0  0  0  0  0  0
   38.7373   14.7665   -5.9368 N   0  0  0  0  0  0  0  0  0  0  0  0
   44.9567   11.9125   -4.2175 H   0  0  0  0  0  0  0  0  0  0  0  0
   35.3772   20.4954   -7.2943 Cl  0  0  0  0  0  0  0  0  0  0  0  0
   36.4440   19.2055   -6.8210 C   0  0  0  0  0  0  0  0  0  0  0  0
   36.3584   18.6181   -5.5897 C   0  0  0  0  0  0  0  0  0  0  0  0
   37.2177   17.6052   -5.2566 C   0  0  0  0  0  0  0  0  0  0  0  0
   38.1823   17.1273   -6.0941 C   0  0  0  0  0  0  0  0  0  0  0  0
   38.2783   17.7051   -7.3260 C   0  0  0  0  0  0  0  0  0  0  0  0
   37.4275   18.7188   -7.6754 C   0  0  0  0  0  0  0  0  0  0  0  0
   37.3583   14.5565   -5.9885 C   0  0  0  0  0  0  0  0  0  0  0  0
   36.6429   14.3689   -4.8322 C   0  0  0  0  0  0  0  0  0  0  0  0
   35.2815   14.1666   -4.9003 C   0  0  0  0  0  0  0  0  0  0  0  0
   34.6496   14.1546   -6.1292 C   0  0  0  0  0  0  0  0  0  0  0  0
   35.3885   14.3467   -7.2944 C   0  0  0  0  0  0  0  0  0  0  0  0
   36.7481   14.5481   -7.2176 C   0  0  0  0  0  0  0  0  0  0  0  0
   37.6663   14.7948   -8.7290 Cl  0  0  0  0  0  0  0  0  0  0  0  0
 16 17  1  0  0  0
 17 18  2  0  0  0
 18 19  1  0  0  0
 19 20  2  0  0  0
 20 21  1  0  0  0
 21 22  2  0  0  0
 20  1  1  0  0  0
  1  2  2  0  0  0
  2  3  1  0  0  0
  3  4  2  0  0  0
  3  5  1  0  0  0
  5  6  2  0  0  0
  6  7  1  0  0  0
  7  8  1  0  0  0
  7  9  2  0  0  0
  9 10  1  0  0  0
 10 11  2  0  0  0
 11 12  1  0  0  0
 12 13  2  0  0  0
 12 14  1  0  0  0
 14 23  1  0  0  0
 23 24  2  0  0  0
 24 25  1  0  0  0
 25 26  2  0  0  0
 26 27  1  0  0  0
 27 28  2  0  0  0
 28 29  1  0  0  0
 22 17  1  0  0  0
 14  1  1  0  0  0
 28 23  1  0  0  0
 11  5  1  0  0  0
  8 15  1  0  0  0
M  END
> <minimizedAffinity>
-5.69891

> <CNNscore>
0.2326970994

> <CNNaffinity>
5.2292947769

> <CNN_VS>
1.2168416977

> <CNNaffinity_variance>
0.1207068339

$$$$
[H]Oc1c([H])c([H])c2c(=O)n(-c3c([H])c([H])c([H])c([H])c3Cl)c(-c3c([H])c([H])c(Cl)c([H])c3[H])c([H])c(=O)c2c1[H]


 29 32  0  0  0  0  0  0  0  0999 V2000
   41.4119   15.8138   -8.8012 C   0  0  0  0  0  0  0  0  0  0  0  0
   40.4948   16.1513   -9.8041 C   0  0  0  0  0  0  0  0  0  0  0  0
   39.2585   16.7574   -9.7197 C   0  0  0  0  0  0  0  0  0  0  0  0
   38.7092   17.0643  -10.8156 O   0  0  0  0  0  0  0  0  0  0  0  0
   38.5480   17.0689   -8.5682 C   0  0  0  0  0  0  0  0  0  0  0  0
   37.3425   17.6447   -8.8517 C   0  0  0  0  0  0  0  0  0  0  0  0
   36.4960   18.0228   -7.8072 C   0  0  0  0  0  0  0  0  0  0  0  0
   35.2735   18.6059   -8.0508 O   0  0  0  0  0  0  0  0  0  0  0  0
   36.8789   17.8144   -6.5018 C   0  0  0  0  0  0  0  0  0  0  0  0
   38.1018   17.2301   -6.2050 C   0  0  0  0  0  0  0  0  0  0  0  0
   38.9282   16.8613   -7.2428 C   0  0  0  0  0  0  0  0  0  0  0  0
   40.0966   16.2992   -6.7742 C   0  0  0  0  0  0  0  0  0  0  0  0
   40.2109   16.3097   -5.5152 O   0  0  0  0  0  0  0  0  0  0  0  0
   41.1071   15.7526   -7.4907 N   0  0  0  0  0  0  0  0  0  0  0  0
   34.4631   18.0327   -8.1550 H   0  0  0  0  0  0  0  0  0  0  0  0
   47.0582   14.8035  -10.5861 Cl  0  0  0  0  0  0  0  0  0  0  0  0
   45.4163   15.0631  -10.0735 C   0  0  0  0  0  0  0  0  0  0  0  0
   44.5102   14.0410  -10.0216 C   0  0  0  0  0  0  0  0  0  0  0  0
   43.2269   14.2880   -9.6122 C   0  0  0  0  0  0  0  0  0  0  0  0
   42.7769   15.5208   -9.2412 C   0  0  0  0  0  0  0  0  0  0  0  0
   43.6713   16.5496   -9.2886 C   0  0  0  0  0  0  0  0  0  0  0  0
   44.9579   16.3205   -9.6955 C   0  0  0  0  0  0  0  0  0  0  0  0
   41.9824   14.9921   -6.7136 C   0  0  0  0  0  0  0  0  0  0  0  0
   43.0546   15.5867   -6.0963 C   0  0  0  0  0  0  0  0  0  0  0  0
   43.9071   14.8223   -5.3295 C   0  0  0  0  0  0  0  0  0  0  0  0
   43.6758   13.4673   -5.1887 C   0  0  0  0  0  0  0  0  0  0  0  0
   42.5835   12.8776   -5.8209 C   0  0  0  0  0  0  0  0  0  0  0  0
   41.7367   13.6482   -6.5851 C   0  0  0  0  0  0  0  0  0  0  0  0
   40.3436   12.8632   -7.3796 Cl  0  0  0  0  0  0  0  0  0  0  0  0
 16 17  1  0  0  0
 17 18  2  0  0  0
 18 19  1  0  0  0
 19 20  2  0  0  0
 20 21  1  0  0  0
 21 22  2  0  0  0
 20  1  1  0  0  0
  1  2  2  0  0  0
  2  3  1  0  0  0
  3  4  2  0  0  0
  3  5  1  0  0  0
  5  6  2  0  0  0
  6  7  1  0  0  0
  7  8  1  0  0  0
  7  9  2  0  0  0
  9 10  1  0  0  0
 10 11  2  0  0  0
 11 12  1  0  0  0
 12 13  2  0  0  0
 12 14  1  0  0  0
 14 23  1  0  0  0
 23 24  2  0  0  0
 24 25  1  0  0  0
 25 26  2  0  0  0
 26 27  1  0  0  0
 27 28  2  0  0  0
 28 29  1  0  0  0
 22 17  1  0  0  0
 14  1  1  0  0  0
 28 23  1  0  0  0
 11  5  1  0  0  0
  8 15  1  0  0  0
M  END
> <minimizedAffinity>
-5.32303

> <CNNscore>
0.2042104453

> <CNNaffinity>
5.3153772354

> <CNN_VS>
1.0854555368

> <CNNaffinity_variance>
0.2720600963

$$$$
[H]Oc1c([H])c([H])c2c(=O)n(-c3c([H])c([H])c([H])c([H])c3Cl)c(-c3c([H])c([H])c(Cl)c([H])c3[H])c([H])c(=O)c2c1[H]


 29 32  0  0  0  0  0  0  0  0999 V2000
   42.9912   15.5904  -10.7882 C   0  0  0  0  0  0  0  0  0  0  0  0
   42.0298   15.8083  -11.7828 C   0  0  0  0  0  0  0  0  0  0  0  0
   40.7110   16.2000  -11.6827 C   0  0  0  0  0  0  0  0  0  0  0  0
   40.1173   16.4514  -12.7696 O   0  0  0  0  0  0  0  0  0  0  0  0
   39.9604   16.3496  -10.5242 C   0  0  0  0  0  0  0  0  0  0  0  0
   38.6764   16.7295  -10.7927 C   0  0  0  0  0  0  0  0  0  0  0  0
   37.7807   16.9263   -9.7394 C   0  0  0  0  0  0  0  0  0  0  0  0
   36.4788   17.3092   -9.9679 O   0  0  0  0  0  0  0  0  0  0  0  0
   38.1942   16.7372   -8.4404 C   0  0  0  0  0  0  0  0  0  0  0  0
   39.4969   16.3513   -8.1588 C   0  0  0  0  0  0  0  0  0  0  0  0
   40.3712   16.1602   -9.2052 C   0  0  0  0  0  0  0  0  0  0  0  0
   41.6167   15.7811   -8.7514 C   0  0  0  0  0  0  0  0  0  0  0  0
   41.7293   15.7655   -7.4923 O   0  0  0  0  0  0  0  0  0  0  0  0
   42.7022   15.4335   -9.4821 N   0  0  0  0  0  0  0  0  0  0  0  0
   35.7733   16.6149  -10.0959 H   0  0  0  0  0  0  0  0  0  0  0  0
   48.7184   15.5863  -12.6008 Cl  0  0  0  0  0  0  0  0  0  0  0  0
   47.0596   15.5536  -12.0782 C   0  0  0  0  0  0  0  0  0  0  0  0
   46.3695   14.3804  -11.9519 C   0  0  0  0  0  0  0  0  0  0  0  0
   45.0644   14.3986  -11.5373 C   0  0  0  0  0  0  0  0  0  0  0  0
   44.3851   15.5411  -11.2320 C   0  0  0  0  0  0  0  0  0  0  0  0
   45.0625   16.7189  -11.3540 C   0  0  0  0  0  0  0  0  0  0  0  0
   46.3674   16.7190  -11.7673 C   0  0  0  0  0  0  0  0  0  0  0  0
   43.6915   14.7998   -8.7283 C   0  0  0  0  0  0  0  0  0  0  0  0
   43.7487   13.4295   -8.6737 C   0  0  0  0  0  0  0  0  0  0  0  0
   44.7340   12.8195   -7.9280 C   0  0  0  0  0  0  0  0  0  0  0  0
   45.6538   13.5906   -7.2434 C   0  0  0  0  0  0  0  0  0  0  0  0
   45.5836   14.9804   -7.3083 C   0  0  0  0  0  0  0  0  0  0  0  0
   44.5963   15.5819   -8.0555 C   0  0  0  0  0  0  0  0  0  0  0  0
   44.5353   17.3652   -8.1213 Cl  0  0  0  0  0  0  0  0  0  0  0  0
 16 17  1  0  0  0
 17 18  2  0  0  0
 18 19  1  0  0  0
 19 20  2  0  0  0
 20 21  1  0  0  0
 21 22  2  0  0  0
 20  1  1  0  0  0
  1  2  2  0  0  0
  2  3  1  0  0  0
  3  4  2  0  0  0
  3  5  1  0  0  0
  5  6  2  0  0  0
  6  7  1  0  0  0
  7  8  1  0  0  0
  7  9  2  0  0  0
  9 10  1  0  0  0
 10 11  2  0  0  0
 11 12  1  0  0  0
 12 13  2  0  0  0
 12 14  1  0  0  0
 14 23  1  0  0  0
 23 24  2  0  0  0
 24 25  1  0  0  0
 25 26  2  0  0  0
 26 27  1  0  0  0
 27 28  2  0  0  0
 28 29  1  0  0  0
 22 17  1  0  0  0
 14  1  1  0  0  0
 28 23  1  0  0  0
 11  5  1  0  0  0
  8 15  1  0  0  0
M  END
> <minimizedAffinity>
-5.49618

> <CNNscore>
0.1779600829

> <CNNaffinity>
5.3969006538

> <CNN_VS>
0.9604328871

> <CNNaffinity_variance>
0.3213007450

$$$$
[H]Oc1c([H])c([H])c2c(=O)n(-c3c([H])c([H])c([H])c([H])c3Cl)c(-c3c([H])c([H])c(Cl)c([H])c3[H])c([H])c(=O)c2c1[H]


 29 32  0  0  0  0  0  0  0  0999 V2000
   40.5899   14.9974   -7.3747 C   0  0  0  0  0  0  0  0  0  0  0  0
   41.8883   15.4719   -7.5981 C   0  0  0  0  0  0  0  0  0  0  0  0
   43.1074   14.9679   -7.1951 C   0  0  0  0  0  0  0  0  0  0  0  0
   44.1324   15.5382   -7.6654 O   0  0  0  0  0  0  0  0  0  0  0  0
   43.3378   13.9054   -6.3315 C   0  0  0  0  0  0  0  0  0  0  0  0
   44.6714   13.6891   -6.1318 C   0  0  0  0  0  0  0  0  0  0  0  0
   45.0839   12.6554   -5.2881 C   0  0  0  0  0  0  0  0  0  0  0  0
   46.4178   12.4049   -5.0608 O   0  0  0  0  0  0  0  0  0  0  0  0
   44.1482   11.8622   -4.6641 C   0  0  0  0  0  0  0  0  0  0  0  0
   42.7914   12.0750   -4.8615 C   0  0  0  0  0  0  0  0  0  0  0  0
   42.3964   13.0971   -5.6954 C   0  0  0  0  0  0  0  0  0  0  0  0
   41.0222   13.1691   -5.7794 C   0  0  0  0  0  0  0  0  0  0  0  0
   40.4138   12.2530   -5.1558 O   0  0  0  0  0  0  0  0  0  0  0  0
   40.2720   14.0850   -6.4363 N   0  0  0  0  0  0  0  0  0  0  0  0
   46.8856   12.8595   -4.3053 H   0  0  0  0  0  0  0  0  0  0  0  0
   36.3210   17.1012  -11.0404 Cl  0  0  0  0  0  0  0  0  0  0  0  0
   37.5507   16.5174   -9.9573 C   0  0  0  0  0  0  0  0  0  0  0  0
   37.8351   17.1560   -8.7827 C   0  0  0  0  0  0  0  0  0  0  0  0
   38.8111   16.6633   -7.9580 C   0  0  0  0  0  0  0  0  0  0  0  0
   39.5409   15.5453   -8.2361 C   0  0  0  0  0  0  0  0  0  0  0  0
   39.2670   14.8986   -9.4055 C   0  0  0  0  0  0  0  0  0  0  0  0
   38.2948   15.3774  -10.2416 C   0  0  0  0  0  0  0  0  0  0  0  0
   38.9277   14.0648   -6.0609 C   0  0  0  0  0  0  0  0  0  0  0  0
   38.0366   13.2568   -6.7221 C   0  0  0  0  0  0  0  0  0  0  0  0
   36.7136   13.2458   -6.3366 C   0  0  0  0  0  0  0  0  0  0  0  0
   36.2964   14.0460   -5.2902 C   0  0  0  0  0  0  0  0  0  0  0  0
   37.2122   14.8608   -4.6282 C   0  0  0  0  0  0  0  0  0  0  0  0
   38.5319   14.8660   -5.0195 C   0  0  0  0  0  0  0  0  0  0  0  0
   39.6816   15.9186   -4.1487 Cl  0  0  0  0  0  0  0  0  0  0  0  0
 16 17  1  0  0  0
 17 18  2  0  0  0
 18 19  1  0  0  0
 19 20  2  0  0  0
 20 21  1  0  0  0
 21 22  2  0  0  0
 20  1  1  0  0  0
  1  2  2  0  0  0
  2  3  1  0  0  0
  3  4  2  0  0  0
  3  5  1  0  0  0
  5  6  2  0  0  0
  6  7  1  0  0  0
  7  8  1  0  0  0
  7  9  2  0  0  0
  9 10  1  0  0  0
 10 11  2  0  0  0
 11 12  1  0  0  0
 12 13  2  0  0  0
 12 14  1  0  0  0
 14 23  1  0  0  0
 23 24  2  0  0  0
 24 25  1  0  0  0
 25 26  2  0  0  0
 26 27  1  0  0  0
 27 28  2  0  0  0
 28 29  1  0  0  0
 22 17  1  0  0  0
 14  1  1  0  0  0
 28 23  1  0  0  0
 11  5  1  0  0  0
  8 15  1  0  0  0
M  END
> <minimizedAffinity>
-5.67624

> <CNNscore>
0.1647133827

> <CNNaffinity>
5.1061139107

> <CNN_VS>
0.8410453200

> <CNNaffinity_variance>
0.3179326653

$$$$
[H]Oc1c([H])c([H])c2c(=O)n(-c3c([H])c([H])c([H])c([H])c3Cl)c(-c3c([H])c([H])c(Cl)c([H])c3[H])c([H])c(=O)c2c1[H]


 29 32  0  0  0  0  0  0  0  0999 V2000
   44.7225   14.2374  -11.9299 C   0  0  0  0  0  0  0  0  0  0  0  0
   44.1780   13.4330  -10.9214 C   0  0  0  0  0  0  0  0  0  0  0  0
   43.7413   13.7588   -9.6542 C   0  0  0  0  0  0  0  0  0  0  0  0
   43.1640   12.8397   -9.0072 O   0  0  0  0  0  0  0  0  0  0  0  0
   43.8633   14.9815   -9.0077 C   0  0  0  0  0  0  0  0  0  0  0  0
   43.3397   14.9473   -7.7469 C   0  0  0  0  0  0  0  0  0  0  0  0
   43.3781   16.0954   -6.9526 C   0  0  0  0  0  0  0  0  0  0  0  0
   42.8613   16.1022   -5.6772 O   0  0  0  0  0  0  0  0  0  0  0  0
   43.9414   17.2519   -7.4421 C   0  0  0  0  0  0  0  0  0  0  0  0
   44.4756   17.2952   -8.7219 C   0  0  0  0  0  0  0  0  0  0  0  0
   44.4322   16.1572   -9.4959 C   0  0  0  0  0  0  0  0  0  0  0  0
   45.0029   16.3731  -10.7322 C   0  0  0  0  0  0  0  0  0  0  0  0
   45.3687   17.5660  -10.9355 O   0  0  0  0  0  0  0  0  0  0  0  0
   45.2099   15.4762  -11.7251 N   0  0  0  0  0  0  0  0  0  0  0  0
   43.4457   15.8621   -4.9045 H   0  0  0  0  0  0  0  0  0  0  0  0
   44.6155   11.9526  -17.4847 Cl  0  0  0  0  0  0  0  0  0  0  0  0
   44.6783   12.6029  -15.8725 C   0  0  0  0  0  0  0  0  0  0  0  0
   45.7899   12.4714  -15.0880 C   0  0  0  0  0  0  0  0  0  0  0  0
   45.7982   12.9983  -13.8240 C   0  0  0  0  0  0  0  0  0  0  0  0
   44.7420   13.6657  -13.2773 C   0  0  0  0  0  0  0  0  0  0  0  0
   43.6263   13.8038  -14.0499 C   0  0  0  0  0  0  0  0  0  0  0  0
   43.6008   13.2832  -15.3155 C   0  0  0  0  0  0  0  0  0  0  0  0
   46.0897   15.9365  -12.7062 C   0  0  0  0  0  0  0  0  0  0  0  0
   45.6182   16.6535  -13.7775 C   0  0  0  0  0  0  0  0  0  0  0  0
   46.5005   17.1039  -14.7353 C   0  0  0  0  0  0  0  0  0  0  0  0
   47.8493   16.8309  -14.6094 C   0  0  0  0  0  0  0  0  0  0  0  0
   48.3135   16.1024  -13.5165 C   0  0  0  0  0  0  0  0  0  0  0  0
   47.4255   15.6560  -12.5641 C   0  0  0  0  0  0  0  0  0  0  0  0
   48.0524   14.7279  -11.1736 Cl  0  0  0  0  0  0  0  0  0  0  0  0
 16 17  1  0  0  0
 17 18  2  0  0  0
 18 19  1  0  0  0
 19 20  2  0  0  0
 20 21  1  0  0  0
 21 22  2  0  0  0
 20  1  1  0  0  0
  1  2  2  0  0  0
  2  3  1  0  0  0
  3  4  2  0  0  0
  3  5  1  0  0  0
  5  6  2  0  0  0
  6  7  1  0  0  0
  7  8  1  0  0  0
  7  9  2  0  0  0
  9 10  1  0  0  0
 10 11  2  0  0  0
 11 12  1  0  0  0
 12 13  2  0  0  0
 12 14  1  0  0  0
 14 23  1  0  0  0
 23 24  2  0  0  0
 24 25  1  0  0  0
 25 26  2  0  0  0
 26 27  1  0  0  0
 27 28  2  0  0  0
 28 29  1  0  0  0
 22 17  1  0  0  0
 14  1  1  0  0  0
 28 23  1  0  0  0
 11  5  1  0  0  0
  8 15  1  0  0  0
M  END
> <minimizedAffinity>
-5.45887

> <CNNscore>
0.1641445905

> <CNNaffinity>
5.3287782669

> <CNN_VS>
0.8746901155

> <CNNaffinity_variance>
0.0124056591

$$$$
[H]Oc1c([H])c([H])c2c(=O)n(-c3c([H])c([H])c([H])c([H])c3Cl)c(-c3c([H])c([H])c(Cl)c([H])c3[H])c([H])c(=O)c2c1[H]


 29 32  0  0  0  0  0  0  0  0999 V2000
   37.6572   15.6174   -7.6885 C   0  0  0  0  0  0  0  0  0  0  0  0
   38.4743   16.3410   -8.5657 C   0  0  0  0  0  0  0  0  0  0  0  0
   39.7455   16.0748   -9.0303 C   0  0  0  0  0  0  0  0  0  0  0  0
   40.1855   16.8449   -9.9305 O   0  0  0  0  0  0  0  0  0  0  0  0
   40.5977   15.0574   -8.6221 C   0  0  0  0  0  0  0  0  0  0  0  0
   41.7954   15.1006   -9.2768 C   0  0  0  0  0  0  0  0  0  0  0  0
   42.7744   14.1474   -8.9877 C   0  0  0  0  0  0  0  0  0  0  0  0
   43.9938   14.1563   -9.6253 O   0  0  0  0  0  0  0  0  0  0  0  0
   42.5287   13.1725   -8.0478 C   0  0  0  0  0  0  0  0  0  0  0  0
   41.3147   13.1214   -7.3781 C   0  0  0  0  0  0  0  0  0  0  0  0
   40.3570   14.0664   -7.6713 C   0  0  0  0  0  0  0  0  0  0  0  0
   39.2176   13.8712   -6.9200 C   0  0  0  0  0  0  0  0  0  0  0  0
   39.2459   12.8396   -6.1897 O   0  0  0  0  0  0  0  0  0  0  0  0
   38.1029   14.6386   -6.8776 N   0  0  0  0  0  0  0  0  0  0  0  0
   44.7525   14.6753   -9.2365 H   0  0  0  0  0  0  0  0  0  0  0  0
   31.7976   16.9351   -7.8128 Cl  0  0  0  0  0  0  0  0  0  0  0  0
   33.4987   16.5767   -7.7523 C   0  0  0  0  0  0  0  0  0  0  0  0
   34.3402   17.2302   -6.8960 C   0  0  0  0  0  0  0  0  0  0  0  0
   35.6735   16.9178   -6.8799 C   0  0  0  0  0  0  0  0  0  0  0  0
   36.2367   15.9706   -7.6834 C   0  0  0  0  0  0  0  0  0  0  0  0
   35.4077   15.3110   -8.5427 C   0  0  0  0  0  0  0  0  0  0  0  0
   34.0725   15.6108   -8.5721 C   0  0  0  0  0  0  0  0  0  0  0  0
   37.2772   14.3480   -5.7903 C   0  0  0  0  0  0  0  0  0  0  0  0
   36.2680   13.4259   -5.9147 C   0  0  0  0  0  0  0  0  0  0  0  0
   35.4641   13.1477   -4.8306 C   0  0  0  0  0  0  0  0  0  0  0  0
   35.6805   13.7974   -3.6304 C   0  0  0  0  0  0  0  0  0  0  0  0
   36.7088   14.7306   -3.5189 C   0  0  0  0  0  0  0  0  0  0  0  0
   37.5073   15.0028   -4.6066 C   0  0  0  0  0  0  0  0  0  0  0  0
   38.8190   16.2014   -4.4304 Cl  0  0  0  0  0  0  0  0  0  0  0  0
 16 17  1  0  0  0
 17 18  2  0  0  0
 18 19  1  0  0  0
 19 20  2  0  0  0
 20 21  1  0  0  0
 21 22  2  0  0  0
 20  1  1  0  0  0
  1  2  2  0  0  0
  2  3  1  0  0  0
  3  4  2  0  0  0
  3  5  1  0  0  0
  5  6  2  0  0  0
  6  7  1  0  0  0
  7  8  1  0  0  0
  7  9  2  0  0  0
  9 10  1  0  0  0
 10 11  2  0  0  0
 11 12  1  0  0  0
 12 13  2  0  0  0
 12 14  1  0  0  0
 14 23  1  0  0  0
 23 24  2  0  0  0
 24 25  1  0  0  0
 25 26  2  0  0  0
 26 27  1  0  0  0
 27 28  2  0  0  0
 28 29  1  0  0  0
 22 17  1  0  0  0
 14  1  1  0  0  0
 28 23  1  0  0  0
 11  5  1  0  0  0
  8 15  1  0  0  0
M  END
> <minimizedAffinity>
-6.09030

> <CNNscore>
0.1636139303

> <CNNaffinity>
5.2005310059

> <CNN_VS>
0.8508793116

> <CNNaffinity_variance>
0.1523352116

$$$$
[H]OC(=O)C([H])([H])[C@]([H])(N([H])C(=O)[C@@]([H])(N([H])C(=O)[C@@]([H])(N([H])C(=O)/C([H])=C(\[H])c1c([H])c([H])c([H])c([H])c1[H])C([H])([H])c1c([H])c([H])c([H])c([H])c1[H])C([H])([H])c1c([H])c([H])c([H])c([H])c1[H])C([H])([H])[H]


 43 45  0  0  0  0  0  0  0  0999 V2000
   37.5455   13.5336  -13.4482 C   0  0  0  0  0  0  0  0  0  0  0  0
   37.6961   12.3436  -13.0735 O   0  0  0  0  0  0  0  0  0  0  0  0
   38.6046   14.3620  -13.8197 N   0  0  0  0  0  0  0  0  0  0  0  0
   38.4344   15.4007  -14.0536 H   0  0  0  0  0  0  0  0  0  0  0  0
   36.1266   14.0909  -13.4784 C   0  0  0  0  0  0  0  0  0  0  0  0
   36.0328   15.2368  -11.3164 C   0  0  0  0  0  0  0  0  0  0  0  0
   35.9940   14.1147  -10.7353 O   0  0  0  0  0  0  0  0  0  0  0  0
   36.1412   15.3185  -12.7370 N   0  0  0  0  0  0  0  0  0  0  0  0
   36.2136   16.2730  -13.1860 H   0  0  0  0  0  0  0  0  0  0  0  0
   36.9709   16.9144   -9.8360 C   0  0  0  0  0  0  0  0  0  0  0  0
   35.9395   16.4222  -10.4622 C   0  0  0  0  0  0  0  0  0  0  0  0
   36.9366   18.0668   -8.9683 C   0  0  0  0  0  0  0  0  0  0  0  0
   37.8167   19.1089   -9.2250 C   0  0  0  0  0  0  0  0  0  0  0  0
   37.8271   20.1976   -8.4031 C   0  0  0  0  0  0  0  0  0  0  0  0
   36.9793   20.2801   -7.3227 C   0  0  0  0  0  0  0  0  0  0  0  0
   36.1043   19.2482   -7.0632 C   0  0  0  0  0  0  0  0  0  0  0  0
   36.0707   18.1225   -7.8860 C   0  0  0  0  0  0  0  0  0  0  0  0
   35.6346   14.1939  -14.8727 C   0  0  0  0  0  0  0  0  0  0  0  0
   35.0657   12.8859  -15.3194 C   0  0  0  0  0  0  0  0  0  0  0  0
   33.9697   12.2812  -14.8559 C   0  0  0  0  0  0  0  0  0  0  0  0
   33.5663   11.0361  -15.3755 C   0  0  0  0  0  0  0  0  0  0  0  0
   34.2926   10.4221  -16.3637 C   0  0  0  0  0  0  0  0  0  0  0  0
   35.4327   11.0609  -16.8393 C   0  0  0  0  0  0  0  0  0  0  0  0
   35.8288   12.2560  -16.3514 C   0  0  0  0  0  0  0  0  0  0  0  0
   40.0355   13.9830  -13.9175 C   0  0  0  0  0  0  0  0  0  0  0  0
   40.7466   15.0928  -13.1809 C   0  0  0  0  0  0  0  0  0  0  0  0
   40.2377   16.2253  -13.1119 O   0  0  0  0  0  0  0  0  0  0  0  0
   42.0025   14.8989  -12.5252 N   0  0  0  0  0  0  0  0  0  0  0  0
   42.4296   13.9756  -12.6062 H   0  0  0  0  0  0  0  0  0  0  0  0
   42.6264   15.9560  -11.7929 C   0  0  0  0  0  0  0  0  0  0  0  0
   43.9871   16.3759  -12.3056 C   0  0  0  0  0  0  0  0  0  0  0  0
   42.6954   15.6072  -10.3206 C   0  0  0  0  0  0  0  0  0  0  0  0
   41.4559   15.8573   -9.5900 C   0  0  0  0  0  0  0  0  0  0  0  0
   40.5128   16.7583  -10.1448 O   0  0  0  0  0  0  0  0  0  0  0  0
   41.1817   15.3327   -8.5143 O   0  0  0  0  0  0  0  0  0  0  0  0
   39.5647   16.4516  -10.2849 H   0  0  0  0  0  0  0  0  0  0  0  0
   40.3278   13.9871  -15.3589 C   0  0  0  0  0  0  0  0  0  0  0  0
   39.9635   12.9710  -16.3171 C   0  0  0  0  0  0  0  0  0  0  0  0
   40.4577   13.1468  -17.6391 C   0  0  0  0  0  0  0  0  0  0  0  0
   40.2860   12.2282  -18.6318 C   0  0  0  0  0  0  0  0  0  0  0  0
   39.5891   11.0496  -18.3479 C   0  0  0  0  0  0  0  0  0  0  0  0
   39.0903   10.8412  -17.0891 C   0  0  0  0  0  0  0  0  0  0  0  0
   39.2871   11.8082  -16.0900 C   0  0  0  0  0  0  0  0  0  0  0  0
 12 10  1  0  0  0
 10 11  2  0  0  0
 11  6  1  0  0  0
  6  7  2  0  0  0
  6  8  1  0  0  0
  8  5  1  0  0  0
  5  1  1  0  0  0
  1  2  2  0  0  0
  1  3  1  0  0  0
  3 25  1  0  0  0
 25 26  1  0  0  0
 26 27  2  0  0  0
 26 28  1  0  0  0
 28 30  1  0  0  0
 30 32  1  0  0  0
 32 33  1  0  0  0
 33 34  1  0  0  0
 33 35  2  0  0  0
 30 31  1  0  0  0
 25 37  1  0  0  0
 37 38  1  0  0  0
 38 39  2  0  0  0
 39 40  1  0  0  0
 40 41  2  0  0  0
 41 42  1  0  0  0
 42 43  2  0  0  0
  5 18  1  0  0  0
 18 19  1  0  0  0
 19 20  2  0  0  0
 20 21  1  0  0  0
 21 22  2  0  0  0
 22 23  1  0  0  0
 23 24  2  0  0  0
 12 13  2  0  0  0
 13 14  1  0  0  0
 14 15  2  0  0  0
 15 16  1  0  0  0
 16 17  2  0  0  0
 17 12  1  0  0  0
 43 38  1  0  0  0
 24 19  1  0  0  0
  8  9  1  0  0  0
  3  4  1  0  0  0
 28 29  1  0  0  0
 34 36  1  0  0  0
M  END
> <minimizedAffinity>
-9.33247

> <CNNscore>
0.4124729335

> <CNNaffinity>
6.9161415100

> <CNN_VS>
2.8527212143

> <CNNaffinity_variance>
0.1586312950

$$$$
[H]OC(=O)C([H])([H])[C@]([H])(N([H])C(=O)[C@@]([H])(N([H])C(=O)[C@@]([H])(N([H])C(=O)/C([H])=C(\[H])c1c([H])c([H])c([H])c([H])c1[H])C([H])([H])c1c([H])c([H])c([H])c([H])c1[H])C([H])([H])c1c([H])c([H])c([H])c([H])c1[H])C([H])([H])[H]


 43 45  0  0  0  0  0  0  0  0999 V2000
   38.0212   14.7181  -14.0609 C   0  0  0  0  0  0  0  0  0  0  0  0
   37.5127   15.8666  -14.1010 O   0  0  0  0  0  0  0  0  0  0  0  0
   37.3209   13.5561  -14.3853 N   0  0  0  0  0  0  0  0  0  0  0  0
   37.7743   12.5864  -14.2554 H   0  0  0  0  0  0  0  0  0  0  0  0
   39.4757   14.6042  -13.6183 C   0  0  0  0  0  0  0  0  0  0  0  0
   40.2490   16.1158  -11.8537 C   0  0  0  0  0  0  0  0  0  0  0  0
   40.7777   16.8545  -12.7329 O   0  0  0  0  0  0  0  0  0  0  0  0
   39.5197   14.9470  -12.2263 N   0  0  0  0  0  0  0  0  0  0  0  0
   39.0552   14.3757  -11.4675 H   0  0  0  0  0  0  0  0  0  0  0  0
   40.0788   15.7587   -9.4601 C   0  0  0  0  0  0  0  0  0  0  0  0
   40.4455   16.5123  -10.4582 C   0  0  0  0  0  0  0  0  0  0  0  0
   40.2298   16.1035   -8.0671 C   0  0  0  0  0  0  0  0  0  0  0  0
   41.5038   16.0725   -7.5171 C   0  0  0  0  0  0  0  0  0  0  0  0
   41.6723   16.3644   -6.1951 C   0  0  0  0  0  0  0  0  0  0  0  0
   40.5996   16.6890   -5.3971 C   0  0  0  0  0  0  0  0  0  0  0  0
   39.3330   16.7205   -5.9381 C   0  0  0  0  0  0  0  0  0  0  0  0
   39.1298   16.4270   -7.2863 C   0  0  0  0  0  0  0  0  0  0  0  0
   40.0252   13.2719  -13.9644 C   0  0  0  0  0  0  0  0  0  0  0  0
   41.4023   13.4099  -14.5288 C   0  0  0  0  0  0  0  0  0  0  0  0
   41.7881   13.1738  -15.7846 C   0  0  0  0  0  0  0  0  0  0  0  0
   43.1345   13.3403  -16.1622 C   0  0  0  0  0  0  0  0  0  0  0  0
   44.0726   13.7447  -15.2471 C   0  0  0  0  0  0  0  0  0  0  0  0
   43.6599   13.9880  -13.9416 C   0  0  0  0  0  0  0  0  0  0  0  0
   42.3716   13.8346  -13.5673 C   0  0  0  0  0  0  0  0  0  0  0  0
   35.9308   13.4712  -14.8961 C   0  0  0  0  0  0  0  0  0  0  0  0
   35.0896   13.5233  -13.6433 C   0  0  0  0  0  0  0  0  0  0  0  0
   34.7705   12.4730  -13.0589 O   0  0  0  0  0  0  0  0  0  0  0  0
   34.6426   14.7537  -13.0679 N   0  0  0  0  0  0  0  0  0  0  0  0
   34.8840   15.6119  -13.5646 H   0  0  0  0  0  0  0  0  0  0  0  0
   33.8901   14.7727  -11.8528 C   0  0  0  0  0  0  0  0  0  0  0  0
   32.4180   15.0850  -12.0144 C   0  0  0  0  0  0  0  0  0  0  0  0
   34.5287   15.7142  -10.8529 C   0  0  0  0  0  0  0  0  0  0  0  0
   35.9259   16.0288  -11.1384 C   0  0  0  0  0  0  0  0  0  0  0  0
   36.2219   17.2287  -11.8322 O   0  0  0  0  0  0  0  0  0  0  0  0
   36.8660   15.3085  -10.8143 O   0  0  0  0  0  0  0  0  0  0  0  0
   36.8704   17.8827  -11.4268 H   0  0  0  0  0  0  0  0  0  0  0  0
   35.8568   12.1657  -15.5695 C   0  0  0  0  0  0  0  0  0  0  0  0
   36.8527   11.5834  -16.4368 C   0  0  0  0  0  0  0  0  0  0  0  0
   36.3845   11.0741  -17.6795 C   0  0  0  0  0  0  0  0  0  0  0  0
   37.2100   10.5846  -18.6478 C   0  0  0  0  0  0  0  0  0  0  0  0
   38.5894   10.5764  -18.4182 C   0  0  0  0  0  0  0  0  0  0  0  0
   39.0841   11.0520  -17.2324 C   0  0  0  0  0  0  0  0  0  0  0  0
   38.2048   11.5506  -16.2577 C   0  0  0  0  0  0  0  0  0  0  0  0
 12 10  1  0  0  0
 10 11  2  0  0  0
 11  6  1  0  0  0
  6  7  2  0  0  0
  6  8  1  0  0  0
  8  5  1  0  0  0
  5  1  1  0  0  0
  1  2  2  0  0  0
  1  3  1  0  0  0
  3 25  1  0  0  0
 25 26  1  0  0  0
 26 27  2  0  0  0
 26 28  1  0  0  0
 28 30  1  0  0  0
 30 32  1  0  0  0
 32 33  1  0  0  0
 33 34  1  0  0  0
 33 35  2  0  0  0
 30 31  1  0  0  0
 25 37  1  0  0  0
 37 38  1  0  0  0
 38 39  2  0  0  0
 39 40  1  0  0  0
 40 41  2  0  0  0
 41 42  1  0  0  0
 42 43  2  0  0  0
  5 18  1  0  0  0
 18 19  1  0  0  0
 19 20  2  0  0  0
 20 21  1  0  0  0
 21 22  2  0  0  0
 22 23  1  0  0  0
 23 24  2  0  0  0
 12 13  2  0  0  0
 13 14  1  0  0  0
 14 15  2  0  0  0
 15 16  1  0  0  0
 16 17  2  0  0  0
 17 12  1  0  0  0
 43 38  1  0  0  0
 24 19  1  0  0  0
  8  9  1  0  0  0
  3  4  1  0  0  0
 28 29  1  0  0  0
 34 36  1  0  0  0
M  END
> <minimizedAffinity>
-8.23884

> <CNNscore>
0.2011488974

> <CNNaffinity>
6.8003821373

> <CNN_VS>
1.3678894043

> <CNNaffinity_variance>
0.1132022738

$$$$
[H]OC(=O)C([H])([H])[C@]([H])(N([H])C(=O)[C@@]([H])(N([H])C(=O)[C@@]([H])(N([H])C(=O)/C([H])=C(\[H])c1c([H])c([H])c([H])c([H])c1[H])C([H])([H])c1c([H])c([H])c([H])c([H])c1[H])C([H])([H])c1c([H])c([H])c([H])c([H])c1[H])C([H])([H])[H]


 43 45  0  0  0  0  0  0  0  0999 V2000
   39.5356   15.8524  -11.5306 C   0  0  0  0  0  0  0  0  0  0  0  0
   39.4943   17.0223  -11.0734 O   0  0  0  0  0  0  0  0  0  0  0  0
   38.5447   14.8996  -11.2939 N   0  0  0  0  0  0  0  0  0  0  0  0
   38.6646   13.8845  -11.6372 H   0  0  0  0  0  0  0  0  0  0  0  0
   40.7456   15.4654  -12.3737 C   0  0  0  0  0  0  0  0  0  0  0  0
   41.0507   13.8508  -14.1892 C   0  0  0  0  0  0  0  0  0  0  0  0
   42.1331   13.4724  -13.6565 O   0  0  0  0  0  0  0  0  0  0  0  0
   40.2458   14.8540  -13.5708 N   0  0  0  0  0  0  0  0  0  0  0  0
   39.3263   15.1159  -14.0223 H   0  0  0  0  0  0  0  0  0  0  0  0
   39.5879   12.5530  -15.6250 C   0  0  0  0  0  0  0  0  0  0  0  0
   40.6924   13.2257  -15.4636 C   0  0  0  0  0  0  0  0  0  0  0  0
   39.1904   11.9010  -16.8494 C   0  0  0  0  0  0  0  0  0  0  0  0
   37.9397   11.3011  -16.8981 C   0  0  0  0  0  0  0  0  0  0  0  0
   37.5499   10.6514  -18.0325 C   0  0  0  0  0  0  0  0  0  0  0  0
   38.3764   10.5805  -19.1301 C   0  0  0  0  0  0  0  0  0  0  0  0
   39.6189   11.1737  -19.0866 C   0  0  0  0  0  0  0  0  0  0  0  0
   40.0449   11.8451  -17.9408 C   0  0  0  0  0  0  0  0  0  0  0  0
   41.6360   16.6327  -12.5777 C   0  0  0  0  0  0  0  0  0  0  0  0
   42.9887   16.3592  -12.0039 C   0  0  0  0  0  0  0  0  0  0  0  0
   44.1567   16.3653  -12.6501 C   0  0  0  0  0  0  0  0  0  0  0  0
   45.3532   16.0743  -11.9669 C   0  0  0  0  0  0  0  0  0  0  0  0
   45.3397   15.7772  -10.6281 C   0  0  0  0  0  0  0  0  0  0  0  0
   44.1175   15.7737   -9.9646 C   0  0  0  0  0  0  0  0  0  0  0  0
   42.9634   16.0535  -10.6074 C   0  0  0  0  0  0  0  0  0  0  0  0
   37.2723   15.1061  -10.5597 C   0  0  0  0  0  0  0  0  0  0  0  0
   37.6366   14.7992   -9.1269 C   0  0  0  0  0  0  0  0  0  0  0  0
   36.7830   14.3394   -8.3483 O   0  0  0  0  0  0  0  0  0  0  0  0
   38.9542   14.9995   -8.6088 N   0  0  0  0  0  0  0  0  0  0  0  0
   39.6452   15.4015   -9.2432 H   0  0  0  0  0  0  0  0  0  0  0  0
   39.2809   14.6517   -7.2614 C   0  0  0  0  0  0  0  0  0  0  0  0
   39.2278   15.7961   -6.2724 C   0  0  0  0  0  0  0  0  0  0  0  0
   40.6283   13.9620   -7.2076 C   0  0  0  0  0  0  0  0  0  0  0  0
   40.5627   12.5551   -6.8213 C   0  0  0  0  0  0  0  0  0  0  0  0
   40.7424   11.5686   -7.8230 O   0  0  0  0  0  0  0  0  0  0  0  0
   40.3558   12.1732   -5.6728 O   0  0  0  0  0  0  0  0  0  0  0  0
   41.4481   10.8627   -7.6955 H   0  0  0  0  0  0  0  0  0  0  0  0
   36.3451   14.1164  -11.1288 C   0  0  0  0  0  0  0  0  0  0  0  0
   36.1789   13.7911  -12.5251 C   0  0  0  0  0  0  0  0  0  0  0  0
   35.6855   12.4887  -12.8133 C   0  0  0  0  0  0  0  0  0  0  0  0
   35.3807   12.0643  -14.0726 C   0  0  0  0  0  0  0  0  0  0  0  0
   35.5595   12.9453  -15.1437 C   0  0  0  0  0  0  0  0  0  0  0  0
   36.0382   14.2080  -14.9128 C   0  0  0  0  0  0  0  0  0  0  0  0
   36.3404   14.6124  -13.6024 C   0  0  0  0  0  0  0  0  0  0  0  0
 12 10  1  0  0  0
 10 11  2  0  0  0
 11  6  1  0  0  0
  6  7  2  0  0  0
  6  8  1  0  0  0
  8  5  1  0  0  0
  5  1  1  0  0  0
  1  2  2  0  0  0
  1  3  1  0  0  0
  3 25  1  0  0  0
 25 26  1  0  0  0
 26 27  2  0  0  0
 26 28  1  0  0  0
 28 30  1  0  0  0
 30 32  1  0  0  0
 32 33  1  0  0  0
 33 34  1  0  0  0
 33 35  2  0  0  0
 30 31  1  0  0  0
 25 37  1  0  0  0
 37 38  1  0  0  0
 38 39  2  0  0  0
 39 40  1  0  0  0
 40 41  2  0  0  0
 41 42  1  0  0  0
 42 43  2  0  0  0
  5 18  1  0  0  0
 18 19  1  0  0  0
 19 20  2  0  0  0
 20 21  1  0  0  0
 21 22  2  0  0  0
 22 23  1  0  0  0
 23 24  2  0  0  0
 12 13  2  0  0  0
 13 14  1  0  0  0
 14 15  2  0  0  0
 15 16  1  0  0  0
 16 17  2  0  0  0
 17 12  1  0  0  0
 43 38  1  0  0  0
 24 19  1  0  0  0
  8  9  1  0  0  0
  3  4  1  0  0  0
 28 29  1  0  0  0
 34 36  1  0  0  0
M  END
> <minimizedAffinity>
-8.84501

> <CNNscore>
0.1937340796

> <CNNaffinity>
6.3800153732

> <CNN_VS>
1.2360264063

> <CNNaffinity_variance>
0.2660174668

$$$$
[H]OC(=O)C([H])([H])[C@]([H])(N([H])C(=O)[C@@]([H])(N([H])C(=O)[C@@]([H])(N([H])C(=O)/C([H])=C(\[H])c1c([H])c([H])c([H])c([H])c1[H])C([H])([H])c1c([H])c([H])c([H])c([H])c1[H])C([H])([H])c1c([H])c([H])c([H])c([H])c1[H])C([H])([H])[H]


 43 45  0  0  0  0  0  0  0  0999 V2000
   40.6107   14.7360  -13.6016 C   0  0  0  0  0  0  0  0  0  0  0  0
   40.0371   15.8511  -13.6848 O   0  0  0  0  0  0  0  0  0  0  0  0
   39.9825   13.5252  -13.8933 N   0  0  0  0  0  0  0  0  0  0  0  0
   40.4897   12.5883  -13.7269 H   0  0  0  0  0  0  0  0  0  0  0  0
   42.0645   14.7216  -13.1422 C   0  0  0  0  0  0  0  0  0  0  0  0
   43.3154   16.0403  -11.5014 C   0  0  0  0  0  0  0  0  0  0  0  0
   44.2836   16.1100  -12.3113 O   0  0  0  0  0  0  0  0  0  0  0  0
   42.1081   15.3716  -11.8645 N   0  0  0  0  0  0  0  0  0  0  0  0
   41.3037   15.3690  -11.1784 H   0  0  0  0  0  0  0  0  0  0  0  0
   43.1118   16.0892   -9.0844 C   0  0  0  0  0  0  0  0  0  0  0  0
   43.5128   16.6554  -10.1876 C   0  0  0  0  0  0  0  0  0  0  0  0
   43.2619   16.6543   -7.7652 C   0  0  0  0  0  0  0  0  0  0  0  0
   44.4074   17.3889   -7.4917 C   0  0  0  0  0  0  0  0  0  0  0  0
   44.5900   17.9093   -6.2439 C   0  0  0  0  0  0  0  0  0  0  0  0
   43.6571   17.7179   -5.2510 C   0  0  0  0  0  0  0  0  0  0  0  0
   42.5187   16.9891   -5.5172 C   0  0  0  0  0  0  0  0  0  0  0  0
   42.3045   16.4450   -6.7834 C   0  0  0  0  0  0  0  0  0  0  0  0
   42.6100   13.3438  -13.1755 C   0  0  0  0  0  0  0  0  0  0  0  0
   43.5914   13.2020  -14.2940 C   0  0  0  0  0  0  0  0  0  0  0  0
   43.3230   13.1238  -15.5992 C   0  0  0  0  0  0  0  0  0  0  0  0
   44.3646   12.9799  -16.5359 C   0  0  0  0  0  0  0  0  0  0  0  0
   45.6712   12.9147  -16.1243 C   0  0  0  0  0  0  0  0  0  0  0  0
   45.9396   12.9972  -14.7623 C   0  0  0  0  0  0  0  0  0  0  0  0
   44.9503   13.1379  -13.8541 C   0  0  0  0  0  0  0  0  0  0  0  0
   38.6053   13.3428  -14.4136 C   0  0  0  0  0  0  0  0  0  0  0  0
   37.7516   13.3576  -13.1683 C   0  0  0  0  0  0  0  0  0  0  0  0
   37.2200   12.3098  -12.7608 O   0  0  0  0  0  0  0  0  0  0  0  0
   37.5305   14.5443  -12.4017 N   0  0  0  0  0  0  0  0  0  0  0  0
   37.9466   15.4072  -12.7536 H   0  0  0  0  0  0  0  0  0  0  0  0
   36.7587   14.5159  -11.1990 C   0  0  0  0  0  0  0  0  0  0  0  0
   35.4221   15.2215  -11.2773 C   0  0  0  0  0  0  0  0  0  0  0  0
   37.5742   15.0451  -10.0375 C   0  0  0  0  0  0  0  0  0  0  0  0
   38.5851   16.0281  -10.4178 C   0  0  0  0  0  0  0  0  0  0  0  0
   38.1552   17.2891  -10.9015 O   0  0  0  0  0  0  0  0  0  0  0  0
   39.7938   15.8243  -10.3467 O   0  0  0  0  0  0  0  0  0  0  0  0
   38.4936   18.1263  -10.4574 H   0  0  0  0  0  0  0  0  0  0  0  0
   38.6221   12.0260  -15.0685 C   0  0  0  0  0  0  0  0  0  0  0  0
   38.8315   11.7617  -16.4718 C   0  0  0  0  0  0  0  0  0  0  0  0
   40.0918   12.1506  -17.0041 C   0  0  0  0  0  0  0  0  0  0  0  0
   40.4807   11.8813  -18.2828 C   0  0  0  0  0  0  0  0  0  0  0  0
   39.6036   11.1890  -19.1236 C   0  0  0  0  0  0  0  0  0  0  0  0
   38.3767   10.8002  -18.6544 C   0  0  0  0  0  0  0  0  0  0  0  0
   38.0094   11.0929  -17.3310 C   0  0  0  0  0  0  0  0  0  0  0  0
 12 10  1  0  0  0
 10 11  2  0  0  0
 11  6  1  0  0  0
  6  7  2  0  0  0
  6  8  1  0  0  0
  8  5  1  0  0  0
  5  1  1  0  0  0
  1  2  2  0  0  0
  1  3  1  0  0  0
  3 25  1  0  0  0
 25 26  1  0  0  0
 26 27  2  0  0  0
 26 28  1  0  0  0
 28 30  1  0  0  0
 30 32  1  0  0  0
 32 33  1  0  0  0
 33 34  1  0  0  0
 33 35  2  0  0  0
 30 31  1  0  0  0
 25 37  1  0  0  0
 37 38  1  0  0  0
 38 39  2  0  0  0
 39 40  1  0  0  0
 40 41  2  0  0  0
 41 42  1  0  0  0
 42 43  2  0  0  0
  5 18  1  0  0  0
 18 19  1  0  0  0
 19 20  2  0  0  0
 20 21  1  0  0  0
 21 22  2  0  0  0
 22 23  1  0  0  0
 23 24  2  0  0  0
 12 13  2  0  0  0
 13 14  1  0  0  0
 14 15  2  0  0  0
 15 16  1  0  0  0
 16 17  2  0  0  0
 17 12  1  0  0  0
 43 38  1  0  0  0
 24 19  1  0  0  0
  8  9  1  0  0  0
  3  4  1  0  0  0
 28 29  1  0  0  0
 34 36  1  0  0  0
M  END
> <minimizedAffinity>
-7.82431

> <CNNscore>
0.1910862923

> <CNNaffinity>
6.2166376114

> <CNN_VS>
1.1879142523

> <CNNaffinity_variance>
0.2530007362

$$$$
[H]OC(=O)C([H])([H])[C@]([H])(N([H])C(=O)[C@@]([H])(N([H])C(=O)[C@@]([H])(N([H])C(=O)/C([H])=C(\[H])c1c([H])c([H])c([H])c([H])c1[H])C([H])([H])c1c([H])c([H])c([H])c([H])c1[H])C([H])([H])c1c([H])c([H])c([H])c([H])c1[H])C([H])([H])[H]


 43 45  0  0  0  0  0  0  0  0999 V2000
   42.7999   15.7429  -10.0757 C   0  0  0  0  0  0  0  0  0  0  0  0
   43.5142   16.6070   -9.5080 O   0  0  0  0  0  0  0  0  0  0  0  0
   43.2836   14.5062  -10.5027 N   0  0  0  0  0  0  0  0  0  0  0  0
   42.6533   13.8316  -11.0598 H   0  0  0  0  0  0  0  0  0  0  0  0
   41.3338   16.0854  -10.3168 C   0  0  0  0  0  0  0  0  0  0  0  0
   40.7209   15.6056  -12.6385 C   0  0  0  0  0  0  0  0  0  0  0  0
   41.1048   16.7642  -12.9681 O   0  0  0  0  0  0  0  0  0  0  0  0
   40.8392   15.1549  -11.2896 N   0  0  0  0  0  0  0  0  0  0  0  0
   40.5472   14.1654  -11.0581 H   0  0  0  0  0  0  0  0  0  0  0  0
   40.8427   13.9171  -14.3763 C   0  0  0  0  0  0  0  0  0  0  0  0
   40.1396   14.7800  -13.6987 C   0  0  0  0  0  0  0  0  0  0  0  0
   40.3301   13.0904  -15.4421 C   0  0  0  0  0  0  0  0  0  0  0  0
   41.1728   12.7889  -16.5030 C   0  0  0  0  0  0  0  0  0  0  0  0
   40.7053   12.0345  -17.5391 C   0  0  0  0  0  0  0  0  0  0  0  0
   39.4114   11.5672  -17.5502 C   0  0  0  0  0  0  0  0  0  0  0  0
   38.5709   11.8640  -16.4999 C   0  0  0  0  0  0  0  0  0  0  0  0
   39.0206   12.6329  -15.4267 C   0  0  0  0  0  0  0  0  0  0  0  0
   40.5886   16.1255   -9.0362 C   0  0  0  0  0  0  0  0  0  0  0  0
   39.1313   16.3389   -9.2912 C   0  0  0  0  0  0  0  0  0  0  0  0
   38.5559   17.4104   -9.8413 C   0  0  0  0  0  0  0  0  0  0  0  0
   37.1584   17.4662  -10.0053 C   0  0  0  0  0  0  0  0  0  0  0  0
   36.3645   16.4236   -9.6010 C   0  0  0  0  0  0  0  0  0  0  0  0
   36.9743   15.3122   -9.0292 C   0  0  0  0  0  0  0  0  0  0  0  0
   38.3134   15.2450   -8.8687 C   0  0  0  0  0  0  0  0  0  0  0  0
   44.6520   13.9705  -10.2998 C   0  0  0  0  0  0  0  0  0  0  0  0
   45.3948   14.4197  -11.5353 C   0  0  0  0  0  0  0  0  0  0  0  0
   46.6027   14.7079  -11.4698 O   0  0  0  0  0  0  0  0  0  0  0  0
   44.7675   14.5170  -12.8166 N   0  0  0  0  0  0  0  0  0  0  0  0
   43.7703   14.3051  -12.8614 H   0  0  0  0  0  0  0  0  0  0  0  0
   45.5099   14.8967  -13.9775 C   0  0  0  0  0  0  0  0  0  0  0  0
   45.5247   16.3811  -14.2727 C   0  0  0  0  0  0  0  0  0  0  0  0
   45.0331   14.1172  -15.1855 C   0  0  0  0  0  0  0  0  0  0  0  0
   45.7982   12.9018  -15.4505 C   0  0  0  0  0  0  0  0  0  0  0  0
   46.1685   12.6126  -16.7877 O   0  0  0  0  0  0  0  0  0  0  0  0
   46.1388   12.1078  -14.5781 O   0  0  0  0  0  0  0  0  0  0  0  0
   47.1376   12.4503  -17.0044 H   0  0  0  0  0  0  0  0  0  0  0  0
   44.4803   12.5107  -10.2463 C   0  0  0  0  0  0  0  0  0  0  0  0
   45.5275   11.5192  -10.1879 C   0  0  0  0  0  0  0  0  0  0  0  0
   46.0463   11.2274   -8.8963 C   0  0  0  0  0  0  0  0  0  0  0  0
   46.9652   10.2479   -8.6613 C   0  0  0  0  0  0  0  0  0  0  0  0
   47.4295    9.4856   -9.7377 C   0  0  0  0  0  0  0  0  0  0  0  0
   46.9612    9.7362  -11.0005 C   0  0  0  0  0  0  0  0  0  0  0  0
   46.0135   10.7520  -11.2060 C   0  0  0  0  0  0  0  0  0  0  0  0
 12 10  1  0  0  0
 10 11  2  0  0  0
 11  6  1  0  0  0
  6  7  2  0  0  0
  6  8  1  0  0  0
  8  5  1  0  0  0
  5  1  1  0  0  0
  1  2  2  0  0  0
  1  3  1  0  0  0
  3 25  1  0  0  0
 25 26  1  0  0  0
 26 27  2  0  0  0
 26 28  1  0  0  0
 28 30  1  0  0  0
 30 32  1  0  0  0
 32 33  1  0  0  0
 33 34  1  0  0  0
 33 35  2  0  0  0
 30 31  1  0  0  0
 25 37  1  0  0  0
 37 38  1  0  0  0
 38 39  2  0  0  0
 39 40  1  0  0  0
 40 41  2  0  0  0
 41 42  1  0  0  0
 42 43  2  0  0  0
  5 18  1  0  0  0
 18 19  1  0  0  0
 19 20  2  0  0  0
 20 21  1  0  0  0
 21 22  2  0  0  0
 22 23  1  0  0  0
 23 24  2  0  0  0
 12 13  2  0  0  0
 13 14  1  0  0  0
 14 15  2  0  0  0
 15 16  1  0  0  0
 16 17  2  0  0  0
 17 12  1  0  0  0
 43 38  1  0  0  0
 24 19  1  0  0  0
  8  9  1  0  0  0
  3  4  1  0  0  0
 28 29  1  0  0  0
 34 36  1  0  0  0
M  END
> <minimizedAffinity>
-7.98715

> <CNNscore>
0.1769483089

> <CNNaffinity>
5.7962999344

> <CNN_VS>
1.0256454945

> <CNNaffinity_variance>
0.5355378389

$$$$
[H]OC(=O)C([H])([H])[C@]([H])(N([H])C(=O)[C@@]([H])(N([H])C(=O)[C@@]([H])(N([H])C(=O)/C([H])=C(\[H])c1c([H])c([H])c([H])c([H])c1[H])C([H])([H])c1c([H])c([H])c([H])c([H])c1[H])C([H])([H])c1c([H])c([H])c([H])c([H])c1[H])C([H])([H])[H]


 43 45  0  0  0  0  0  0  0  0999 V2000
   40.8523   15.3531  -13.0115 C   0  0  0  0  0  0  0  0  0  0  0  0
   40.4374   16.5332  -13.1312 O   0  0  0  0  0  0  0  0  0  0  0  0
   40.0683   14.2318  -13.2830 N   0  0  0  0  0  0  0  0  0  0  0  0
   40.4407   13.2393  -13.0855 H   0  0  0  0  0  0  0  0  0  0  0  0
   42.2847   15.1530  -12.5288 C   0  0  0  0  0  0  0  0  0  0  0  0
   43.6507   16.1917  -10.7820 C   0  0  0  0  0  0  0  0  0  0  0  0
   44.6518   16.1464  -11.5527 O   0  0  0  0  0  0  0  0  0  0  0  0
   42.3722   15.7331  -11.2201 N   0  0  0  0  0  0  0  0  0  0  0  0
   41.5483   15.8249  -10.5639 H   0  0  0  0  0  0  0  0  0  0  0  0
   43.4646   16.0942   -8.3651 C   0  0  0  0  0  0  0  0  0  0  0  0
   43.8832   16.7121   -9.4335 C   0  0  0  0  0  0  0  0  0  0  0  0
   43.6478   16.5665   -7.0139 C   0  0  0  0  0  0  0  0  0  0  0  0
   43.1237   15.8081   -5.9762 C   0  0  0  0  0  0  0  0  0  0  0  0
   43.2556   16.2457   -4.6909 C   0  0  0  0  0  0  0  0  0  0  0  0
   43.8997   17.4275   -4.4055 C   0  0  0  0  0  0  0  0  0  0  0  0
   44.4211   18.1841   -5.4319 C   0  0  0  0  0  0  0  0  0  0  0  0
   44.3019   17.7622   -6.7559 C   0  0  0  0  0  0  0  0  0  0  0  0
   42.6733   13.7257  -12.6209 C   0  0  0  0  0  0  0  0  0  0  0  0
   43.2991   13.4436  -13.9486 C   0  0  0  0  0  0  0  0  0  0  0  0
   42.6764   13.1039  -15.0794 C   0  0  0  0  0  0  0  0  0  0  0  0
   43.4122   12.8579  -16.2546 C   0  0  0  0  0  0  0  0  0  0  0  0
   44.7799   12.9600  -16.2577 C   0  0  0  0  0  0  0  0  0  0  0  0
   45.4185   13.3146  -15.0743 C   0  0  0  0  0  0  0  0  0  0  0  0
   44.7245   13.5556  -13.9413 C   0  0  0  0  0  0  0  0  0  0  0  0
   38.6856   14.2248  -13.8204 C   0  0  0  0  0  0  0  0  0  0  0  0
   37.8642   14.8000  -12.6916 C   0  0  0  0  0  0  0  0  0  0  0  0
   38.1062   14.4798  -11.5146 O   0  0  0  0  0  0  0  0  0  0  0  0
   36.8036   15.7337  -12.9107 N   0  0  0  0  0  0  0  0  0  0  0  0
   36.5907   15.9739  -13.8794 H   0  0  0  0  0  0  0  0  0  0  0  0
   36.0773   16.2993  -11.8173 C   0  0  0  0  0  0  0  0  0  0  0  0
   36.9171   16.6776  -10.6163 C   0  0  0  0  0  0  0  0  0  0  0  0
   34.9433   15.3825  -11.4080 C   0  0  0  0  0  0  0  0  0  0  0  0
   34.4636   14.5131  -12.4788 C   0  0  0  0  0  0  0  0  0  0  0  0
   33.5186   15.0309  -13.3995 O   0  0  0  0  0  0  0  0  0  0  0  0
   34.8299   13.3507  -12.6279 O   0  0  0  0  0  0  0  0  0  0  0  0
   33.7190   14.9881  -14.3847 H   0  0  0  0  0  0  0  0  0  0  0  0
   38.3857   12.8064  -14.0683 C   0  0  0  0  0  0  0  0  0  0  0  0
   38.0256   12.2074  -15.3311 C   0  0  0  0  0  0  0  0  0  0  0  0
   39.1023   11.7532  -16.1418 C   0  0  0  0  0  0  0  0  0  0  0  0
   38.9258   11.0783  -17.3132 C   0  0  0  0  0  0  0  0  0  0  0  0
   37.6241   10.8145  -17.7507 C   0  0  0  0  0  0  0  0  0  0  0  0
   36.5567   11.2389  -17.0042 C   0  0  0  0  0  0  0  0  0  0  0  0
   36.7754   11.9302  -15.8015 C   0  0  0  0  0  0  0  0  0  0  0  0
 12 10  1  0  0  0
 10 11  2  0  0  0
 11  6  1  0  0  0
  6  7  2  0  0  0
  6  8  1  0  0  0
  8  5  1  0  0  0
  5  1  1  0  0  0
  1  2  2  0  0  0
  1  3  1  0  0  0
  3 25  1  0  0  0
 25 26  1  0  0  0
 26 27  2  0  0  0
 26 28  1  0  0  0
 28 30  1  0  0  0
 30 32  1  0  0  0
 32 33  1  0  0  0
 33 34  1  0  0  0
 33 35  2  0  0  0
 30 31  1  0  0  0
 25 37  1  0  0  0
 37 38  1  0  0  0
 38 39  2  0  0  0
 39 40  1  0  0  0
 40 41  2  0  0  0
 41 42  1  0  0  0
 42 43  2  0  0  0
  5 18  1  0  0  0
 18 19  1  0  0  0
 19 20  2  0  0  0
 20 21  1  0  0  0
 21 22  2  0  0  0
 22 23  1  0  0  0
 23 24  2  0  0  0
 12 13  2  0  0  0
 13 14  1  0  0  0
 14 15  2  0  0  0
 15 16  1  0  0  0
 16 17  2  0  0  0
 17 12  1  0  0  0
 43 38  1  0  0  0
 24 19  1  0  0  0
  8  9  1  0  0  0
  3  4  1  0  0  0
 28 29  1  0  0  0
 34 36  1  0  0  0
M  END
> <minimizedAffinity>
-8.38272

> <CNNscore>
0.1577482671

> <CNNaffinity>
6.0066785812

> <CNN_VS>
0.9475431442

> <CNNaffinity_variance>
0.2950198054

$$$$
[H]OC(=O)C([H])([H])[C@]([H])(N([H])C(=O)[C@@]([H])(N([H])C(=O)[C@@]([H])(N([H])C(=O)/C([H])=C(\[H])c1c([H])c([H])c([H])c([H])c1[H])C([H])([H])c1c([H])c([H])c([H])c([H])c1[H])C([H])([H])c1c([H])c([H])c([H])c([H])c1[H])C([H])([H])[H]


 43 45  0  0  0  0  0  0  0  0999 V2000
   38.2233   14.1137  -13.6626 C   0  0  0  0  0  0  0  0  0  0  0  0
   38.1960   13.2109  -12.7889 O   0  0  0  0  0  0  0  0  0  0  0  0
   37.1047   14.8621  -14.0293 N   0  0  0  0  0  0  0  0  0  0  0  0
   37.1577   15.5679  -14.8427 H   0  0  0  0  0  0  0  0  0  0  0  0
   39.5524   14.3828  -14.3596 C   0  0  0  0  0  0  0  0  0  0  0  0
   41.5429   15.0283  -13.0878 C   0  0  0  0  0  0  0  0  0  0  0  0
   42.0823   13.9264  -13.3932 O   0  0  0  0  0  0  0  0  0  0  0  0
   40.2457   15.3653  -13.5780 N   0  0  0  0  0  0  0  0  0  0  0  0
   39.8428   16.3127  -13.3370 H   0  0  0  0  0  0  0  0  0  0  0  0
   43.0289   15.4531  -11.2178 C   0  0  0  0  0  0  0  0  0  0  0  0
   42.3052   15.9091  -12.2010 C   0  0  0  0  0  0  0  0  0  0  0  0
   43.7857   16.2718  -10.3016 C   0  0  0  0  0  0  0  0  0  0  0  0
   44.8990   16.9437  -10.7871 C   0  0  0  0  0  0  0  0  0  0  0  0
   45.6506   17.7007   -9.9367 C   0  0  0  0  0  0  0  0  0  0  0  0
   45.3235   17.8093   -8.6048 C   0  0  0  0  0  0  0  0  0  0  0  0
   44.2199   17.1439   -8.1180 C   0  0  0  0  0  0  0  0  0  0  0  0
   43.4323   16.3627   -8.9633 C   0  0  0  0  0  0  0  0  0  0  0  0
   40.2878   13.1168  -14.5904 C   0  0  0  0  0  0  0  0  0  0  0  0
   40.1072   12.6627  -16.0030 C   0  0  0  0  0  0  0  0  0  0  0  0
   40.5822   13.2456  -17.1058 C   0  0  0  0  0  0  0  0  0  0  0  0
   40.3147   12.6984  -18.3755 C   0  0  0  0  0  0  0  0  0  0  0  0
   39.5602   11.5601  -18.5016 C   0  0  0  0  0  0  0  0  0  0  0  0
   39.0703   10.9610  -17.3462 C   0  0  0  0  0  0  0  0  0  0  0  0
   39.3218   11.4741  -16.1227 C   0  0  0  0  0  0  0  0  0  0  0  0
   35.7524   14.7917  -13.4234 C   0  0  0  0  0  0  0  0  0  0  0  0
   35.9492   15.3843  -12.0487 C   0  0  0  0  0  0  0  0  0  0  0  0
   36.1793   16.5993  -11.9175 O   0  0  0  0  0  0  0  0  0  0  0  0
   35.8652   14.6018  -10.8549 N   0  0  0  0  0  0  0  0  0  0  0  0
   35.7023   13.6007  -10.9678 H   0  0  0  0  0  0  0  0  0  0  0  0
   36.0060   15.2013   -9.5650 C   0  0  0  0  0  0  0  0  0  0  0  0
   37.2113   14.7432   -8.7725 C   0  0  0  0  0  0  0  0  0  0  0  0
   34.7368   15.0198   -8.7587 C   0  0  0  0  0  0  0  0  0  0  0  0
   33.6802   15.9728   -9.0876 C   0  0  0  0  0  0  0  0  0  0  0  0
   33.4375   17.0488   -8.1975 O   0  0  0  0  0  0  0  0  0  0  0  0
   32.9820   15.8947  -10.0945 O   0  0  0  0  0  0  0  0  0  0  0  0
   33.4544   17.9909   -8.5504 H   0  0  0  0  0  0  0  0  0  0  0  0
   35.4354   13.3562  -13.3771 C   0  0  0  0  0  0  0  0  0  0  0  0
   35.1773   12.4917  -14.5037 C   0  0  0  0  0  0  0  0  0  0  0  0
   33.8922   11.8841  -14.5491 C   0  0  0  0  0  0  0  0  0  0  0  0
   33.4595   11.1229  -15.5942 C   0  0  0  0  0  0  0  0  0  0  0  0
   34.3146   10.9211  -16.6820 C   0  0  0  0  0  0  0  0  0  0  0  0
   35.5641   11.4829  -16.6779 C   0  0  0  0  0  0  0  0  0  0  0  0
   35.9766   12.2628  -15.5854 C   0  0  0  0  0  0  0  0  0  0  0  0
 12 10  1  0  0  0
 10 11  2  0  0  0
 11  6  1  0  0  0
  6  7  2  0  0  0
  6  8  1  0  0  0
  8  5  1  0  0  0
  5  1  1  0  0  0
  1  2  2  0  0  0
  1  3  1  0  0  0
  3 25  1  0  0  0
 25 26  1  0  0  0
 26 27  2  0  0  0
 26 28  1  0  0  0
 28 30  1  0  0  0
 30 32  1  0  0  0
 32 33  1  0  0  0
 33 34  1  0  0  0
 33 35  2  0  0  0
 30 31  1  0  0  0
 25 37  1  0  0  0
 37 38  1  0  0  0
 38 39  2  0  0  0
 39 40  1  0  0  0
 40 41  2  0  0  0
 41 42  1  0  0  0
 42 43  2  0  0  0
  5 18  1  0  0  0
 18 19  1  0  0  0
 19 20  2  0  0  0
 20 21  1  0  0  0
 21 22  2  0  0  0
 22 23  1  0  0  0
 23 24  2  0  0  0
 12 13  2  0  0  0
 13 14  1  0  0  0
 14 15  2  0  0  0
 15 16  1  0  0  0
 16 17  2  0  0  0
 17 12  1  0  0  0
 43 38  1  0  0  0
 24 19  1  0  0  0
  8  9  1  0  0  0
  3  4  1  0  0  0
 28 29  1  0  0  0
 34 36  1  0  0  0
M  END
> <minimizedAffinity>
-8.43434

> <CNNscore>
0.1486157924

> <CNNaffinity>
6.5022535324

> <CNN_VS>
0.9663375616

> <CNNaffinity_variance>
0.0767826661

$$$$
[H]OC(=O)C([H])([H])[C@]([H])(N([H])C(=O)[C@@]([H])(N([H])C(=O)[C@@]([H])(N([H])C(=O)/C([H])=C(\[H])c1c([H])c([H])c([H])c([H])c1[H])C([H])([H])c1c([H])c([H])c([H])c([H])c1[H])C([H])([H])c1c([H])c([H])c([H])c([H])c1[H])C([H])([H])[H]


 43 45  0  0  0  0  0  0  0  0999 V2000
   41.5359   15.8101   -9.7479 C   0  0  0  0  0  0  0  0  0  0  0  0
   42.5931   16.2383  -10.2754 O   0  0  0  0  0  0  0  0  0  0  0  0
   41.5189   14.9290   -8.6667 N   0  0  0  0  0  0  0  0  0  0  0  0
   40.5886   14.5238   -8.3019 H   0  0  0  0  0  0  0  0  0  0  0  0
   40.2109   16.2755  -10.3418 C   0  0  0  0  0  0  0  0  0  0  0  0
   40.0716   15.5485  -12.6759 C   0  0  0  0  0  0  0  0  0  0  0  0
   40.6991   16.5885  -13.0263 O   0  0  0  0  0  0  0  0  0  0  0  0
   39.8081   15.2856  -11.2982 N   0  0  0  0  0  0  0  0  0  0  0  0
   39.3179   14.3856  -11.0383 H   0  0  0  0  0  0  0  0  0  0  0  0
   40.4534   13.9788  -14.4859 C   0  0  0  0  0  0  0  0  0  0  0  0
   39.6219   14.6601  -13.7492 C   0  0  0  0  0  0  0  0  0  0  0  0
   40.0710   13.1032  -15.5672 C   0  0  0  0  0  0  0  0  0  0  0  0
   38.8362   12.4732  -15.4970 C   0  0  0  0  0  0  0  0  0  0  0  0
   38.4614   11.6165  -16.4903 C   0  0  0  0  0  0  0  0  0  0  0  0
   39.2877   11.3660  -17.5615 C   0  0  0  0  0  0  0  0  0  0  0  0
   40.5145   11.9883  -17.6356 C   0  0  0  0  0  0  0  0  0  0  0  0
   40.9248   12.8693  -16.6352 C   0  0  0  0  0  0  0  0  0  0  0  0
   39.2290   16.5627   -9.2693 C   0  0  0  0  0  0  0  0  0  0  0  0
   37.8441   16.2521   -9.7380 C   0  0  0  0  0  0  0  0  0  0  0  0
   37.1377   16.9077  -10.6614 C   0  0  0  0  0  0  0  0  0  0  0  0
   35.8311   16.4960  -10.9876 C   0  0  0  0  0  0  0  0  0  0  0  0
   35.2608   15.4173  -10.3612 C   0  0  0  0  0  0  0  0  0  0  0  0
   36.0056   14.7415   -9.4008 C   0  0  0  0  0  0  0  0  0  0  0  0
   37.2603   15.1244   -9.0807 C   0  0  0  0  0  0  0  0  0  0  0  0
   42.6942   14.4209   -7.9175 C   0  0  0  0  0  0  0  0  0  0  0  0
   42.2295   13.0825   -7.3953 C   0  0  0  0  0  0  0  0  0  0  0  0
   41.2054   12.5507   -7.8587 O   0  0  0  0  0  0  0  0  0  0  0  0
   42.9358   12.3665   -6.3789 N   0  0  0  0  0  0  0  0  0  0  0  0
   43.7608   12.8178   -5.9826 H   0  0  0  0  0  0  0  0  0  0  0  0
   42.4987   11.0779   -5.9413 C   0  0  0  0  0  0  0  0  0  0  0  0
   41.9056   11.0398   -4.5493 C   0  0  0  0  0  0  0  0  0  0  0  0
   43.6212   10.0692   -6.0707 C   0  0  0  0  0  0  0  0  0  0  0  0
   44.9318   10.6643   -6.3178 C   0  0  0  0  0  0  0  0  0  0  0  0
   45.6613   11.1771   -5.2161 O   0  0  0  0  0  0  0  0  0  0  0  0
   45.4412   10.7510   -7.4316 O   0  0  0  0  0  0  0  0  0  0  0  0
   46.5997   10.8515   -5.0547 H   0  0  0  0  0  0  0  0  0  0  0  0
   42.9070   15.4013   -6.8420 C   0  0  0  0  0  0  0  0  0  0  0  0
   43.8569   16.4879   -6.8391 C   0  0  0  0  0  0  0  0  0  0  0  0
   44.9346   16.3840   -7.7614 C   0  0  0  0  0  0  0  0  0  0  0  0
   45.8570   17.3700   -7.9506 C   0  0  0  0  0  0  0  0  0  0  0  0
   45.7489   18.5478   -7.2046 C   0  0  0  0  0  0  0  0  0  0  0  0
   44.7296   18.6885   -6.3001 C   0  0  0  0  0  0  0  0  0  0  0  0
   43.7960   17.6531   -6.1320 C   0  0  0  0  0  0  0  0  0  0  0  0
 12 10  1  0  0  0
 10 11  2  0  0  0
 11  6  1  0  0  0
  6  7  2  0  0  0
  6  8  1  0  0  0
  8  5  1  0  0  0
  5  1  1  0  0  0
  1  2  2  0  0  0
  1  3  1  0  0  0
  3 25  1  0  0  0
 25 26  1  0  0  0
 26 27  2  0  0  0
 26 28  1  0  0  0
 28 30  1  0  0  0
 30 32  1  0  0  0
 32 33  1  0  0  0
 33 34  1  0  0  0
 33 35  2  0  0  0
 30 31  1  0  0  0
 25 37  1  0  0  0
 37 38  1  0  0  0
 38 39  2  0  0  0
 39 40  1  0  0  0
 40 41  2  0  0  0
 41 42  1  0  0  0
 42 43  2  0  0  0
  5 18  1  0  0  0
 18 19  1  0  0  0
 19 20  2  0  0  0
 20 21  1  0  0  0
 21 22  2  0  0  0
 22 23  1  0  0  0
 23 24  2  0  0  0
 12 13  2  0  0  0
 13 14  1  0  0  0
 14 15  2  0  0  0
 15 16  1  0  0  0
 16 17  2  0  0  0
 17 12  1  0  0  0
 43 38  1  0  0  0
 24 19  1  0  0  0
  8  9  1  0  0  0
  3  4  1  0  0  0
 28 29  1  0  0  0
 34 36  1  0  0  0
M  END
> <minimizedAffinity>
-7.33333

> <CNNscore>
0.1399148107

> <CNNaffinity>
5.6503663063

> <CNN_VS>
0.7905699611

> <CNNaffinity_variance>
0.2613054216

$$$$
[H]OC(=O)C([H])([H])[C@]([H])(N([H])C(=O)[C@@]([H])(N([H])C(=O)[C@@]([H])(N([H])C(=O)/C([H])=C(\[H])c1c([H])c([H])c([H])c([H])c1[H])C([H])([H])c1c([H])c([H])c([H])c([H])c1[H])C([H])([H])c1c([H])c([H])c([H])c([H])c1[H])C([H])([H])[H]


 43 45  0  0  0  0  0  0  0  0999 V2000
   39.9601   16.0245  -11.7219 C   0  0  0  0  0  0  0  0  0  0  0  0
   39.9856   17.2155  -11.3217 O   0  0  0  0  0  0  0  0  0  0  0  0
   38.8960   15.1555  -11.4805 N   0  0  0  0  0  0  0  0  0  0  0  0
   38.9557   14.1188  -11.7711 H   0  0  0  0  0  0  0  0  0  0  0  0
   41.1693   15.5134  -12.4974 C   0  0  0  0  0  0  0  0  0  0  0  0
   41.4079   13.7679  -14.1981 C   0  0  0  0  0  0  0  0  0  0  0  0
   42.4261   13.3296  -13.5902 O   0  0  0  0  0  0  0  0  0  0  0  0
   40.6706   14.8749  -13.6808 N   0  0  0  0  0  0  0  0  0  0  0  0
   39.8002   15.1882  -14.1928 H   0  0  0  0  0  0  0  0  0  0  0  0
   39.8373   12.7058  -15.7116 C   0  0  0  0  0  0  0  0  0  0  0  0
   41.0522   13.0985  -15.4506 C   0  0  0  0  0  0  0  0  0  0  0  0
   39.4312   12.0264  -16.9181 C   0  0  0  0  0  0  0  0  0  0  0  0
   38.2107   11.3653  -16.9207 C   0  0  0  0  0  0  0  0  0  0  0  0
   37.8151   10.6892  -18.0375 C   0  0  0  0  0  0  0  0  0  0  0  0
   38.6063   10.6512  -19.1624 C   0  0  0  0  0  0  0  0  0  0  0  0
   39.8188   11.3053  -19.1648 C   0  0  0  0  0  0  0  0  0  0  0  0
   40.2497   12.0049  -18.0379 C   0  0  0  0  0  0  0  0  0  0  0  0
   42.1446   16.6060  -12.7252 C   0  0  0  0  0  0  0  0  0  0  0  0
   43.4441   16.2880  -12.0587 C   0  0  0  0  0  0  0  0  0  0  0  0
   43.6973   16.2726  -10.7482 C   0  0  0  0  0  0  0  0  0  0  0  0
   44.9859   15.9619  -10.2727 C   0  0  0  0  0  0  0  0  0  0  0  0
   46.0029   15.6727  -11.1463 C   0  0  0  0  0  0  0  0  0  0  0  0
   45.7281   15.6916  -12.5094 C   0  0  0  0  0  0  0  0  0  0  0  0
   44.4963   15.9853  -12.9782 C   0  0  0  0  0  0  0  0  0  0  0  0
   37.6158   15.4856  -10.8077 C   0  0  0  0  0  0  0  0  0  0  0  0
   37.9685   15.4528   -9.3399 C   0  0  0  0  0  0  0  0  0  0  0  0
   37.4211   16.2383   -8.5464 O   0  0  0  0  0  0  0  0  0  0  0  0
   38.9136   14.5272   -8.7968 N   0  0  0  0  0  0  0  0  0  0  0  0
   39.3801   13.9020   -9.4547 H   0  0  0  0  0  0  0  0  0  0  0  0
   39.1888   14.4869   -7.3948 C   0  0  0  0  0  0  0  0  0  0  0  0
   40.6490   14.6291   -7.0230 C   0  0  0  0  0  0  0  0  0  0  0  0
   38.6008   13.2343   -6.7787 C   0  0  0  0  0  0  0  0  0  0  0  0
   37.1978   13.3613   -6.3940 C   0  0  0  0  0  0  0  0  0  0  0  0
   36.2384   13.6160   -7.4058 O   0  0  0  0  0  0  0  0  0  0  0  0
   36.7973   13.2637   -5.2374 O   0  0  0  0  0  0  0  0  0  0  0  0
   35.4475   13.0008   -7.4981 H   0  0  0  0  0  0  0  0  0  0  0  0
   36.6993   14.4009  -11.1904 C   0  0  0  0  0  0  0  0  0  0  0  0
   36.4160   13.9412  -12.5289 C   0  0  0  0  0  0  0  0  0  0  0  0
   36.1061   12.5600  -12.6674 C   0  0  0  0  0  0  0  0  0  0  0  0
   35.7200   11.9929  -13.8456 C   0  0  0  0  0  0  0  0  0  0  0  0
   35.6212   12.8003  -14.9830 C   0  0  0  0  0  0  0  0  0  0  0  0
   35.9160   14.1354  -14.8968 C   0  0  0  0  0  0  0  0  0  0  0  0
   36.3091   14.6866  -13.6665 C   0  0  0  0  0  0  0  0  0  0  0  0
 12 10  1  0  0  0
 10 11  2  0  0  0
 11  6  1  0  0  0
  6  7  2  0  0  0
  6  8  1  0  0  0
  8  5  1  0  0  0
  5  1  1  0  0  0
  1  2  2  0  0  0
  1  3  1  0  0  0
  3 25  1  0  0  0
 25 26  1  0  0  0
 26 27  2  0  0  0
 26 28  1  0  0  0
 28 30  1  0  0  0
 30 32  1  0  0  0
 32 33  1  0  0  0
 33 34  1  0  0  0
 33 35  2  0  0  0
 30 31  1  0  0  0
 25 37  1  0  0  0
 37 38  1  0  0  0
 38 39  2  0  0  0
 39 40  1  0  0  0
 40 41  2  0  0  0
 41 42  1  0  0  0
 42 43  2  0  0  0
  5 18  1  0  0  0
 18 19  1  0  0  0
 19 20  2  0  0  0
 20 21  1  0  0  0
 21 22  2  0  0  0
 22 23  1  0  0  0
 23 24  2  0  0  0
 12 13  2  0  0  0
 13 14  1  0  0  0
 14 15  2  0  0  0
 15 16  1  0  0  0
 16 17  2  0  0  0
 17 12  1  0  0  0
 43 38  1  0  0  0
 24 19  1  0  0  0
  8  9  1  0  0  0
  3  4  1  0  0  0
 28 29  1  0  0  0
 34 36  1  0  0  0
M  END
> <minimizedAffinity>
-8.35883

> <CNNscore>
0.1288352758

> <CNNaffinity>
6.2440075874

> <CNN_VS>
0.8044484258

> <CNNaffinity_variance>
0.2482554466

$$$$
[H]C1=C(S(=O)(=O)C([H])([H])C([H])([H])c2c([H])c([H])c([H])c([H])c2[H])C([H])([H])[C@]([H])(N([H])C(=O)C([H])([H])[H])[C@@]([H])(N([H])C(=O)[C@@]([H])(C([H])([H])[H])C([H])([H])C([H])(C([H])([H])[H])C([H])([H])[H])[C@@]([H])(C([H])(C([H])([H])[H])C([H])([H])[H])OC1([H])[H]


 37 38  0  0  0  0  0  0  0  0999 V2000
   35.1572   14.6932   -8.2337 C   0  0  0  0  0  0  0  0  0  0  0  0
   34.6768   14.9066   -6.8612 C   0  0  0  0  0  0  0  0  0  0  0  0
   35.1737   15.1329   -5.6534 C   0  0  0  0  0  0  0  0  0  0  0  0
   36.5071   15.2809   -5.0809 C   0  0  0  0  0  0  0  0  0  0  0  0
   37.4007   16.2884   -5.7497 C   0  0  0  0  0  0  0  0  0  0  0  0
   38.0461   15.8278   -7.0138 C   0  0  0  0  0  0  0  0  0  0  0  0
   37.1681   15.8248   -8.2069 C   0  0  0  0  0  0  0  0  0  0  0  0
   36.5186   14.5719   -8.2939 O   0  0  0  0  0  0  0  0  0  0  0  0
   36.7061   17.5428   -5.8350 N   0  0  0  0  0  0  0  0  0  0  0  0
   37.1960   18.7868   -5.4350 C   0  0  0  0  0  0  0  0  0  0  0  0
   36.3696   20.0068   -5.5801 C   0  0  0  0  0  0  0  0  0  0  0  0
   38.3333   18.8829   -4.9519 O   0  0  0  0  0  0  0  0  0  0  0  0
   35.7433   17.5027   -6.2360 H   0  0  0  0  0  0  0  0  0  0  0  0
   38.4798   14.4531   -6.7819 N   0  0  0  0  0  0  0  0  0  0  0  0
   39.8098   14.1057   -6.4655 C   0  0  0  0  0  0  0  0  0  0  0  0
   40.6963   14.9917   -6.3673 O   0  0  0  0  0  0  0  0  0  0  0  0
   37.7384   13.7225   -6.8654 H   0  0  0  0  0  0  0  0  0  0  0  0
   40.1758   12.7066   -6.2525 C   0  0  0  0  0  0  0  0  0  0  0  0
   40.7529   12.1186   -7.5721 C   0  0  0  0  0  0  0  0  0  0  0  0
   41.1542   12.3907   -5.2015 C   0  0  0  0  0  0  0  0  0  0  0  0
   42.4335   11.7553   -5.5212 C   0  0  0  0  0  0  0  0  0  0  0  0
   43.6416   12.5794   -5.2295 C   0  0  0  0  0  0  0  0  0  0  0  0
   42.6303   10.4114   -4.8306 C   0  0  0  0  0  0  0  0  0  0  0  0
   33.8293   15.2731   -4.4976 S   0  0  0  0  0  0  0  0  0  0  0  0
   32.5589   14.8027   -5.0976 O   0  0  0  0  0  0  0  0  0  0  0  0
   34.2050   14.3285   -3.3633 O   0  0  0  0  0  0  0  0  0  0  0  0
   33.6561   16.9178   -3.9317 C   0  0  0  0  0  0  0  0  0  0  0  0
   32.2743   17.4282   -3.7918 C   0  0  0  0  0  0  0  0  0  0  0  0
   31.7714   18.2806   -4.8666 C   0  0  0  0  0  0  0  0  0  0  0  0
   30.5506   18.0859   -5.4840 C   0  0  0  0  0  0  0  0  0  0  0  0
   30.1478   18.9506   -6.4757 C   0  0  0  0  0  0  0  0  0  0  0  0
   30.8978   20.0209   -6.9027 C   0  0  0  0  0  0  0  0  0  0  0  0
   32.1251   20.2007   -6.2685 C   0  0  0  0  0  0  0  0  0  0  0  0
   32.5374   19.3497   -5.2824 C   0  0  0  0  0  0  0  0  0  0  0  0
   37.8692   16.0178   -9.5259 C   0  0  0  0  0  0  0  0  0  0  0  0
   37.0901   16.8921  -10.4779 C   0  0  0  0  0  0  0  0  0  0  0  0
   39.2540   16.6064   -9.3982 C   0  0  0  0  0  0  0  0  0  0  0  0
  1  2  1  0  0  0
  2  3  2  0  0  0
  3 24  1  0  0  0
 24 27  1  0  0  0
 27 28  1  0  0  0
 28 29  1  0  0  0
 29 30  2  0  0  0
 30 31  1  0  0  0
 31 32  2  0  0  0
 32 33  1  0  0  0
 33 34  2  0  0  0
 24 25  2  0  0  0
 24 26  2  0  0  0
  3  4  1  0  0  0
  4  5  1  0  0  0
  5  9  1  0  0  0
  9 10  1  0  0  0
 10 11  1  0  0  0
 10 12  2  0  0  0
  5  6  1  0  0  0
  6 14  1  0  0  0
 14 15  1  0  0  0
 15 16  2  0  0  0
 15 18  1  0  0  0
 18 20  1  0  0  0
 20 21  1  0  0  0
 21 22  1  0  0  0
 21 23  1  0  0  0
 18 19  1  0  0  0
  6  7  1  0  0  0
  7 35  1  0  0  0
 35 36  1  0  0  0
 35 37  1  0  0  0
  7  8  1  0  0  0
  8  1  1  0  0  0
 34 29  1  0  0  0
  9 13  1  0  0  0
 14 17  1  0  0  0
M  END
> <minimizedAffinity>
-5.54048

> <CNNscore>
0.1771338135

> <CNNaffinity>
5.3373098373

> <CNN_VS>
0.9454180598

> <CNNaffinity_variance>
0.3754352629

$$$$
[H]C1=C(S(=O)(=O)C([H])([H])C([H])([H])c2c([H])c([H])c([H])c([H])c2[H])C([H])([H])[C@]([H])(N([H])C(=O)C([H])([H])[H])[C@@]([H])(N([H])C(=O)[C@@]([H])(C([H])([H])[H])C([H])([H])C([H])(C([H])([H])[H])C([H])([H])[H])[C@@]([H])(C([H])(C([H])([H])[H])C([H])([H])[H])OC1([H])[H]


 37 38  0  0  0  0  0  0  0  0999 V2000
   37.7115   15.3150   -6.5040 C   0  0  0  0  0  0  0  0  0  0  0  0
   38.9114   14.4921   -6.2966 C   0  0  0  0  0  0  0  0  0  0  0  0
   39.9626   14.0687   -6.9841 C   0  0  0  0  0  0  0  0  0  0  0  0
   40.4518   14.2231   -8.3495 C   0  0  0  0  0  0  0  0  0  0  0  0
   40.5640   15.6362   -8.8510 C   0  0  0  0  0  0  0  0  0  0  0  0
   39.2816   16.2602   -9.2901 C   0  0  0  0  0  0  0  0  0  0  0  0
   38.3982   16.7258   -8.1960 C   0  0  0  0  0  0  0  0  0  0  0  0
   37.5433   15.6658   -7.8157 O   0  0  0  0  0  0  0  0  0  0  0  0
   41.3319   16.4043   -7.9109 N   0  0  0  0  0  0  0  0  0  0  0  0
   42.7216   16.4037   -7.7838 C   0  0  0  0  0  0  0  0  0  0  0  0
   43.3880   17.2483   -6.7666 C   0  0  0  0  0  0  0  0  0  0  0  0
   43.4151   15.6923   -8.5250 O   0  0  0  0  0  0  0  0  0  0  0  0
   40.7827   17.0158   -7.2676 H   0  0  0  0  0  0  0  0  0  0  0  0
   38.5562   15.2369  -10.0375 N   0  0  0  0  0  0  0  0  0  0  0  0
   38.3814   15.2806  -11.4364 C   0  0  0  0  0  0  0  0  0  0  0  0
   38.8580   16.2280  -12.1114 O   0  0  0  0  0  0  0  0  0  0  0  0
   38.1630   14.4533   -9.4704 H   0  0  0  0  0  0  0  0  0  0  0  0
   37.6371   14.2242  -12.1199 C   0  0  0  0  0  0  0  0  0  0  0  0
   36.2648   14.0227  -11.4153 C   0  0  0  0  0  0  0  0  0  0  0  0
   37.3422   14.3884  -13.5508 C   0  0  0  0  0  0  0  0  0  0  0  0
   37.4672   13.2687  -14.4853 C   0  0  0  0  0  0  0  0  0  0  0  0
   37.8739   11.9721  -13.8710 C   0  0  0  0  0  0  0  0  0  0  0  0
   36.1988   13.0063  -15.2875 C   0  0  0  0  0  0  0  0  0  0  0  0
   40.9779   13.0683   -5.9204 S   0  0  0  0  0  0  0  0  0  0  0  0
   42.0223   13.8841   -5.2581 O   0  0  0  0  0  0  0  0  0  0  0  0
   40.0188   12.5557   -4.8538 O   0  0  0  0  0  0  0  0  0  0  0  0
   41.7124   11.7534   -6.8076 C   0  0  0  0  0  0  0  0  0  0  0  0
   42.8232   11.0414   -6.1378 C   0  0  0  0  0  0  0  0  0  0  0  0
   44.1798   11.3950   -6.5491 C   0  0  0  0  0  0  0  0  0  0  0  0
   45.3122   10.7941   -6.0333 C   0  0  0  0  0  0  0  0  0  0  0  0
   46.5512   11.1767   -6.4936 C   0  0  0  0  0  0  0  0  0  0  0  0
   46.7410   12.1402   -7.4558 C   0  0  0  0  0  0  0  0  0  0  0  0
   45.5878   12.7343   -7.9637 C   0  0  0  0  0  0  0  0  0  0  0  0
   44.3514   12.3640   -7.5156 C   0  0  0  0  0  0  0  0  0  0  0  0
   37.4945   17.8801   -8.5417 C   0  0  0  0  0  0  0  0  0  0  0  0
   37.2896   18.8271   -7.3847 C   0  0  0  0  0  0  0  0  0  0  0  0
   37.9741   18.6968   -9.7179 C   0  0  0  0  0  0  0  0  0  0  0  0
  1  2  1  0  0  0
  2  3  2  0  0  0
  3 24  1  0  0  0
 24 27  1  0  0  0
 27 28  1  0  0  0
 28 29  1  0  0  0
 29 30  2  0  0  0
 30 31  1  0  0  0
 31 32  2  0  0  0
 32 33  1  0  0  0
 33 34  2  0  0  0
 24 25  2  0  0  0
 24 26  2  0  0  0
  3  4  1  0  0  0
  4  5  1  0  0  0
  5  9  1  0  0  0
  9 10  1  0  0  0
 10 11  1  0  0  0
 10 12  2  0  0  0
  5  6  1  0  0  0
  6 14  1  0  0  0
 14 15  1  0  0  0
 15 16  2  0  0  0
 15 18  1  0  0  0
 18 20  1  0  0  0
 20 21  1  0  0  0
 21 22  1  0  0  0
 21 23  1  0  0  0
 18 19  1  0  0  0
  6  7  1  0  0  0
  7 35  1  0  0  0
 35 36  1  0  0  0
 35 37  1  0  0  0
  7  8  1  0  0  0
  8  1  1  0  0  0
 34 29  1  0  0  0
  9 13  1  0  0  0
 14 17  1  0  0  0
M  END
> <minimizedAffinity>
-6.15332

> <CNNscore>
0.1730323285

> <CNNaffinity>
5.7400383949

> <CNN_VS>
0.9932122231

> <CNNaffinity_variance>
0.0827673674

$$$$
[H]C1=C(S(=O)(=O)C([H])([H])C([H])([H])c2c([H])c([H])c([H])c([H])c2[H])C([H])([H])[C@]([H])(N([H])C(=O)C([H])([H])[H])[C@@]([H])(N([H])C(=O)[C@@]([H])(C([H])([H])[H])C([H])([H])C([H])(C([H])([H])[H])C([H])([H])[H])[C@@]([H])(C([H])(C([H])([H])[H])C([H])([H])[H])OC1([H])[H]


 37 38  0  0  0  0  0  0  0  0999 V2000
   34.8088   18.1748   -7.1340 C   0  0  0  0  0  0  0  0  0  0  0  0
   33.9611   17.1079   -6.5834 C   0  0  0  0  0  0  0  0  0  0  0  0
   33.8335   15.7912   -6.6665 C   0  0  0  0  0  0  0  0  0  0  0  0
   34.5080   14.7175   -7.3873 C   0  0  0  0  0  0  0  0  0  0  0  0
   36.0036   14.6663   -7.2403 C   0  0  0  0  0  0  0  0  0  0  0  0
   36.7601   15.6411   -8.0794 C   0  0  0  0  0  0  0  0  0  0  0  0
   36.7654   17.0353   -7.5788 C   0  0  0  0  0  0  0  0  0  0  0  0
   35.6481   17.7175   -8.1130 O   0  0  0  0  0  0  0  0  0  0  0  0
   36.3344   14.6709   -5.8424 N   0  0  0  0  0  0  0  0  0  0  0  0
   37.4398   14.0555   -5.2535 C   0  0  0  0  0  0  0  0  0  0  0  0
   37.6621   14.1394   -3.7921 C   0  0  0  0  0  0  0  0  0  0  0  0
   38.2503   13.4295   -5.9517 O   0  0  0  0  0  0  0  0  0  0  0  0
   35.6740   15.1876   -5.2209 H   0  0  0  0  0  0  0  0  0  0  0  0
   36.1186   15.6459   -9.3910 N   0  0  0  0  0  0  0  0  0  0  0  0
   36.8000   15.3312  -10.5852 C   0  0  0  0  0  0  0  0  0  0  0  0
   38.0191   15.0249  -10.5645 O   0  0  0  0  0  0  0  0  0  0  0  0
   35.1062   15.9013   -9.4006 H   0  0  0  0  0  0  0  0  0  0  0  0
   36.0961   15.3624  -11.8661 C   0  0  0  0  0  0  0  0  0  0  0  0
   37.1151   15.1338  -13.0193 C   0  0  0  0  0  0  0  0  0  0  0  0
   35.0041   14.4036  -12.0889 C   0  0  0  0  0  0  0  0  0  0  0  0
   34.9205   13.6212  -13.3233 C   0  0  0  0  0  0  0  0  0  0  0  0
   35.2650   12.1771  -13.1836 C   0  0  0  0  0  0  0  0  0  0  0  0
   33.5540   13.6934  -13.9933 C   0  0  0  0  0  0  0  0  0  0  0  0
   32.4876   15.2790   -5.6229 S   0  0  0  0  0  0  0  0  0  0  0  0
   32.6572   13.8738   -5.1849 O   0  0  0  0  0  0  0  0  0  0  0  0
   32.5922   16.1807   -4.3997 O   0  0  0  0  0  0  0  0  0  0  0  0
   30.9524   15.4761   -6.4353 C   0  0  0  0  0  0  0  0  0  0  0  0
   30.9323   16.3860   -7.6020 C   0  0  0  0  0  0  0  0  0  0  0  0
   30.8348   15.7678   -8.9221 C   0  0  0  0  0  0  0  0  0  0  0  0
   29.7920   14.9442   -9.3014 C   0  0  0  0  0  0  0  0  0  0  0  0
   29.7713   14.4200  -10.5735 C   0  0  0  0  0  0  0  0  0  0  0  0
   30.7429   14.6678  -11.5142 C   0  0  0  0  0  0  0  0  0  0  0  0
   31.7856   15.5001  -11.1133 C   0  0  0  0  0  0  0  0  0  0  0  0
   31.8187   16.0273   -9.8534 C   0  0  0  0  0  0  0  0  0  0  0  0
   37.9699   17.8548   -7.9613 C   0  0  0  0  0  0  0  0  0  0  0  0
   39.2269   17.0270   -8.0728 C   0  0  0  0  0  0  0  0  0  0  0  0
   37.8055   18.6084   -9.2595 C   0  0  0  0  0  0  0  0  0  0  0  0
  1  2  1  0  0  0
  2  3  2  0  0  0
  3 24  1  0  0  0
 24 27  1  0  0  0
 27 28  1  0  0  0
 28 29  1  0  0  0
 29 30  2  0  0  0
 30 31  1  0  0  0
 31 32  2  0  0  0
 32 33  1  0  0  0
 33 34  2  0  0  0
 24 25  2  0  0  0
 24 26  2  0  0  0
  3  4  1  0  0  0
  4  5  1  0  0  0
  5  9  1  0  0  0
  9 10  1  0  0  0
 10 11  1  0  0  0
 10 12  2  0  0  0
  5  6  1  0  0  0
  6 14  1  0  0  0
 14 15  1  0  0  0
 15 16  2  0  0  0
 15 18  1  0  0  0
 18 20  1  0  0  0
 20 21  1  0  0  0
 21 22  1  0  0  0
 21 23  1  0  0  0
 18 19  1  0  0  0
  6  7  1  0  0  0
  7 35  1  0  0  0
 35 36  1  0  0  0
 35 37  1  0  0  0
  7  8  1  0  0  0
  8  1  1  0  0  0
 34 29  1  0  0  0
  9 13  1  0  0  0
 14 17  1  0  0  0
M  END
> <minimizedAffinity>
-6.86832

> <CNNscore>
0.1720126867

> <CNNaffinity>
6.1738195419

> <CNN_VS>
1.0619752407

> <CNNaffinity_variance>
0.1587910354

$$$$
[H]C1=C(S(=O)(=O)C([H])([H])C([H])([H])c2c([H])c([H])c([H])c([H])c2[H])C([H])([H])[C@]([H])(N([H])C(=O)C([H])([H])[H])[C@@]([H])(N([H])C(=O)[C@@]([H])(C([H])([H])[H])C([H])([H])C([H])(C([H])([H])[H])C([H])([H])[H])[C@@]([H])(C([H])(C([H])([H])[H])C([H])([H])[H])OC1([H])[H]


 37 38  0  0  0  0  0  0  0  0999 V2000
   35.4942   14.7630   -8.6444 C   0  0  0  0  0  0  0  0  0  0  0  0
   34.7414   14.7433   -7.3822 C   0  0  0  0  0  0  0  0  0  0  0  0
   34.9755   14.8068   -6.0792 C   0  0  0  0  0  0  0  0  0  0  0  0
   36.1570   14.9283   -5.2325 C   0  0  0  0  0  0  0  0  0  0  0  0
   37.0844   16.0660   -5.5587 C   0  0  0  0  0  0  0  0  0  0  0  0
   37.9962   15.8330   -6.7167 C   0  0  0  0  0  0  0  0  0  0  0  0
   37.3696   15.9699   -8.0520 C   0  0  0  0  0  0  0  0  0  0  0  0
   36.8466   14.7158   -8.4427 O   0  0  0  0  0  0  0  0  0  0  0  0
   36.3263   17.2852   -5.6080 N   0  0  0  0  0  0  0  0  0  0  0  0
   35.9417   18.0632   -4.5152 C   0  0  0  0  0  0  0  0  0  0  0  0
   35.1575   19.3040   -4.7094 C   0  0  0  0  0  0  0  0  0  0  0  0
   36.2544   17.7212   -3.3656 O   0  0  0  0  0  0  0  0  0  0  0  0
   36.0428   17.6057   -6.5600 H   0  0  0  0  0  0  0  0  0  0  0  0
   38.4798   14.4607   -6.5951 N   0  0  0  0  0  0  0  0  0  0  0  0
   39.8360   14.1356   -6.3839 C   0  0  0  0  0  0  0  0  0  0  0  0
   40.7034   15.0405   -6.2886 O   0  0  0  0  0  0  0  0  0  0  0  0
   37.7539   13.7144   -6.6755 H   0  0  0  0  0  0  0  0  0  0  0  0
   40.2514   12.7380   -6.2783 C   0  0  0  0  0  0  0  0  0  0  0  0
   40.9848   12.3187   -7.5847 C   0  0  0  0  0  0  0  0  0  0  0  0
   41.1372   12.3523   -5.1700 C   0  0  0  0  0  0  0  0  0  0  0  0
   42.3754   11.6095   -5.4107 C   0  0  0  0  0  0  0  0  0  0  0  0
   43.6257   12.3100   -4.9988 C   0  0  0  0  0  0  0  0  0  0  0  0
   42.3936   10.2355   -4.7524 C   0  0  0  0  0  0  0  0  0  0  0  0
   33.4254   14.7073   -5.2129 S   0  0  0  0  0  0  0  0  0  0  0  0
   32.7190   13.4434   -5.5271 O   0  0  0  0  0  0  0  0  0  0  0  0
   33.8149   14.6881   -3.7405 O   0  0  0  0  0  0  0  0  0  0  0  0
   32.4065   16.0770   -5.5889 C   0  0  0  0  0  0  0  0  0  0  0  0
   31.0716   15.7749   -6.1515 C   0  0  0  0  0  0  0  0  0  0  0  0
   31.0101   15.4571   -7.5762 C   0  0  0  0  0  0  0  0  0  0  0  0
   30.3449   14.3565   -8.0821 C   0  0  0  0  0  0  0  0  0  0  0  0
   30.3223   14.1450   -9.4416 C   0  0  0  0  0  0  0  0  0  0  0  0
   30.9324   14.9762  -10.3511 C   0  0  0  0  0  0  0  0  0  0  0  0
   31.5976   16.0800   -9.8221 C   0  0  0  0  0  0  0  0  0  0  0  0
   31.6280   16.3021   -8.4743 C   0  0  0  0  0  0  0  0  0  0  0  0
   38.2969   16.3931   -9.1608 C   0  0  0  0  0  0  0  0  0  0  0  0
   38.3719   15.3799  -10.2768 C   0  0  0  0  0  0  0  0  0  0  0  0
   37.9389   17.7237   -9.7785 C   0  0  0  0  0  0  0  0  0  0  0  0
  1  2  1  0  0  0
  2  3  2  0  0  0
  3 24  1  0  0  0
 24 27  1  0  0  0
 27 28  1  0  0  0
 28 29  1  0  0  0
 29 30  2  0  0  0
 30 31  1  0  0  0
 31 32  2  0  0  0
 32 33  1  0  0  0
 33 34  2  0  0  0
 24 25  2  0  0  0
 24 26  2  0  0  0
  3  4  1  0  0  0
  4  5  1  0  0  0
  5  9  1  0  0  0
  9 10  1  0  0  0
 10 11  1  0  0  0
 10 12  2  0  0  0
  5  6  1  0  0  0
  6 14  1  0  0  0
 14 15  1  0  0  0
 15 16  2  0  0  0
 15 18  1  0  0  0
 18 20  1  0  0  0
 20 21  1  0  0  0
 21 22  1  0  0  0
 21 23  1  0  0  0
 18 19  1  0  0  0
  6  7  1  0  0  0
  7 35  1  0  0  0
 35 36  1  0  0  0
 35 37  1  0  0  0
  7  8  1  0  0  0
  8  1  1  0  0  0
 34 29  1  0  0  0
  9 13  1  0  0  0
 14 17  1  0  0  0
M  END
> <minimizedAffinity>
-6.20224

> <CNNscore>
0.1680731028

> <CNNaffinity>
5.5250334740

> <CNN_VS>
0.9286094904

> <CNNaffinity_variance>
0.2626313269

$$$$
[H]C1=C(S(=O)(=O)C([H])([H])C([H])([H])c2c([H])c([H])c([H])c([H])c2[H])C([H])([H])[C@]([H])(N([H])C(=O)C([H])([H])[H])[C@@]([H])(N([H])C(=O)[C@@]([H])(C([H])([H])[H])C([H])([H])C([H])(C([H])([H])[H])C([H])([H])[H])[C@@]([H])(C([H])(C([H])([H])[H])C([H])([H])[H])OC1([H])[H]


 37 38  0  0  0  0  0  0  0  0999 V2000
   38.4799   17.7927   -5.6137 C   0  0  0  0  0  0  0  0  0  0  0  0
   38.4870   16.3346   -5.7982 C   0  0  0  0  0  0  0  0  0  0  0  0
   37.6582   15.3723   -6.1773 C   0  0  0  0  0  0  0  0  0  0  0  0
   36.2674   15.2990   -6.6108 C   0  0  0  0  0  0  0  0  0  0  0  0
   35.8818   16.2163   -7.7381 C   0  0  0  0  0  0  0  0  0  0  0  0
   35.6365   17.6359   -7.3491 C   0  0  0  0  0  0  0  0  0  0  0  0
   36.8542   18.4464   -7.1152 C   0  0  0  0  0  0  0  0  0  0  0  0
   37.2289   18.3277   -5.7570 O   0  0  0  0  0  0  0  0  0  0  0  0
   36.7989   16.0263   -8.8273 N   0  0  0  0  0  0  0  0  0  0  0  0
   36.4800   16.0330  -10.1859 C   0  0  0  0  0  0  0  0  0  0  0  0
   37.5291   15.8235  -11.2095 C   0  0  0  0  0  0  0  0  0  0  0  0
   35.3096   16.2153  -10.5507 O   0  0  0  0  0  0  0  0  0  0  0  0
   37.7954   15.8684   -8.5600 H   0  0  0  0  0  0  0  0  0  0  0  0
   34.8837   17.5998   -6.0986 N   0  0  0  0  0  0  0  0  0  0  0  0
   33.7852   18.4440   -5.8339 C   0  0  0  0  0  0  0  0  0  0  0  0
   33.4014   19.2818   -6.6891 O   0  0  0  0  0  0  0  0  0  0  0  0
   35.2081   16.9019   -5.3930 H   0  0  0  0  0  0  0  0  0  0  0  0
   33.0806   18.3585   -4.5559 C   0  0  0  0  0  0  0  0  0  0  0  0
   32.6265   19.7818   -4.1220 C   0  0  0  0  0  0  0  0  0  0  0  0
   31.8871   17.5041   -4.4698 C   0  0  0  0  0  0  0  0  0  0  0  0
   30.9092   17.4538   -5.5579 C   0  0  0  0  0  0  0  0  0  0  0  0
   30.6818   16.1017   -6.1442 C   0  0  0  0  0  0  0  0  0  0  0  0
   29.5446   18.0097   -5.1704 C   0  0  0  0  0  0  0  0  0  0  0  0
   38.5175   13.8166   -6.1108 S   0  0  0  0  0  0  0  0  0  0  0  0
   38.8781   13.4655   -4.7173 O   0  0  0  0  0  0  0  0  0  0  0  0
   37.5013   12.8006   -6.6158 O   0  0  0  0  0  0  0  0  0  0  0  0
   39.9483   13.8457   -7.1146 C   0  0  0  0  0  0  0  0  0  0  0  0
   40.6973   12.5755   -7.2374 C   0  0  0  0  0  0  0  0  0  0  0  0
   41.7793   12.3499   -6.2819 C   0  0  0  0  0  0  0  0  0  0  0  0
   42.1103   11.1026   -5.7878 C   0  0  0  0  0  0  0  0  0  0  0  0
   43.1585   10.9803   -4.9048 C   0  0  0  0  0  0  0  0  0  0  0  0
   43.9161   12.0427   -4.4716 C   0  0  0  0  0  0  0  0  0  0  0  0
   43.5673   13.2917   -4.9806 C   0  0  0  0  0  0  0  0  0  0  0  0
   42.5289   13.4274   -5.8580 C   0  0  0  0  0  0  0  0  0  0  0  0
   36.7076   19.9228   -7.3745 C   0  0  0  0  0  0  0  0  0  0  0  0
   36.6421   20.7344   -6.1038 C   0  0  0  0  0  0  0  0  0  0  0  0
   37.8102   20.5029   -8.2278 C   0  0  0  0  0  0  0  0  0  0  0  0
  1  2  1  0  0  0
  2  3  2  0  0  0
  3 24  1  0  0  0
 24 27  1  0  0  0
 27 28  1  0  0  0
 28 29  1  0  0  0
 29 30  2  0  0  0
 30 31  1  0  0  0
 31 32  2  0  0  0
 32 33  1  0  0  0
 33 34  2  0  0  0
 24 25  2  0  0  0
 24 26  2  0  0  0
  3  4  1  0  0  0
  4  5  1  0  0  0
  5  9  1  0  0  0
  9 10  1  0  0  0
 10 11  1  0  0  0
 10 12  2  0  0  0
  5  6  1  0  0  0
  6 14  1  0  0  0
 14 15  1  0  0  0
 15 16  2  0  0  0
 15 18  1  0  0  0
 18 20  1  0  0  0
 20 21  1  0  0  0
 21 22  1  0  0  0
 21 23  1  0  0  0
 18 19  1  0  0  0
  6  7  1  0  0  0
  7 35  1  0  0  0
 35 36  1  0  0  0
 35 37  1  0  0  0
  7  8  1  0  0  0
  8  1  1  0  0  0
 34 29  1  0  0  0
  9 13  1  0  0  0
 14 17  1  0  0  0
M  END
> <minimizedAffinity>
-5.82373

> <CNNscore>
0.1653508991

> <CNNaffinity>
5.4695439339

> <CNN_VS>
0.9043940306

> <CNNaffinity_variance>
0.2368699759

$$$$
[H]C1=C(S(=O)(=O)C([H])([H])C([H])([H])c2c([H])c([H])c([H])c([H])c2[H])C([H])([H])[C@]([H])(N([H])C(=O)C([H])([H])[H])[C@@]([H])(N([H])C(=O)[C@@]([H])(C([H])([H])[H])C([H])([H])C([H])(C([H])([H])[H])C([H])([H])[H])[C@@]([H])(C([H])(C([H])([H])[H])C([H])([H])[H])OC1([H])[H]


 37 38  0  0  0  0  0  0  0  0999 V2000
   35.0792   17.9196   -6.6787 C   0  0  0  0  0  0  0  0  0  0  0  0
   35.4221   16.6755   -5.9755 C   0  0  0  0  0  0  0  0  0  0  0  0
   36.2787   15.6700   -6.0856 C   0  0  0  0  0  0  0  0  0  0  0  0
   37.3431   15.2982   -7.0110 C   0  0  0  0  0  0  0  0  0  0  0  0
   38.3862   16.3500   -7.2688 C   0  0  0  0  0  0  0  0  0  0  0  0
   37.9885   17.4197   -8.2302 C   0  0  0  0  0  0  0  0  0  0  0  0
   37.0862   18.4587   -7.6817 C   0  0  0  0  0  0  0  0  0  0  0  0
   35.7467   18.0452   -7.8663 O   0  0  0  0  0  0  0  0  0  0  0  0
   38.9007   16.8138   -6.0104 N   0  0  0  0  0  0  0  0  0  0  0  0
   40.1381   16.4880   -5.4536 C   0  0  0  0  0  0  0  0  0  0  0  0
   40.5454   17.0397   -4.1414 C   0  0  0  0  0  0  0  0  0  0  0  0
   40.9121   15.7295   -6.0553 O   0  0  0  0  0  0  0  0  0  0  0  0
   38.2764   17.4546   -5.4727 H   0  0  0  0  0  0  0  0  0  0  0  0
   37.2835   16.7554   -9.3227 N   0  0  0  0  0  0  0  0  0  0  0  0
   37.8513   16.5523  -10.5978 C   0  0  0  0  0  0  0  0  0  0  0  0
   39.0188   16.9456  -10.8482 O   0  0  0  0  0  0  0  0  0  0  0  0
   36.3144   16.4316   -9.1076 H   0  0  0  0  0  0  0  0  0  0  0  0
   37.0849   15.8847  -11.6484 C   0  0  0  0  0  0  0  0  0  0  0  0
   37.1554   14.3449  -11.4379 C   0  0  0  0  0  0  0  0  0  0  0  0
   35.6589   16.2132  -11.7917 C   0  0  0  0  0  0  0  0  0  0  0  0
   34.6200   15.3444  -11.2360 C   0  0  0  0  0  0  0  0  0  0  0  0
   33.9821   15.8401   -9.9826 C   0  0  0  0  0  0  0  0  0  0  0  0
   33.4974   15.0392  -12.2200 C   0  0  0  0  0  0  0  0  0  0  0  0
   36.0003   14.5309   -4.7485 S   0  0  0  0  0  0  0  0  0  0  0  0
   36.5901   13.2047   -5.0461 O   0  0  0  0  0  0  0  0  0  0  0  0
   36.7512   15.1385   -3.5707 O   0  0  0  0  0  0  0  0  0  0  0  0
   34.2939   14.3687   -4.4061 C   0  0  0  0  0  0  0  0  0  0  0  0
   33.4369   13.8994   -5.5175 C   0  0  0  0  0  0  0  0  0  0  0  0
   32.2487   14.6944   -5.8184 C   0  0  0  0  0  0  0  0  0  0  0  0
   32.0269   15.9567   -5.3016 C   0  0  0  0  0  0  0  0  0  0  0  0
   30.8874   16.6424   -5.6549 C   0  0  0  0  0  0  0  0  0  0  0  0
   29.9325   16.1424   -6.5084 C   0  0  0  0  0  0  0  0  0  0  0  0
   30.1738   14.8689   -7.0190 C   0  0  0  0  0  0  0  0  0  0  0  0
   31.3010   14.1769   -6.6766 C   0  0  0  0  0  0  0  0  0  0  0  0
   37.1919   19.8142   -8.3298 C   0  0  0  0  0  0  0  0  0  0  0  0
   36.0597   20.7347   -7.9443 C   0  0  0  0  0  0  0  0  0  0  0  0
   38.4850   20.5334   -8.0281 C   0  0  0  0  0  0  0  0  0  0  0  0
  1  2  1  0  0  0
  2  3  2  0  0  0
  3 24  1  0  0  0
 24 27  1  0  0  0
 27 28  1  0  0  0
 28 29  1  0  0  0
 29 30  2  0  0  0
 30 31  1  0  0  0
 31 32  2  0  0  0
 32 33  1  0  0  0
 33 34  2  0  0  0
 24 25  2  0  0  0
 24 26  2  0  0  0
  3  4  1  0  0  0
  4  5  1  0  0  0
  5  9  1  0  0  0
  9 10  1  0  0  0
 10 11  1  0  0  0
 10 12  2  0  0  0
  5  6  1  0  0  0
  6 14  1  0  0  0
 14 15  1  0  0  0
 15 16  2  0  0  0
 15 18  1  0  0  0
 18 20  1  0  0  0
 20 21  1  0  0  0
 21 22  1  0  0  0
 21 23  1  0  0  0
 18 19  1  0  0  0
  6  7  1  0  0  0
  7 35  1  0  0  0
 35 36  1  0  0  0
 35 37  1  0  0  0
  7  8  1  0  0  0
  8  1  1  0  0  0
 34 29  1  0  0  0
  9 13  1  0  0  0
 14 17  1  0  0  0
M  END
> <minimizedAffinity>
-5.82979

> <CNNscore>
0.1635458618

> <CNNaffinity>
5.6203012466

> <CNN_VS>
0.9191769958

> <CNNaffinity_variance>
0.1199939698

$$$$
[H]C1=C(S(=O)(=O)C([H])([H])C([H])([H])c2c([H])c([H])c([H])c([H])c2[H])C([H])([H])[C@]([H])(N([H])C(=O)C([H])([H])[H])[C@@]([H])(N([H])C(=O)[C@@]([H])(C([H])([H])[H])C([H])([H])C([H])(C([H])([H])[H])C([H])([H])[H])[C@@]([H])(C([H])(C([H])([H])[H])C([H])([H])[H])OC1([H])[H]


 37 38  0  0  0  0  0  0  0  0999 V2000
   38.4049   14.6591   -8.3844 C   0  0  0  0  0  0  0  0  0  0  0  0
   39.5663   14.0441   -7.7264 C   0  0  0  0  0  0  0  0  0  0  0  0
   40.8791   13.9625   -7.8900 C   0  0  0  0  0  0  0  0  0  0  0  0
   41.8470   14.4683   -8.8570 C   0  0  0  0  0  0  0  0  0  0  0  0
   41.8033   15.9486   -9.1169 C   0  0  0  0  0  0  0  0  0  0  0  0
   40.7188   16.4024  -10.0360 C   0  0  0  0  0  0  0  0  0  0  0  0
   39.3681   16.4755   -9.4321 C   0  0  0  0  0  0  0  0  0  0  0  0
   38.7291   15.2238   -9.5876 O   0  0  0  0  0  0  0  0  0  0  0  0
   41.8777   16.6441   -7.8622 N   0  0  0  0  0  0  0  0  0  0  0  0
   43.0387   16.9206   -7.1391 C   0  0  0  0  0  0  0  0  0  0  0  0
   42.9720   17.6499   -5.8522 C   0  0  0  0  0  0  0  0  0  0  0  0
   44.1427   16.5564   -7.5691 O   0  0  0  0  0  0  0  0  0  0  0  0
   40.9672   16.9661   -7.4665 H   0  0  0  0  0  0  0  0  0  0  0  0
   40.6633   15.4311  -11.1246 N   0  0  0  0  0  0  0  0  0  0  0  0
   40.7253   15.7930  -12.4865 C   0  0  0  0  0  0  0  0  0  0  0  0
   40.8352   16.9991  -12.8236 O   0  0  0  0  0  0  0  0  0  0  0  0
   40.5718   14.4314  -10.8373 H   0  0  0  0  0  0  0  0  0  0  0  0
   40.6573   14.7673  -13.5259 C   0  0  0  0  0  0  0  0  0  0  0  0
   41.9524   13.9062  -13.4852 C   0  0  0  0  0  0  0  0  0  0  0  0
   39.5343   13.8186  -13.5015 C   0  0  0  0  0  0  0  0  0  0  0  0
   38.8073   13.4709  -14.7235 C   0  0  0  0  0  0  0  0  0  0  0  0
   39.6442   12.9044  -15.8201 C   0  0  0  0  0  0  0  0  0  0  0  0
   37.6590   12.4977  -14.4875 C   0  0  0  0  0  0  0  0  0  0  0  0
   41.5600   12.9748   -6.5771 S   0  0  0  0  0  0  0  0  0  0  0  0
   41.7898   13.7893   -5.3610 O   0  0  0  0  0  0  0  0  0  0  0  0
   40.4751   11.9499   -6.2724 O   0  0  0  0  0  0  0  0  0  0  0  0
   43.0475   12.2046   -7.0768 C   0  0  0  0  0  0  0  0  0  0  0  0
   44.1201   12.1140   -6.0614 C   0  0  0  0  0  0  0  0  0  0  0  0
   44.1903   10.8811   -5.2807 C   0  0  0  0  0  0  0  0  0  0  0  0
   45.0333   10.7127   -4.1988 C   0  0  0  0  0  0  0  0  0  0  0  0
   45.0194    9.5225   -3.5084 C   0  0  0  0  0  0  0  0  0  0  0  0
   44.2026    8.4649   -3.8318 C   0  0  0  0  0  0  0  0  0  0  0  0
   43.3601    8.6537   -4.9252 C   0  0  0  0  0  0  0  0  0  0  0  0
   43.3637    9.8302   -5.6196 C   0  0  0  0  0  0  0  0  0  0  0  0
   38.4399   17.4908  -10.0454 C   0  0  0  0  0  0  0  0  0  0  0  0
   37.2645   16.8568  -10.7483 C   0  0  0  0  0  0  0  0  0  0  0  0
   37.8919   18.4903   -9.0549 C   0  0  0  0  0  0  0  0  0  0  0  0
  1  2  1  0  0  0
  2  3  2  0  0  0
  3 24  1  0  0  0
 24 27  1  0  0  0
 27 28  1  0  0  0
 28 29  1  0  0  0
 29 30  2  0  0  0
 30 31  1  0  0  0
 31 32  2  0  0  0
 32 33  1  0  0  0
 33 34  2  0  0  0
 24 25  2  0  0  0
 24 26  2  0  0  0
  3  4  1  0  0  0
  4  5  1  0  0  0
  5  9  1  0  0  0
  9 10  1  0  0  0
 10 11  1  0  0  0
 10 12  2  0  0  0
  5  6  1  0  0  0
  6 14  1  0  0  0
 14 15  1  0  0  0
 15 16  2  0  0  0
 15 18  1  0  0  0
 18 20  1  0  0  0
 20 21  1  0  0  0
 21 22  1  0  0  0
 21 23  1  0  0  0
 18 19  1  0  0  0
  6  7  1  0  0  0
  7 35  1  0  0  0
 35 36  1  0  0  0
 35 37  1  0  0  0
  7  8  1  0  0  0
  8  1  1  0  0  0
 34 29  1  0  0  0
  9 13  1  0  0  0
 14 17  1  0  0  0
M  END
> <minimizedAffinity>
-6.89804

> <CNNscore>
0.1604807377

> <CNNaffinity>
5.7280797958

> <CNN_VS>
0.9192464948

> <CNNaffinity_variance>
0.0655509233

$$$$
[H]C1=C(S(=O)(=O)C([H])([H])C([H])([H])c2c([H])c([H])c([H])c([H])c2[H])C([H])([H])[C@]([H])(N([H])C(=O)C([H])([H])[H])[C@@]([H])(N([H])C(=O)[C@@]([H])(C([H])([H])[H])C([H])([H])C([H])(C([H])([H])[H])C([H])([H])[H])[C@@]([H])(C([H])(C([H])([H])[H])C([H])([H])[H])OC1([H])[H]


 37 38  0  0  0  0  0  0  0  0999 V2000
   38.3060   13.9010   -7.6225 C   0  0  0  0  0  0  0  0  0  0  0  0
   37.6038   14.7644   -8.5824 C   0  0  0  0  0  0  0  0  0  0  0  0
   37.8161   15.8843   -9.2588 C   0  0  0  0  0  0  0  0  0  0  0  0
   38.9057   16.8470   -9.3742 C   0  0  0  0  0  0  0  0  0  0  0  0
   40.2571   16.2735   -9.6992 C   0  0  0  0  0  0  0  0  0  0  0  0
   40.9830   15.6611   -8.5482 C   0  0  0  0  0  0  0  0  0  0  0  0
   40.5142   14.3133   -8.1504 C   0  0  0  0  0  0  0  0  0  0  0  0
   39.4826   14.4518   -7.1934 O   0  0  0  0  0  0  0  0  0  0  0  0
   40.1423   15.4437  -10.8662 N   0  0  0  0  0  0  0  0  0  0  0  0
   40.2942   15.8559  -12.1907 C   0  0  0  0  0  0  0  0  0  0  0  0
   40.1487   14.8908  -13.3041 C   0  0  0  0  0  0  0  0  0  0  0  0
   40.5537   17.0400  -12.4492 O   0  0  0  0  0  0  0  0  0  0  0  0
   39.9229   14.4387  -10.6892 H   0  0  0  0  0  0  0  0  0  0  0  0
   40.7823   16.5519   -7.4090 N   0  0  0  0  0  0  0  0  0  0  0  0
   41.8150   16.9108   -6.5179 C   0  0  0  0  0  0  0  0  0  0  0  0
   42.9800   16.4656   -6.6761 O   0  0  0  0  0  0  0  0  0  0  0  0
   39.8123   16.9177   -7.2837 H   0  0  0  0  0  0  0  0  0  0  0  0
   41.5413   17.8033   -5.3929 C   0  0  0  0  0  0  0  0  0  0  0  0
   42.5514   18.9863   -5.4166 C   0  0  0  0  0  0  0  0  0  0  0  0
   40.2053   18.4081   -5.2874 C   0  0  0  0  0  0  0  0  0  0  0  0
   39.2735   18.0113   -4.2306 C   0  0  0  0  0  0  0  0  0  0  0  0
   37.9897   18.7694   -4.1992 C   0  0  0  0  0  0  0  0  0  0  0  0
   38.9186   16.5299   -4.2625 C   0  0  0  0  0  0  0  0  0  0  0  0
   36.3762   16.2434  -10.2390 S   0  0  0  0  0  0  0  0  0  0  0  0
   35.2953   16.8218   -9.4071 O   0  0  0  0  0  0  0  0  0  0  0  0
   36.8448   17.3049  -11.2258 O   0  0  0  0  0  0  0  0  0  0  0  0
   35.8031   14.8115  -11.0618 C   0  0  0  0  0  0  0  0  0  0  0  0
   35.5952   14.9253  -12.5225 C   0  0  0  0  0  0  0  0  0  0  0  0
   36.2055   13.8956  -13.3602 C   0  0  0  0  0  0  0  0  0  0  0  0
   37.0908   12.9497  -12.8794 C   0  0  0  0  0  0  0  0  0  0  0  0
   37.6027   12.0036  -13.7374 C   0  0  0  0  0  0  0  0  0  0  0  0
   37.2836   11.9358  -15.0731 C   0  0  0  0  0  0  0  0  0  0  0  0
   36.3899   12.8975  -15.5389 C   0  0  0  0  0  0  0  0  0  0  0  0
   35.8740   13.8427  -14.6980 C   0  0  0  0  0  0  0  0  0  0  0  0
   41.5533   13.4301   -7.5111 C   0  0  0  0  0  0  0  0  0  0  0  0
   41.0537   12.0279   -7.2624 C   0  0  0  0  0  0  0  0  0  0  0  0
   42.8325   13.3223   -8.3064 C   0  0  0  0  0  0  0  0  0  0  0  0
  1  2  1  0  0  0
  2  3  2  0  0  0
  3 24  1  0  0  0
 24 27  1  0  0  0
 27 28  1  0  0  0
 28 29  1  0  0  0
 29 30  2  0  0  0
 30 31  1  0  0  0
 31 32  2  0  0  0
 32 33  1  0  0  0
 33 34  2  0  0  0
 24 25  2  0  0  0
 24 26  2  0  0  0
  3  4  1  0  0  0
  4  5  1  0  0  0
  5  9  1  0  0  0
  9 10  1  0  0  0
 10 11  1  0  0  0
 10 12  2  0  0  0
  5  6  1  0  0  0
  6 14  1  0  0  0
 14 15  1  0  0  0
 15 16  2  0  0  0
 15 18  1  0  0  0
 18 20  1  0  0  0
 20 21  1  0  0  0
 21 22  1  0  0  0
 21 23  1  0  0  0
 18 19  1  0  0  0
  6  7  1  0  0  0
  7 35  1  0  0  0
 35 36  1  0  0  0
 35 37  1  0  0  0
  7  8  1  0  0  0
  8  1  1  0  0  0
 34 29  1  0  0  0
  9 13  1  0  0  0
 14 17  1  0  0  0
M  END
> <minimizedAffinity>
-6.85668

> <CNNscore>
0.1308841258

> <CNNaffinity>
5.5524249077

> <CNN_VS>
0.7267242670

> <CNNaffinity_variance>
0.1935394704

$$$$
[H]C1=C(S(=O)(=O)C([H])([H])C([H])([H])c2c([H])c([H])c([H])c([H])c2[H])C([H])([H])[C@]([H])(N([H])C(=O)C([H])([H])[H])[C@@]([H])(N([H])C(=O)[C@@]([H])(C([H])([H])[H])C([H])([H])C([H])(C([H])([H])[H])C([H])([H])[H])[C@@]([H])(C([H])(C([H])([H])[H])C([H])([H])[H])OC1([H])[H]


 37 38  0  0  0  0  0  0  0  0999 V2000
   37.9603   17.3823   -5.7365 C   0  0  0  0  0  0  0  0  0  0  0  0
   38.5106   16.0253   -5.8622 C   0  0  0  0  0  0  0  0  0  0  0  0
   38.3191   14.9338   -6.5894 C   0  0  0  0  0  0  0  0  0  0  0  0
   37.4182   14.5380   -7.6661 C   0  0  0  0  0  0  0  0  0  0  0  0
   37.3665   15.4612   -8.8518 C   0  0  0  0  0  0  0  0  0  0  0  0
   36.5342   16.6863   -8.6696 C   0  0  0  0  0  0  0  0  0  0  0  0
   37.1611   17.7625   -7.8675 C   0  0  0  0  0  0  0  0  0  0  0  0
   36.8425   17.5621   -6.5046 O   0  0  0  0  0  0  0  0  0  0  0  0
   38.7043   15.6904   -9.3222 N   0  0  0  0  0  0  0  0  0  0  0  0
   39.0775   16.0033  -10.6299 C   0  0  0  0  0  0  0  0  0  0  0  0
   40.5005   16.2153  -10.9797 C   0  0  0  0  0  0  0  0  0  0  0  0
   38.2169   16.1071  -11.5159 O   0  0  0  0  0  0  0  0  0  0  0  0
   39.4581   15.6106   -8.6047 H   0  0  0  0  0  0  0  0  0  0  0  0
   35.3224   16.2655   -7.9724 N   0  0  0  0  0  0  0  0  0  0  0  0
   34.1052   15.9972   -8.6326 C   0  0  0  0  0  0  0  0  0  0  0  0
   34.0158   16.1124   -9.8813 O   0  0  0  0  0  0  0  0  0  0  0  0
   35.4039   16.1721   -6.9356 H   0  0  0  0  0  0  0  0  0  0  0  0
   32.9278   15.5858   -7.8702 C   0  0  0  0  0  0  0  0  0  0  0  0
   33.3261   14.4562   -6.8773 C   0  0  0  0  0  0  0  0  0  0  0  0
   32.2193   16.5989   -7.0744 C   0  0  0  0  0  0  0  0  0  0  0  0
   30.7943   16.8646   -7.2784 C   0  0  0  0  0  0  0  0  0  0  0  0
   29.8918   16.3345   -6.2162 C   0  0  0  0  0  0  0  0  0  0  0  0
   30.4728   18.3449   -7.4422 C   0  0  0  0  0  0  0  0  0  0  0  0
   39.4730   13.6862   -6.0651 S   0  0  0  0  0  0  0  0  0  0  0  0
   39.3671   13.4402   -4.6080 O   0  0  0  0  0  0  0  0  0  0  0  0
   39.0295   12.4275   -6.7994 O   0  0  0  0  0  0  0  0  0  0  0  0
   41.1111   14.1294   -6.4843 C   0  0  0  0  0  0  0  0  0  0  0  0
   41.9922   14.5402   -5.3687 C   0  0  0  0  0  0  0  0  0  0  0  0
   42.0462   15.9669   -5.0585 C   0  0  0  0  0  0  0  0  0  0  0  0
   41.5514   16.5102   -3.8882 C   0  0  0  0  0  0  0  0  0  0  0  0
   41.6623   17.8644   -3.6705 C   0  0  0  0  0  0  0  0  0  0  0  0
   42.2469   18.7328   -4.5618 C   0  0  0  0  0  0  0  0  0  0  0  0
   42.7396   18.1665   -5.7354 C   0  0  0  0  0  0  0  0  0  0  0  0
   42.6361   16.8235   -5.9644 C   0  0  0  0  0  0  0  0  0  0  0  0
   36.7073   19.1608   -8.1953 C   0  0  0  0  0  0  0  0  0  0  0  0
   35.6457   19.6662   -7.2490 C   0  0  0  0  0  0  0  0  0  0  0  0
   37.8253   20.1759   -8.2078 C   0  0  0  0  0  0  0  0  0  0  0  0
  1  2  1  0  0  0
  2  3  2  0  0  0
  3 24  1  0  0  0
 24 27  1  0  0  0
 27 28  1  0  0  0
 28 29  1  0  0  0
 29 30  2  0  0  0
 30 31  1  0  0  0
 31 32  2  0  0  0
 32 33  1  0  0  0
 33 34  2  0  0  0
 24 25  2  0  0  0
 24 26  2  0  0  0
  3  4  1  0  0  0
  4  5  1  0  0  0
  5  9  1  0  0  0
  9 10  1  0  0  0
 10 11  1  0  0  0
 10 12  2  0  0  0
  5  6  1  0  0  0
  6 14  1  0  0  0
 14 15  1  0  0  0
 15 16  2  0  0  0
 15 18  1  0  0  0
 18 20  1  0  0  0
 20 21  1  0  0  0
 21 22  1  0  0  0
 21 23  1  0  0  0
 18 19  1  0  0  0
  6  7  1  0  0  0
  7 35  1  0  0  0
 35 36  1  0  0  0
 35 37  1  0  0  0
  7  8  1  0  0  0
  8  1  1  0  0  0
 34 29  1  0  0  0
  9 13  1  0  0  0
 14 17  1  0  0  0
M  END
> <minimizedAffinity>
-5.63834

> <CNNscore>
0.1212063953

> <CNNaffinity>
5.3558378220

> <CNN_VS>
0.6491618156

> <CNNaffinity_variance>
0.4081264436

$$$$
[H]c1c([H])c([H])c(-c2c([H])c([H])c(C3([H])C([H])([H])C4([H])N([H])C3([H])C([H])([H])C4([H])[H])c([H])c2[H])c(Br)c1[H]


 21 24  0  0  0  0  0  0  0  0999 V2000
   40.2968   13.4333  -14.6785 C   0  0  0  0  0  0  0  0  0  0  0  0
   39.3837   12.4125  -14.6510 C   0  0  0  0  0  0  0  0  0  0  0  0
   38.0430   12.6429  -14.3332 C   0  0  0  0  0  0  0  0  0  0  0  0
   37.5781   13.8985  -14.0341 C   0  0  0  0  0  0  0  0  0  0  0  0
   38.5038   14.9118  -14.0646 C   0  0  0  0  0  0  0  0  0  0  0  0
   39.8291   14.7084  -14.3751 C   0  0  0  0  0  0  0  0  0  0  0  0
   36.1904   14.2000  -13.7054 C   0  0  0  0  0  0  0  0  0  0  0  0
   35.5552   13.2504  -12.7163 C   0  0  0  0  0  0  0  0  0  0  0  0
   34.1477   13.1113  -13.2245 C   0  0  0  0  0  0  0  0  0  0  0  0
   34.1635   12.0475  -14.2976 C   0  0  0  0  0  0  0  0  0  0  0  0
   34.9686   12.7545  -15.3857 C   0  0  0  0  0  0  0  0  0  0  0  0
   35.2122   14.1394  -14.8437 C   0  0  0  0  0  0  0  0  0  0  0  0
   33.9610   14.3041  -14.0648 N   0  0  0  0  0  0  0  0  0  0  0  0
   34.1124   15.1136  -13.4189 H   0  0  0  0  0  0  0  0  0  0  0  0
   40.7599   12.2238  -17.5220 Br  0  0  0  0  0  0  0  0  0  0  0  0
   42.0846   12.6767  -16.2197 C   0  0  0  0  0  0  0  0  0  0  0  0
   43.4385   12.4625  -16.5202 C   0  0  0  0  0  0  0  0  0  0  0  0
   44.4192   12.7926  -15.6139 C   0  0  0  0  0  0  0  0  0  0  0  0
   44.0341   13.3378  -14.4068 C   0  0  0  0  0  0  0  0  0  0  0  0
   42.7097   13.5449  -14.1177 C   0  0  0  0  0  0  0  0  0  0  0  0
   41.7012   13.2172  -15.0217 C   0  0  0  0  0  0  0  0  0  0  0  0
 15 16  1  0  0  0
 16 17  2  0  0  0
 17 18  1  0  0  0
 18 19  2  0  0  0
 19 20  1  0  0  0
 20 21  2  0  0  0
 21  1  1  0  0  0
  1  2  2  0  0  0
  2  3  1  0  0  0
  3  4  2  0  0  0
  4  5  1  0  0  0
  5  6  2  0  0  0
  4  7  1  0  0  0
  7  8  1  0  0  0
  8  9  1  0  0  0
  9 10  1  0  0  0
 10 11  1  0  0  0
 11 12  1  0  0  0
 12 13  1  0  0  0
 21 16  1  0  0  0
  6  1  1  0  0  0
 12  7  1  0  0  0
 13  9  1  0  0  0
 13 14  1  0  0  0
M  END
> <minimizedAffinity>
-7.67428

> <CNNscore>
0.6677370667

> <CNNaffinity>
6.2623047829

> <CNN_VS>
4.1815729141

> <CNNaffinity_variance>
0.1004747748

$$$$
[H]c1c([H])c([H])c(-c2c([H])c([H])c(C3([H])C([H])([H])C4([H])N([H])C3([H])C([H])([H])C4([H])[H])c([H])c2[H])c(Br)c1[H]


 21 24  0  0  0  0  0  0  0  0999 V2000
   40.0535   12.3317  -16.2541 C   0  0  0  0  0  0  0  0  0  0  0  0
   40.4391   13.2323  -15.2966 C   0  0  0  0  0  0  0  0  0  0  0  0
   41.7674   13.6492  -15.1818 C   0  0  0  0  0  0  0  0  0  0  0  0
   42.7464   13.1779  -16.0195 C   0  0  0  0  0  0  0  0  0  0  0  0
   42.3462   12.2757  -16.9737 C   0  0  0  0  0  0  0  0  0  0  0  0
   41.0438   11.8510  -17.1056 C   0  0  0  0  0  0  0  0  0  0  0  0
   44.1448   13.5840  -15.9532 C   0  0  0  0  0  0  0  0  0  0  0  0
   45.1366   12.4460  -16.0224 C   0  0  0  0  0  0  0  0  0  0  0  0
   46.2159   12.8686  -15.0657 C   0  0  0  0  0  0  0  0  0  0  0  0
   45.7738   12.4529  -13.6818 C   0  0  0  0  0  0  0  0  0  0  0  0
   44.5887   13.3921  -13.4688 C   0  0  0  0  0  0  0  0  0  0  0  0
   44.5745   14.2746  -14.6904 C   0  0  0  0  0  0  0  0  0  0  0  0
   46.0329   14.3238  -14.9544 N   0  0  0  0  0  0  0  0  0  0  0  0
   46.1507   14.6843  -15.9300 H   0  0  0  0  0  0  0  0  0  0  0  0
   39.4209   10.9443  -18.9814 Br  0  0  0  0  0  0  0  0  0  0  0  0
   38.2116   11.2835  -17.5397 C   0  0  0  0  0  0  0  0  0  0  0  0
   36.8717   10.8857  -17.6648 C   0  0  0  0  0  0  0  0  0  0  0  0
   35.9781   11.0982  -16.6408 C   0  0  0  0  0  0  0  0  0  0  0  0
   36.4360   11.7110  -15.4930 C   0  0  0  0  0  0  0  0  0  0  0  0
   37.7463   12.0981  -15.3757 C   0  0  0  0  0  0  0  0  0  0  0  0
   38.6671   11.8923  -16.4012 C   0  0  0  0  0  0  0  0  0  0  0  0
 15 16  1  0  0  0
 16 17  2  0  0  0
 17 18  1  0  0  0
 18 19  2  0  0  0
 19 20  1  0  0  0
 20 21  2  0  0  0
 21  1  1  0  0  0
  1  2  2  0  0  0
  2  3  1  0  0  0
  3  4  2  0  0  0
  4  5  1  0  0  0
  5  6  2  0  0  0
  4  7  1  0  0  0
  7  8  1  0  0  0
  8  9  1  0  0  0
  9 10  1  0  0  0
 10 11  1  0  0  0
 11 12  1  0  0  0
 12 13  1  0  0  0
 21 16  1  0  0  0
  6  1  1  0  0  0
 12  7  1  0  0  0
 13  9  1  0  0  0
 13 14  1  0  0  0
M  END
> <minimizedAffinity>
-8.31253

> <CNNscore>
0.5202084184

> <CNNaffinity>
5.7116913795

> <CNN_VS>
2.9712698460

> <CNNaffinity_variance>
0.0327380374

$$$$
[H]c1c([H])c([H])c(-c2c([H])c([H])c(C3([H])C([H])([H])C4([H])N([H])C3([H])C([H])([H])C4([H])[H])c([H])c2[H])c(Br)c1[H]


 21 24  0  0  0  0  0  0  0  0999 V2000
   37.6728   12.5015  -15.3535 C   0  0  0  0  0  0  0  0  0  0  0  0
   36.8544   13.5992  -15.3934 C   0  0  0  0  0  0  0  0  0  0  0  0
   36.1940   14.0571  -14.2507 C   0  0  0  0  0  0  0  0  0  0  0  0
   36.3328   13.4312  -13.0378 C   0  0  0  0  0  0  0  0  0  0  0  0
   37.1551   12.3323  -13.0124 C   0  0  0  0  0  0  0  0  0  0  0  0
   37.8157   11.8635  -14.1250 C   0  0  0  0  0  0  0  0  0  0  0  0
   35.6773   13.8693  -11.8117 C   0  0  0  0  0  0  0  0  0  0  0  0
   34.7216   15.0269  -11.9855 C   0  0  0  0  0  0  0  0  0  0  0  0
   34.9340   15.8412  -10.7404 C   0  0  0  0  0  0  0  0  0  0  0  0
   36.1264   16.7354  -10.9895 C   0  0  0  0  0  0  0  0  0  0  0  0
   37.2484   15.7013  -11.0493 C   0  0  0  0  0  0  0  0  0  0  0  0
   36.5787   14.3899  -10.7287 C   0  0  0  0  0  0  0  0  0  0  0  0
   35.5366   14.8863   -9.7978 N   0  0  0  0  0  0  0  0  0  0  0  0
   34.8288   14.1212   -9.7019 H   0  0  0  0  0  0  0  0  0  0  0  0
   35.9668   10.6705  -17.2244 Br  0  0  0  0  0  0  0  0  0  0  0  0
   37.7947   11.1841  -17.4496 C   0  0  0  0  0  0  0  0  0  0  0  0
   38.5032   10.7140  -18.5661 C   0  0  0  0  0  0  0  0  0  0  0  0
   39.8143   11.0772  -18.7689 C   0  0  0  0  0  0  0  0  0  0  0  0
   40.4092   11.9131  -17.8469 C   0  0  0  0  0  0  0  0  0  0  0  0
   39.7127   12.3695  -16.7573 C   0  0  0  0  0  0  0  0  0  0  0  0
   38.3842   12.0132  -16.5335 C   0  0  0  0  0  0  0  0  0  0  0  0
 15 16  1  0  0  0
 16 17  2  0  0  0
 17 18  1  0  0  0
 18 19  2  0  0  0
 19 20  1  0  0  0
 20 21  2  0  0  0
 21  1  1  0  0  0
  1  2  2  0  0  0
  2  3  1  0  0  0
  3  4  2  0  0  0
  4  5  1  0  0  0
  5  6  2  0  0  0
  4  7  1  0  0  0
  7  8  1  0  0  0
  8  9  1  0  0  0
  9 10  1  0  0  0
 10 11  1  0  0  0
 11 12  1  0  0  0
 12 13  1  0  0  0
 21 16  1  0  0  0
  6  1  1  0  0  0
 12  7  1  0  0  0
 13  9  1  0  0  0
 13 14  1  0  0  0
M  END
> <minimizedAffinity>
-8.18492

> <CNNscore>
0.5036743283

> <CNNaffinity>
5.6873922348

> <CNN_VS>
2.8645935059

> <CNNaffinity_variance>
0.0982618928

$$$$
[H]c1c([H])c([H])c(-c2c([H])c([H])c(C3([H])C([H])([H])C4([H])N([H])C3([H])C([H])([H])C4([H])[H])c([H])c2[H])c(Br)c1[H]


 21 24  0  0  0  0  0  0  0  0999 V2000
   35.9280   13.0742  -14.0432 C   0  0  0  0  0  0  0  0  0  0  0  0
   36.1239   12.6964  -12.7411 C   0  0  0  0  0  0  0  0  0  0  0  0
   36.6447   13.5836  -11.7960 C   0  0  0  0  0  0  0  0  0  0  0  0
   36.9841   14.8713  -12.1256 C   0  0  0  0  0  0  0  0  0  0  0  0
   36.7833   15.2362  -13.4337 C   0  0  0  0  0  0  0  0  0  0  0  0
   36.2716   14.3796  -14.3816 C   0  0  0  0  0  0  0  0  0  0  0  0
   37.5214   15.8428  -11.1809 C   0  0  0  0  0  0  0  0  0  0  0  0
   38.0275   15.2508   -9.8858 C   0  0  0  0  0  0  0  0  0  0  0  0
   37.6237   16.2702   -8.8580 C   0  0  0  0  0  0  0  0  0  0  0  0
   36.1905   15.9782   -8.4786 C   0  0  0  0  0  0  0  0  0  0  0  0
   35.4741   16.3392   -9.7780 C   0  0  0  0  0  0  0  0  0  0  0  0
   36.5576   16.8784  -10.6761 C   0  0  0  0  0  0  0  0  0  0  0  0
   37.4239   17.4974   -9.6438 N   0  0  0  0  0  0  0  0  0  0  0  0
   38.3496   17.6796  -10.0969 H   0  0  0  0  0  0  0  0  0  0  0  0
   38.0370   11.8750  -16.0123 Br  0  0  0  0  0  0  0  0  0  0  0  0
   36.1499   11.5673  -15.9988 C   0  0  0  0  0  0  0  0  0  0  0  0
   35.5907   10.7132  -16.9617 C   0  0  0  0  0  0  0  0  0  0  0  0
   34.2395   10.4556  -16.9710 C   0  0  0  0  0  0  0  0  0  0  0  0
   33.4544   11.0587  -16.0105 C   0  0  0  0  0  0  0  0  0  0  0  0
   34.0057   11.8927  -15.0718 C   0  0  0  0  0  0  0  0  0  0  0  0
   35.3717   12.1669  -15.0454 C   0  0  0  0  0  0  0  0  0  0  0  0
 15 16  1  0  0  0
 16 17  2  0  0  0
 17 18  1  0  0  0
 18 19  2  0  0  0
 19 20  1  0  0  0
 20 21  2  0  0  0
 21  1  1  0  0  0
  1  2  2  0  0  0
  2  3  1  0  0  0
  3  4  2  0  0  0
  4  5  1  0  0  0
  5  6  2  0  0  0
  4  7  1  0  0  0
  7  8  1  0  0  0
  8  9  1  0  0  0
  9 10  1  0  0  0
 10 11  1  0  0  0
 11 12  1  0  0  0
 12 13  1  0  0  0
 21 16  1  0  0  0
  6  1  1  0  0  0
 12  7  1  0  0  0
 13  9  1  0  0  0
 13 14  1  0  0  0
M  END
> <minimizedAffinity>
-7.40848

> <CNNscore>
0.4946058095

> <CNNaffinity>
5.4158411026

> <CNN_VS>
2.6787064075

> <CNNaffinity_variance>
0.1966847479

$$$$
[H]c1c([H])c([H])c(-c2c([H])c([H])c(C3([H])C([H])([H])C4([H])N([H])C3([H])C([H])([H])C4([H])[H])c([H])c2[H])c(Br)c1[H]


 21 24  0  0  0  0  0  0  0  0999 V2000
   36.9651   12.7714  -14.5918 C   0  0  0  0  0  0  0  0  0  0  0  0
   36.5978   12.1462  -13.4296 C   0  0  0  0  0  0  0  0  0  0  0  0
   36.2292   12.8746  -12.2960 C   0  0  0  0  0  0  0  0  0  0  0  0
   36.2178   14.2465  -12.2922 C   0  0  0  0  0  0  0  0  0  0  0  0
   36.5887   14.8598  -13.4630 C   0  0  0  0  0  0  0  0  0  0  0  0
   36.9553   14.1630  -14.5918 C   0  0  0  0  0  0  0  0  0  0  0  0
   35.8333   15.0580  -11.1440 C   0  0  0  0  0  0  0  0  0  0  0  0
   36.0450   16.5437  -11.3217 C   0  0  0  0  0  0  0  0  0  0  0  0
   36.5088   16.9922   -9.9643 C   0  0  0  0  0  0  0  0  0  0  0  0
   37.9984   16.7468   -9.8978 C   0  0  0  0  0  0  0  0  0  0  0  0
   38.0346   15.2202   -9.9055 C   0  0  0  0  0  0  0  0  0  0  0  0
   36.5872   14.8021   -9.8702 C   0  0  0  0  0  0  0  0  0  0  0  0
   36.0442   15.9238   -9.0665 N   0  0  0  0  0  0  0  0  0  0  0  0
   35.0046   15.9054   -9.1870 H   0  0  0  0  0  0  0  0  0  0  0  0
   34.5621   11.4863  -16.1205 Br  0  0  0  0  0  0  0  0  0  0  0  0
   36.4171   11.3864  -16.5731 C   0  0  0  0  0  0  0  0  0  0  0  0
   36.8037   10.6654  -17.7133 C   0  0  0  0  0  0  0  0  0  0  0  0
   38.1276   10.5869  -18.0785 C   0  0  0  0  0  0  0  0  0  0  0  0
   39.0593   11.2348  -17.2944 C   0  0  0  0  0  0  0  0  0  0  0  0
   38.6766   11.9378  -16.1810 C   0  0  0  0  0  0  0  0  0  0  0  0
   37.3411   12.0293  -15.7939 C   0  0  0  0  0  0  0  0  0  0  0  0
 15 16  1  0  0  0
 16 17  2  0  0  0
 17 18  1  0  0  0
 18 19  2  0  0  0
 19 20  1  0  0  0
 20 21  2  0  0  0
 21  1  1  0  0  0
  1  2  2  0  0  0
  2  3  1  0  0  0
  3  4  2  0  0  0
  4  5  1  0  0  0
  5  6  2  0  0  0
  4  7  1  0  0  0
  7  8  1  0  0  0
  8  9  1  0  0  0
  9 10  1  0  0  0
 10 11  1  0  0  0
 11 12  1  0  0  0
 12 13  1  0  0  0
 21 16  1  0  0  0
  6  1  1  0  0  0
 12  7  1  0  0  0
 13  9  1  0  0  0
 13 14  1  0  0  0
M  END
> <minimizedAffinity>
-8.00467

> <CNNscore>
0.4836985469

> <CNNaffinity>
5.5891861916

> <CNN_VS>
2.7034811974

> <CNNaffinity_variance>
0.1433371603

$$$$
[H]c1c([H])c([H])c(-c2c([H])c([H])c(C3([H])C([H])([H])C4([H])N([H])C3([H])C([H])([H])C4([H])[H])c([H])c2[H])c(Br)c1[H]


 21 24  0  0  0  0  0  0  0  0999 V2000
   40.7921   12.7402  -15.9789 C   0  0  0  0  0  0  0  0  0  0  0  0
   40.2950   13.5217  -14.9697 C   0  0  0  0  0  0  0  0  0  0  0  0
   41.1410   14.1702  -14.0668 C   0  0  0  0  0  0  0  0  0  0  0  0
   42.5057   14.0557  -14.1471 C   0  0  0  0  0  0  0  0  0  0  0  0
   42.9901   13.2690  -15.1626 C   0  0  0  0  0  0  0  0  0  0  0  0
   42.1761   12.6210  -16.0634 C   0  0  0  0  0  0  0  0  0  0  0  0
   43.4367   14.7162  -13.2406 C   0  0  0  0  0  0  0  0  0  0  0  0
   44.8891   14.6197  -13.6466 C   0  0  0  0  0  0  0  0  0  0  0  0
   45.6048   14.4525  -12.3357 C   0  0  0  0  0  0  0  0  0  0  0  0
   45.5623   12.9825  -11.9880 C   0  0  0  0  0  0  0  0  0  0  0  0
   44.0711   12.7990  -11.7148 C   0  0  0  0  0  0  0  0  0  0  0  0
   43.4857   14.1823  -11.8374 C   0  0  0  0  0  0  0  0  0  0  0  0
   44.6450   14.9660  -11.3465 N   0  0  0  0  0  0  0  0  0  0  0  0
   44.4771   15.9604  -11.6268 H   0  0  0  0  0  0  0  0  0  0  0  0
   37.9943   11.9247  -14.8519 Br  0  0  0  0  0  0  0  0  0  0  0  0
   38.6737   11.6202  -16.6130 C   0  0  0  0  0  0  0  0  0  0  0  0
   37.8668   10.9577  -17.5508 C   0  0  0  0  0  0  0  0  0  0  0  0
   38.3166   10.7370  -18.8319 C   0  0  0  0  0  0  0  0  0  0  0  0
   39.5782   11.1839  -19.1657 C   0  0  0  0  0  0  0  0  0  0  0  0
   40.3629   11.8305  -18.2456 C   0  0  0  0  0  0  0  0  0  0  0  0
   39.9261   12.0637  -16.9430 C   0  0  0  0  0  0  0  0  0  0  0  0
 15 16  1  0  0  0
 16 17  2  0  0  0
 17 18  1  0  0  0
 18 19  2  0  0  0
 19 20  1  0  0  0
 20 21  2  0  0  0
 21  1  1  0  0  0
  1  2  2  0  0  0
  2  3  1  0  0  0
  3  4  2  0  0  0
  4  5  1  0  0  0
  5  6  2  0  0  0
  4  7  1  0  0  0
  7  8  1  0  0  0
  8  9  1  0  0  0
  9 10  1  0  0  0
 10 11  1  0  0  0
 11 12  1  0  0  0
 12 13  1  0  0  0
 21 16  1  0  0  0
  6  1  1  0  0  0
 12  7  1  0  0  0
 13  9  1  0  0  0
 13 14  1  0  0  0
M  END
> <minimizedAffinity>
-7.82720

> <CNNscore>
0.3961183727

> <CNNaffinity>
5.2347431183

> <CNN_VS>
2.0735778809

> <CNNaffinity_variance>
0.1386441290

$$$$
[H]c1c([H])c([H])c(-c2c([H])c([H])c(C3([H])C([H])([H])C4([H])N([H])C3([H])C([H])([H])C4([H])[H])c([H])c2[H])c(Br)c1[H]


 21 24  0  0  0  0  0  0  0  0999 V2000
   37.6863   12.2595  -15.5978 C   0  0  0  0  0  0  0  0  0  0  0  0
   37.9899   11.7471  -14.3642 C   0  0  0  0  0  0  0  0  0  0  0  0
   37.3321   12.1844  -13.2120 C   0  0  0  0  0  0  0  0  0  0  0  0
   36.3540   13.1452  -13.2604 C   0  0  0  0  0  0  0  0  0  0  0  0
   36.0604   13.6504  -14.5027 C   0  0  0  0  0  0  0  0  0  0  0  0
   36.6949   13.2347  -15.6510 C   0  0  0  0  0  0  0  0  0  0  0  0
   35.6278   13.6326  -12.0943 C   0  0  0  0  0  0  0  0  0  0  0  0
   34.6431   14.7422  -12.3821 C   0  0  0  0  0  0  0  0  0  0  0  0
   34.7698   15.6375  -11.1817 C   0  0  0  0  0  0  0  0  0  0  0  0
   35.9420   16.5576  -11.4325 C   0  0  0  0  0  0  0  0  0  0  0  0
   37.0995   15.5631  -11.3780 C   0  0  0  0  0  0  0  0  0  0  0  0
   36.4598   14.2500  -11.0067 C   0  0  0  0  0  0  0  0  0  0  0  0
   35.3594   14.7638  -10.1557 N   0  0  0  0  0  0  0  0  0  0  0  0
   34.6739   13.9808  -10.0441 H   0  0  0  0  0  0  0  0  0  0  0  0
   40.5637   13.4087  -16.0016 Br  0  0  0  0  0  0  0  0  0  0  0  0
   39.6087   12.2267  -17.1621 C   0  0  0  0  0  0  0  0  0  0  0  0
   40.2210   11.7920  -18.3477 C   0  0  0  0  0  0  0  0  0  0  0  0
   39.5702   10.9280  -19.1975 C   0  0  0  0  0  0  0  0  0  0  0  0
   38.3041   10.5038  -18.8515 C   0  0  0  0  0  0  0  0  0  0  0  0
   37.7100   10.9317  -17.6920 C   0  0  0  0  0  0  0  0  0  0  0  0
   38.3520   11.8068  -16.8180 C   0  0  0  0  0  0  0  0  0  0  0  0
 15 16  1  0  0  0
 16 17  2  0  0  0
 17 18  1  0  0  0
 18 19  2  0  0  0
 19 20  1  0  0  0
 20 21  2  0  0  0
 21  1  1  0  0  0
  1  2  2  0  0  0
  2  3  1  0  0  0
  3  4  2  0  0  0
  4  5  1  0  0  0
  5  6  2  0  0  0
  4  7  1  0  0  0
  7  8  1  0  0  0
  8  9  1  0  0  0
  9 10  1  0  0  0
 10 11  1  0  0  0
 11 12  1  0  0  0
 12 13  1  0  0  0
 21 16  1  0  0  0
  6  1  1  0  0  0
 12  7  1  0  0  0
 13  9  1  0  0  0
 13 14  1  0  0  0
M  END
> <minimizedAffinity>
-8.50427

> <CNNscore>
0.3757259548

> <CNNaffinity>
5.6022133827

> <CNN_VS>
2.1048970222

> <CNNaffinity_variance>
0.1109427214

$$$$
[H]c1c([H])c([H])c(-c2c([H])c([H])c(C3([H])C([H])([H])C4([H])N([H])C3([H])C([H])([H])C4([H])[H])c([H])c2[H])c(Br)c1[H]


 21 24  0  0  0  0  0  0  0  0999 V2000
   37.0436   13.1264  -14.5701 C   0  0  0  0  0  0  0  0  0  0  0  0
   36.6717   14.4374  -14.7094 C   0  0  0  0  0  0  0  0  0  0  0  0
   36.7026   15.3219  -13.6286 C   0  0  0  0  0  0  0  0  0  0  0  0
   37.1052   14.9212  -12.3798 C   0  0  0  0  0  0  0  0  0  0  0  0
   37.4744   13.6050  -12.2543 C   0  0  0  0  0  0  0  0  0  0  0  0
   37.4522   12.7159  -13.3047 C   0  0  0  0  0  0  0  0  0  0  0  0
   37.1672   15.8008  -11.2190 C   0  0  0  0  0  0  0  0  0  0  0  0
   37.3653   15.0915   -9.8994 C   0  0  0  0  0  0  0  0  0  0  0  0
   36.5094   15.8816   -8.9497 C   0  0  0  0  0  0  0  0  0  0  0  0
   35.1002   15.3496   -9.0704 C   0  0  0  0  0  0  0  0  0  0  0  0
   34.7453   15.8056  -10.4839 C   0  0  0  0  0  0  0  0  0  0  0  0
   35.9351   16.6122  -10.9367 C   0  0  0  0  0  0  0  0  0  0  0  0
   36.3412   17.1765   -9.6268 N   0  0  0  0  0  0  0  0  0  0  0  0
   37.3135   17.5452   -9.7459 H   0  0  0  0  0  0  0  0  0  0  0  0
   34.2326   11.9279  -15.2220 Br  0  0  0  0  0  0  0  0  0  0  0  0
   35.8897   11.5535  -16.0994 C   0  0  0  0  0  0  0  0  0  0  0  0
   35.9064   10.6423  -17.1666 C   0  0  0  0  0  0  0  0  0  0  0  0
   37.0774   10.3623  -17.8317 C   0  0  0  0  0  0  0  0  0  0  0  0
   38.2291   11.0005  -17.4207 C   0  0  0  0  0  0  0  0  0  0  0  0
   38.2076   11.8899  -16.3772 C   0  0  0  0  0  0  0  0  0  0  0  0
   37.0322   12.1871  -15.6902 C   0  0  0  0  0  0  0  0  0  0  0  0
 15 16  1  0  0  0
 16 17  2  0  0  0
 17 18  1  0  0  0
 18 19  2  0  0  0
 19 20  1  0  0  0
 20 21  2  0  0  0
 21  1  1  0  0  0
  1  2  2  0  0  0
  2  3  1  0  0  0
  3  4  2  0  0  0
  4  5  1  0  0  0
  5  6  2  0  0  0
  4  7  1  0  0  0
  7  8  1  0  0  0
  8  9  1  0  0  0
  9 10  1  0  0  0
 10 11  1  0  0  0
 11 12  1  0  0  0
 12 13  1  0  0  0
 21 16  1  0  0  0
  6  1  1  0  0  0
 12  7  1  0  0  0
 13  9  1  0  0  0
 13 14  1  0  0  0
M  END
> <minimizedAffinity>
-7.46099

> <CNNscore>
0.3650360107

> <CNNaffinity>
5.5050759315

> <CNN_VS>
2.0095510483

> <CNNaffinity_variance>
0.1729495525

$$$$
[H]c1c([H])c([H])c(-c2c([H])c([H])c(C3([H])C([H])([H])C4([H])N([H])C3([H])C([H])([H])C4([H])[H])c([H])c2[H])c(Br)c1[H]


 21 24  0  0  0  0  0  0  0  0999 V2000
   40.0253   12.2803  -16.3458 C   0  0  0  0  0  0  0  0  0  0  0  0
   40.4000   13.1776  -15.3810 C   0  0  0  0  0  0  0  0  0  0  0  0
   41.7266   13.5955  -15.2510 C   0  0  0  0  0  0  0  0  0  0  0  0
   42.7147   13.1285  -16.0804 C   0  0  0  0  0  0  0  0  0  0  0  0
   42.3253   12.2295  -17.0420 C   0  0  0  0  0  0  0  0  0  0  0  0
   41.0248   11.8039  -17.1889 C   0  0  0  0  0  0  0  0  0  0  0  0
   44.1118   13.5358  -15.9982 C   0  0  0  0  0  0  0  0  0  0  0  0
   45.1047   12.3971  -16.0353 C   0  0  0  0  0  0  0  0  0  0  0  0
   46.1689   12.8338  -15.0682 C   0  0  0  0  0  0  0  0  0  0  0  0
   45.7052   12.4381  -13.6855 C   0  0  0  0  0  0  0  0  0  0  0  0
   44.5170   13.3801  -13.5047 C   0  0  0  0  0  0  0  0  0  0  0  0
   44.5218   14.2447  -14.7390 C   0  0  0  0  0  0  0  0  0  0  0  0
   45.9842   14.2904  -14.9810 N   0  0  0  0  0  0  0  0  0  0  0  0
   46.1171   14.6367  -15.9597 H   0  0  0  0  0  0  0  0  0  0  0  0
   38.1099   13.1612  -14.0397 Br  0  0  0  0  0  0  0  0  0  0  0  0
   37.6723   12.1208  -15.5830 C   0  0  0  0  0  0  0  0  0  0  0  0
   36.3533   11.6725  -15.7524 C   0  0  0  0  0  0  0  0  0  0  0  0
   35.9991   10.9365  -16.8592 C   0  0  0  0  0  0  0  0  0  0  0  0
   36.9740   10.6534  -17.7930 C   0  0  0  0  0  0  0  0  0  0  0  0
   38.2616   11.0935  -17.6227 C   0  0  0  0  0  0  0  0  0  0  0  0
   38.6409   11.8399  -16.5088 C   0  0  0  0  0  0  0  0  0  0  0  0
 15 16  1  0  0  0
 16 17  2  0  0  0
 17 18  1  0  0  0
 18 19  2  0  0  0
 19 20  1  0  0  0
 20 21  2  0  0  0
 21  1  1  0  0  0
  1  2  2  0  0  0
  2  3  1  0  0  0
  3  4  2  0  0  0
  4  5  1  0  0  0
  5  6  2  0  0  0
  4  7  1  0  0  0
  7  8  1  0  0  0
  8  9  1  0  0  0
  9 10  1  0  0  0
 10 11  1  0  0  0
 11 12  1  0  0  0
 12 13  1  0  0  0
 21 16  1  0  0  0
  6  1  1  0  0  0
 12  7  1  0  0  0
 13  9  1  0  0  0
 13 14  1  0  0  0
M  END
> <minimizedAffinity>
-8.46022

> <CNNscore>
0.3486231565

> <CNNaffinity>
5.5362753868

> <CNN_VS>
1.9300738573

> <CNNaffinity_variance>
0.0432757549

$$$$
[H]OC([H])([H])c1sc(C2=NC(=O)/C(=C(/[H])c3nn([H])c(C([H])([H])[H])c3[H])C(=O)N2c2nc([H])c([H])c(C([H])([H])[H])c2[H])c([H])c1[H]


 31 34  0  0  0  0  0  0  0  0999 V2000
   39.5336   12.5469  -15.6915 N   0  0  0  0  0  0  0  0  0  0  0  0
   40.8842   12.5666  -16.2278 C   0  0  0  0  0  0  0  0  0  0  0  0
   41.1257   12.0492  -17.3263 O   0  0  0  0  0  0  0  0  0  0  0  0
   41.9489   13.2066  -15.4502 C   0  0  0  0  0  0  0  0  0  0  0  0
   43.1989   13.2259  -15.8471 C   0  0  0  0  0  0  0  0  0  0  0  0
   41.5741   13.7799  -14.1859 C   0  0  0  0  0  0  0  0  0  0  0  0
   42.3868   14.3444  -13.4347 O   0  0  0  0  0  0  0  0  0  0  0  0
   40.2270   13.7103  -13.7491 N   0  0  0  0  0  0  0  0  0  0  0  0
   39.2742   13.1341  -14.4530 C   0  0  0  0  0  0  0  0  0  0  0  0
   34.8155   11.3189  -16.5361 C   0  0  0  0  0  0  0  0  0  0  0  0
   36.2461   11.2833  -16.8876 C   0  0  0  0  0  0  0  0  0  0  0  0
   36.6583   10.5753  -18.0001 C   0  0  0  0  0  0  0  0  0  0  0  0
   38.0005   10.5503  -18.3115 C   0  0  0  0  0  0  0  0  0  0  0  0
   38.8659   11.1977  -17.5490 N   0  0  0  0  0  0  0  0  0  0  0  0
   38.5181   11.9157  -16.4355 C   0  0  0  0  0  0  0  0  0  0  0  0
   37.1841   11.9300  -16.1413 C   0  0  0  0  0  0  0  0  0  0  0  0
   44.3239   13.8283  -15.1736 C   0  0  0  0  0  0  0  0  0  0  0  0
   45.2459   13.2273  -14.3240 C   0  0  0  0  0  0  0  0  0  0  0  0
   46.1728   14.1643  -14.0051 C   0  0  0  0  0  0  0  0  0  0  0  0
   47.3607   14.0036  -13.1196 C   0  0  0  0  0  0  0  0  0  0  0  0
   45.8662   15.3104  -14.6164 N   0  0  0  0  0  0  0  0  0  0  0  0
   44.7735   15.0865  -15.2983 N   0  0  0  0  0  0  0  0  0  0  0  0
   46.3823   16.2075  -14.5710 H   0  0  0  0  0  0  0  0  0  0  0  0
   37.9234   13.1124  -13.8909 C   0  0  0  0  0  0  0  0  0  0  0  0
   37.2278   12.2164  -13.1567 C   0  0  0  0  0  0  0  0  0  0  0  0
   35.9729   12.5153  -12.7947 C   0  0  0  0  0  0  0  0  0  0  0  0
   35.4726   13.7251  -13.1990 C   0  0  0  0  0  0  0  0  0  0  0  0
   36.7698   14.4020  -14.0676 S   0  0  0  0  0  0  0  0  0  0  0  0
   34.1124   14.3145  -12.9460 C   0  0  0  0  0  0  0  0  0  0  0  0
   33.5933   14.6803  -14.1678 O   0  0  0  0  0  0  0  0  0  0  0  0
   33.3304   13.9062  -14.6901 H   0  0  0  0  0  0  0  0  0  0  0  0
 10 11  1  0  0  0
 11 12  2  0  0  0
 12 13  1  0  0  0
 13 14  2  0  0  0
 14 15  1  0  0  0
 15 16  2  0  0  0
 15  1  1  0  0  0
  1  2  1  0  0  0
  2  3  2  0  0  0
  2  4  1  0  0  0
  4  5  2  0  0  0
  5 17  1  0  0  0
 17 18  1  0  0  0
 18 19  2  0  0  0
 19 20  1  0  0  0
 19 21  1  0  0  0
 21 22  1  0  0  0
  4  6  1  0  0  0
  6  7  2  0  0  0
  6  8  1  0  0  0
  8  9  2  0  0  0
  9 24  1  0  0  0
 24 25  2  0  0  0
 25 26  1  0  0  0
 26 27  2  0  0  0
 27 29  1  0  0  0
 29 30  1  0  0  0
 27 28  1  0  0  0
 16 11  1  0  0  0
  9  1  1  0  0  0
 28 24  1  0  0  0
 22 17  2  0  0  0
 21 23  1  0  0  0
 30 31  1  0  0  0
M  END
> <minimizedAffinity>
-9.63177

> <CNNscore>
0.6103558540

> <CNNaffinity>
7.1534409523

> <CNN_VS>
4.3661446571

> <CNNaffinity_variance>
0.1764144003

$$$$
[H]OC([H])([H])c1sc(C2=NC(=O)/C(=C(/[H])c3nn([H])c(C([H])([H])[H])c3[H])C(=O)N2c2nc([H])c([H])c(C([H])([H])[H])c2[H])c([H])c1[H]


 31 34  0  0  0  0  0  0  0  0999 V2000
   44.5580   13.0098  -15.0131 N   0  0  0  0  0  0  0  0  0  0  0  0
   44.1195   12.1661  -16.1122 C   0  0  0  0  0  0  0  0  0  0  0  0
   44.9296   11.4363  -16.6988 O   0  0  0  0  0  0  0  0  0  0  0  0
   42.7096   12.1938  -16.5112 C   0  0  0  0  0  0  0  0  0  0  0  0
   42.2477   11.4947  -17.5204 C   0  0  0  0  0  0  0  0  0  0  0  0
   41.8433   13.0723  -15.7728 C   0  0  0  0  0  0  0  0  0  0  0  0
   40.6311   13.1873  -16.0197 O   0  0  0  0  0  0  0  0  0  0  0  0
   42.3670   13.8567  -14.7141 N   0  0  0  0  0  0  0  0  0  0  0  0
   43.6354   13.8269  -14.3597 C   0  0  0  0  0  0  0  0  0  0  0  0
   48.3045   11.6420  -12.0848 C   0  0  0  0  0  0  0  0  0  0  0  0
   47.7704   12.3649  -13.2525 C   0  0  0  0  0  0  0  0  0  0  0  0
   48.6256   13.1023  -14.0486 C   0  0  0  0  0  0  0  0  0  0  0  0
   48.1079   13.7746  -15.1345 C   0  0  0  0  0  0  0  0  0  0  0  0
   46.8132   13.7050  -15.3964 N   0  0  0  0  0  0  0  0  0  0  0  0
   45.9172   12.9914  -14.6452 C   0  0  0  0  0  0  0  0  0  0  0  0
   46.4471   12.3312  -13.5730 C   0  0  0  0  0  0  0  0  0  0  0  0
   40.8873   11.4368  -17.9978 C   0  0  0  0  0  0  0  0  0  0  0  0
   39.7970   10.7909  -17.4259 C   0  0  0  0  0  0  0  0  0  0  0  0
   38.7096   11.0883  -18.1794 C   0  0  0  0  0  0  0  0  0  0  0  0
   37.3069   10.6296  -17.9723 C   0  0  0  0  0  0  0  0  0  0  0  0
   39.0775   11.8847  -19.1852 N   0  0  0  0  0  0  0  0  0  0  0  0
   40.3644   12.0751  -19.0561 N   0  0  0  0  0  0  0  0  0  0  0  0
   38.4748   12.2825  -19.9280 H   0  0  0  0  0  0  0  0  0  0  0  0
   44.0610   14.6930  -13.2597 C   0  0  0  0  0  0  0  0  0  0  0  0
   43.9346   14.6321  -11.9158 C   0  0  0  0  0  0  0  0  0  0  0  0
   44.4548   15.6194  -11.1743 C   0  0  0  0  0  0  0  0  0  0  0  0
   45.0878   16.6379  -11.8372 C   0  0  0  0  0  0  0  0  0  0  0  0
   44.9359   16.1815  -13.4694 S   0  0  0  0  0  0  0  0  0  0  0  0
   45.7512   17.8626  -11.2702 C   0  0  0  0  0  0  0  0  0  0  0  0
   45.3475   18.9350  -12.0338 O   0  0  0  0  0  0  0  0  0  0  0  0
   44.4218   19.1680  -11.8610 H   0  0  0  0  0  0  0  0  0  0  0  0
 10 11  1  0  0  0
 11 12  2  0  0  0
 12 13  1  0  0  0
 13 14  2  0  0  0
 14 15  1  0  0  0
 15 16  2  0  0  0
 15  1  1  0  0  0
  1  2  1  0  0  0
  2  3  2  0  0  0
  2  4  1  0  0  0
  4  5  2  0  0  0
  5 17  1  0  0  0
 17 18  1  0  0  0
 18 19  2  0  0  0
 19 20  1  0  0  0
 19 21  1  0  0  0
 21 22  1  0  0  0
  4  6  1  0  0  0
  6  7  2  0  0  0
  6  8  1  0  0  0
  8  9  2  0  0  0
  9 24  1  0  0  0
 24 25  2  0  0  0
 25 26  1  0  0  0
 26 27  2  0  0  0
 27 29  1  0  0  0
 29 30  1  0  0  0
 27 28  1  0  0  0
 16 11  1  0  0  0
  9  1  1  0  0  0
 28 24  1  0  0  0
 22 17  2  0  0  0
 21 23  1  0  0  0
 30 31  1  0  0  0
M  END
> <minimizedAffinity>
-6.20434

> <CNNscore>
0.4605144560

> <CNNaffinity>
6.1588654518

> <CNN_VS>
2.8362464905

> <CNNaffinity_variance>
0.0857144445

$$$$
[H]OC([H])([H])c1sc(C2=NC(=O)/C(=C(/[H])c3nn([H])c(C([H])([H])[H])c3[H])C(=O)N2c2nc([H])c([H])c(C([H])([H])[H])c2[H])c([H])c1[H]


 31 34  0  0  0  0  0  0  0  0999 V2000
   40.5978   12.7207  -15.8311 N   0  0  0  0  0  0  0  0  0  0  0  0
   42.0415   12.6671  -15.9892 C   0  0  0  0  0  0  0  0  0  0  0  0
   42.5405   12.0820  -16.9596 O   0  0  0  0  0  0  0  0  0  0  0  0
   42.8914   13.3147  -14.9861 C   0  0  0  0  0  0  0  0  0  0  0  0
   44.2013   13.2716  -15.0369 C   0  0  0  0  0  0  0  0  0  0  0  0
   42.2228   13.9690  -13.8941 C   0  0  0  0  0  0  0  0  0  0  0  0
   42.8335   14.5479  -12.9800 O   0  0  0  0  0  0  0  0  0  0  0  0
   40.8066   13.9671  -13.8286 N   0  0  0  0  0  0  0  0  0  0  0  0
   40.0480   13.3838  -14.7339 C   0  0  0  0  0  0  0  0  0  0  0  0
   36.4513   10.4311  -17.2614 C   0  0  0  0  0  0  0  0  0  0  0  0
   37.8003   10.9576  -17.5341 C   0  0  0  0  0  0  0  0  0  0  0  0
   38.3474   10.8134  -18.7945 C   0  0  0  0  0  0  0  0  0  0  0  0
   39.6115   11.3090  -19.0304 C   0  0  0  0  0  0  0  0  0  0  0  0
   40.2760   11.9094  -18.0570 N   0  0  0  0  0  0  0  0  0  0  0  0
   39.7870   12.0822  -16.7892 C   0  0  0  0  0  0  0  0  0  0  0  0
   38.5330   11.5852  -16.5727 C   0  0  0  0  0  0  0  0  0  0  0  0
   45.1351   13.8739  -14.1162 C   0  0  0  0  0  0  0  0  0  0  0  0
   45.7815   13.2882  -13.0336 C   0  0  0  0  0  0  0  0  0  0  0  0
   46.6287   14.2136  -12.5192 C   0  0  0  0  0  0  0  0  0  0  0  0
   47.5392   14.0619  -11.3492 C   0  0  0  0  0  0  0  0  0  0  0  0
   46.5351   15.3381  -13.2320 N   0  0  0  0  0  0  0  0  0  0  0  0
   45.6491   15.1125  -14.1664 N   0  0  0  0  0  0  0  0  0  0  0  0
   47.0554   16.2222  -13.0871 H   0  0  0  0  0  0  0  0  0  0  0  0
   38.5971   13.4367  -14.5508 C   0  0  0  0  0  0  0  0  0  0  0  0
   37.6379   14.3160  -14.9146 C   0  0  0  0  0  0  0  0  0  0  0  0
   36.3665   14.0578  -14.5796 C   0  0  0  0  0  0  0  0  0  0  0  0
   36.1215   12.9048  -13.8811 C   0  0  0  0  0  0  0  0  0  0  0  0
   37.6716   12.2222  -13.7181 S   0  0  0  0  0  0  0  0  0  0  0  0
   34.8101   12.3698  -13.3755 C   0  0  0  0  0  0  0  0  0  0  0  0
   34.1946   13.3884  -12.6827 O   0  0  0  0  0  0  0  0  0  0  0  0
   33.8600   14.0753  -13.2804 H   0  0  0  0  0  0  0  0  0  0  0  0
 10 11  1  0  0  0
 11 12  2  0  0  0
 12 13  1  0  0  0
 13 14  2  0  0  0
 14 15  1  0  0  0
 15 16  2  0  0  0
 15  1  1  0  0  0
  1  2  1  0  0  0
  2  3  2  0  0  0
  2  4  1  0  0  0
  4  5  2  0  0  0
  5 17  1  0  0  0
 17 18  1  0  0  0
 18 19  2  0  0  0
 19 20  1  0  0  0
 19 21  1  0  0  0
 21 22  1  0  0  0
  4  6  1  0  0  0
  6  7  2  0  0  0
  6  8  1  0  0  0
  8  9  2  0  0  0
  9 24  1  0  0  0
 24 25  2  0  0  0
 25 26  1  0  0  0
 26 27  2  0  0  0
 27 29  1  0  0  0
 29 30  1  0  0  0
 27 28  1  0  0  0
 16 11  1  0  0  0
  9  1  1  0  0  0
 28 24  1  0  0  0
 22 17  2  0  0  0
 21 23  1  0  0  0
 30 31  1  0  0  0
M  END
> <minimizedAffinity>
-8.43202

> <CNNscore>
0.3727440238

> <CNNaffinity>
6.7615027428

> <CNN_VS>
2.5203096867

> <CNNaffinity_variance>
0.1943408847

$$$$
[H]OC([H])([H])c1sc(C2=NC(=O)/C(=C(/[H])c3nn([H])c(C([H])([H])[H])c3[H])C(=O)N2c2nc([H])c([H])c(C([H])([H])[H])c2[H])c([H])c1[H]


 31 34  0  0  0  0  0  0  0  0999 V2000
   39.4991   15.1050   -7.0394 N   0  0  0  0  0  0  0  0  0  0  0  0
   40.7020   14.2912   -7.0933 C   0  0  0  0  0  0  0  0  0  0  0  0
   40.9365   13.4663   -6.2003 O   0  0  0  0  0  0  0  0  0  0  0  0
   41.6270   14.4628   -8.2170 C   0  0  0  0  0  0  0  0  0  0  0  0
   42.7532   13.7971   -8.3123 C   0  0  0  0  0  0  0  0  0  0  0  0
   41.2720   15.4449   -9.2055 C   0  0  0  0  0  0  0  0  0  0  0  0
   41.9768   15.6850  -10.2001 O   0  0  0  0  0  0  0  0  0  0  0  0
   40.0739   16.1896   -9.0644 N   0  0  0  0  0  0  0  0  0  0  0  0
   39.2460   16.0303   -8.0522 C   0  0  0  0  0  0  0  0  0  0  0  0
   35.4605   13.2371   -4.8755 C   0  0  0  0  0  0  0  0  0  0  0  0
   36.6712   14.0769   -4.8530 C   0  0  0  0  0  0  0  0  0  0  0  0
   36.9868   14.7890   -3.7119 C   0  0  0  0  0  0  0  0  0  0  0  0
   38.1210   15.5718   -3.7101 C   0  0  0  0  0  0  0  0  0  0  0  0
   38.8833   15.6296   -4.7896 N   0  0  0  0  0  0  0  0  0  0  0  0
   38.6227   14.9475   -5.9485 C   0  0  0  0  0  0  0  0  0  0  0  0
   37.4949   14.1765   -5.9330 C   0  0  0  0  0  0  0  0  0  0  0  0
   43.7326   13.8768   -9.3690 C   0  0  0  0  0  0  0  0  0  0  0  0
   43.8053   13.1285  -10.5386 C   0  0  0  0  0  0  0  0  0  0  0  0
   44.8405   13.6154  -11.2666 C   0  0  0  0  0  0  0  0  0  0  0  0
   45.3195   13.1415  -12.5959 C   0  0  0  0  0  0  0  0  0  0  0  0
   45.4069   14.6252  -10.6027 N   0  0  0  0  0  0  0  0  0  0  0  0
   44.7363   14.7594   -9.4886 N   0  0  0  0  0  0  0  0  0  0  0  0
   46.2167   15.1996  -10.8987 H   0  0  0  0  0  0  0  0  0  0  0  0
   38.0469   16.8678   -8.0080 C   0  0  0  0  0  0  0  0  0  0  0  0
   36.7944   16.7382   -8.4981 C   0  0  0  0  0  0  0  0  0  0  0  0
   35.9093   17.7184   -8.2719 C   0  0  0  0  0  0  0  0  0  0  0  0
   36.3396   18.8005   -7.5500 C   0  0  0  0  0  0  0  0  0  0  0  0
   37.9612   18.4117   -7.2117 S   0  0  0  0  0  0  0  0  0  0  0  0
   35.5751   20.0336   -7.1542 C   0  0  0  0  0  0  0  0  0  0  0  0
   35.6613   20.9208   -8.2038 O   0  0  0  0  0  0  0  0  0  0  0  0
   35.1177   20.6379   -8.9558 H   0  0  0  0  0  0  0  0  0  0  0  0
 10 11  1  0  0  0
 11 12  2  0  0  0
 12 13  1  0  0  0
 13 14  2  0  0  0
 14 15  1  0  0  0
 15 16  2  0  0  0
 15  1  1  0  0  0
  1  2  1  0  0  0
  2  3  2  0  0  0
  2  4  1  0  0  0
  4  5  2  0  0  0
  5 17  1  0  0  0
 17 18  1  0  0  0
 18 19  2  0  0  0
 19 20  1  0  0  0
 19 21  1  0  0  0
 21 22  1  0  0  0
  4  6  1  0  0  0
  6  7  2  0  0  0
  6  8  1  0  0  0
  8  9  2  0  0  0
  9 24  1  0  0  0
 24 25  2  0  0  0
 25 26  1  0  0  0
 26 27  2  0  0  0
 27 29  1  0  0  0
 29 30  1  0  0  0
 27 28  1  0  0  0
 16 11  1  0  0  0
  9  1  1  0  0  0
 28 24  1  0  0  0
 22 17  2  0  0  0
 21 23  1  0  0  0
 30 31  1  0  0  0
M  END
> <minimizedAffinity>
-5.28960

> <CNNscore>
0.3232757747

> <CNNaffinity>
5.3246898651

> <CNN_VS>
1.7213432789

> <CNNaffinity_variance>
0.7036456466

$$$$
[H]OC([H])([H])c1sc(C2=NC(=O)/C(=C(/[H])c3nn([H])c(C([H])([H])[H])c3[H])C(=O)N2c2nc([H])c([H])c(C([H])([H])[H])c2[H])c([H])c1[H]


 31 34  0  0  0  0  0  0  0  0999 V2000
   37.7030   15.7497   -8.6908 N   0  0  0  0  0  0  0  0  0  0  0  0
   39.1533   15.8418   -8.6734 C   0  0  0  0  0  0  0  0  0  0  0  0
   39.7946   15.7711   -9.7302 O   0  0  0  0  0  0  0  0  0  0  0  0
   39.8394   16.0193   -7.3906 C   0  0  0  0  0  0  0  0  0  0  0  0
   41.1463   16.0669   -7.2896 C   0  0  0  0  0  0  0  0  0  0  0  0
   39.0121   16.0898   -6.2166 C   0  0  0  0  0  0  0  0  0  0  0  0
   39.4760   16.2336   -5.0731 O   0  0  0  0  0  0  0  0  0  0  0  0
   37.6029   15.9904   -6.3372 N   0  0  0  0  0  0  0  0  0  0  0  0
   36.9920   15.8315   -7.4935 C   0  0  0  0  0  0  0  0  0  0  0  0
   35.9466   12.9243  -12.3533 C   0  0  0  0  0  0  0  0  0  0  0  0
   36.1882   14.2392  -11.7336 C   0  0  0  0  0  0  0  0  0  0  0  0
   35.7825   15.3868  -12.3873 C   0  0  0  0  0  0  0  0  0  0  0  0
   36.0198   16.6079  -11.7943 C   0  0  0  0  0  0  0  0  0  0  0  0
   36.6262   16.6633  -10.6200 N   0  0  0  0  0  0  0  0  0  0  0  0
   37.0506   15.5622   -9.9246 C   0  0  0  0  0  0  0  0  0  0  0  0
   36.8075   14.3601  -10.5266 C   0  0  0  0  0  0  0  0  0  0  0  0
   41.9275   16.2444   -6.0895 C   0  0  0  0  0  0  0  0  0  0  0  0
   42.3576   17.4306   -5.5055 C   0  0  0  0  0  0  0  0  0  0  0  0
   42.9817   17.1075   -4.3458 C   0  0  0  0  0  0  0  0  0  0  0  0
   43.6157   18.0341   -3.3657 C   0  0  0  0  0  0  0  0  0  0  0  0
   42.9561   15.7824   -4.1884 N   0  0  0  0  0  0  0  0  0  0  0  0
   42.3300   15.2972   -5.2283 N   0  0  0  0  0  0  0  0  0  0  0  0
   43.3488   15.2326   -3.4031 H   0  0  0  0  0  0  0  0  0  0  0  0
   35.5324   15.7275   -7.4898 C   0  0  0  0  0  0  0  0  0  0  0  0
   34.6663   14.6973   -7.3708 C   0  0  0  0  0  0  0  0  0  0  0  0
   33.3516   14.9529   -7.4094 C   0  0  0  0  0  0  0  0  0  0  0  0
   32.9689   16.2588   -7.5695 C   0  0  0  0  0  0  0  0  0  0  0  0
   34.4551   17.0824   -7.6590 S   0  0  0  0  0  0  0  0  0  0  0  0
   31.5804   16.8306   -7.6517 C   0  0  0  0  0  0  0  0  0  0  0  0
   31.3198   17.0781   -8.9810 O   0  0  0  0  0  0  0  0  0  0  0  0
   31.1768   16.2560   -9.4758 H   0  0  0  0  0  0  0  0  0  0  0  0
 10 11  1  0  0  0
 11 12  2  0  0  0
 12 13  1  0  0  0
 13 14  2  0  0  0
 14 15  1  0  0  0
 15 16  2  0  0  0
 15  1  1  0  0  0
  1  2  1  0  0  0
  2  3  2  0  0  0
  2  4  1  0  0  0
  4  5  2  0  0  0
  5 17  1  0  0  0
 17 18  1  0  0  0
 18 19  2  0  0  0
 19 20  1  0  0  0
 19 21  1  0  0  0
 21 22  1  0  0  0
  4  6  1  0  0  0
  6  7  2  0  0  0
  6  8  1  0  0  0
  8  9  2  0  0  0
  9 24  1  0  0  0
 24 25  2  0  0  0
 25 26  1  0  0  0
 26 27  2  0  0  0
 27 29  1  0  0  0
 29 30  1  0  0  0
 27 28  1  0  0  0
 16 11  1  0  0  0
  9  1  1  0  0  0
 28 24  1  0  0  0
 22 17  2  0  0  0
 21 23  1  0  0  0
 30 31  1  0  0  0
M  END
> <minimizedAffinity>
-5.49666

> <CNNscore>
0.2569364011

> <CNNaffinity>
5.7142000198

> <CNN_VS>
1.4681860209

> <CNNaffinity_variance>
0.7679935098

$$$$
[H]OC([H])([H])c1sc(C2=NC(=O)/C(=C(/[H])c3nn([H])c(C([H])([H])[H])c3[H])C(=O)N2c2nc([H])c([H])c(C([H])([H])[H])c2[H])c([H])c1[H]


 31 34  0  0  0  0  0  0  0  0999 V2000
   38.9886   15.5879   -7.2593 N   0  0  0  0  0  0  0  0  0  0  0  0
   40.4087   15.2873   -7.3313 C   0  0  0  0  0  0  0  0  0  0  0  0
   41.0091   14.8728   -6.3309 O   0  0  0  0  0  0  0  0  0  0  0  0
   41.1134   15.4817   -8.6015 C   0  0  0  0  0  0  0  0  0  0  0  0
   42.4018   15.2742   -8.7329 C   0  0  0  0  0  0  0  0  0  0  0  0
   40.3341   15.9670   -9.7082 C   0  0  0  0  0  0  0  0  0  0  0  0
   40.8186   16.1762  -10.8329 O   0  0  0  0  0  0  0  0  0  0  0  0
   38.9515   16.2308   -9.5381 N   0  0  0  0  0  0  0  0  0  0  0  0
   38.3235   16.0535   -8.3937 C   0  0  0  0  0  0  0  0  0  0  0  0
   35.8211   13.2442   -4.2667 C   0  0  0  0  0  0  0  0  0  0  0  0
   36.7887   14.3213   -4.5407 C   0  0  0  0  0  0  0  0  0  0  0  0
   37.0669   15.2546   -3.5607 C   0  0  0  0  0  0  0  0  0  0  0  0
   37.9720   16.2568   -3.8359 C   0  0  0  0  0  0  0  0  0  0  0  0
   38.5553   16.3103   -5.0218 N   0  0  0  0  0  0  0  0  0  0  0  0
   38.3207   15.4151   -6.0317 C   0  0  0  0  0  0  0  0  0  0  0  0
   37.4212   14.4285   -5.7421 C   0  0  0  0  0  0  0  0  0  0  0  0
   43.1971   15.4242   -9.9276 C   0  0  0  0  0  0  0  0  0  0  0  0
   43.4246   14.4955  -10.9370 C   0  0  0  0  0  0  0  0  0  0  0  0
   44.1586   15.1121  -11.8960 C   0  0  0  0  0  0  0  0  0  0  0  0
   44.6559   14.5304  -13.1748 C   0  0  0  0  0  0  0  0  0  0  0  0
   44.3931   16.3728  -11.5261 N   0  0  0  0  0  0  0  0  0  0  0  0
   43.8166   16.5318  -10.3637 N   0  0  0  0  0  0  0  0  0  0  0  0
   44.9236   17.0948  -12.0463 H   0  0  0  0  0  0  0  0  0  0  0  0
   36.8969   16.3740   -8.3370 C   0  0  0  0  0  0  0  0  0  0  0  0
   36.1896   17.4206   -7.8574 C   0  0  0  0  0  0  0  0  0  0  0  0
   34.8544   17.4006   -7.9673 C   0  0  0  0  0  0  0  0  0  0  0  0
   34.2886   16.3057   -8.5660 C   0  0  0  0  0  0  0  0  0  0  0  0
   35.6381   15.3450   -8.9549 S   0  0  0  0  0  0  0  0  0  0  0  0
   32.8346   16.0149   -8.8169 C   0  0  0  0  0  0  0  0  0  0  0  0
   32.5834   14.7493   -8.3356 O   0  0  0  0  0  0  0  0  0  0  0  0
   32.5785   14.7307   -7.3658 H   0  0  0  0  0  0  0  0  0  0  0  0
 10 11  1  0  0  0
 11 12  2  0  0  0
 12 13  1  0  0  0
 13 14  2  0  0  0
 14 15  1  0  0  0
 15 16  2  0  0  0
 15  1  1  0  0  0
  1  2  1  0  0  0
  2  3  2  0  0  0
  2  4  1  0  0  0
  4  5  2  0  0  0
  5 17  1  0  0  0
 17 18  1  0  0  0
 18 19  2  0  0  0
 19 20  1  0  0  0
 19 21  1  0  0  0
 21 22  1  0  0  0
  4  6  1  0  0  0
  6  7  2  0  0  0
  6  8  1  0  0  0
  8  9  2  0  0  0
  9 24  1  0  0  0
 24 25  2  0  0  0
 25 26  1  0  0  0
 26 27  2  0  0  0
 27 29  1  0  0  0
 29 30  1  0  0  0
 27 28  1  0  0  0
 16 11  1  0  0  0
  9  1  1  0  0  0
 28 24  1  0  0  0
 22 17  2  0  0  0
 21 23  1  0  0  0
 30 31  1  0  0  0
M  END
> <minimizedAffinity>
-5.24712

> <CNNscore>
0.2165489793

> <CNNaffinity>
5.3433022499

> <CNN_VS>
1.1570866108

> <CNNaffinity_variance>
0.5479398370

$$$$
[H]OC([H])([H])c1sc(C2=NC(=O)/C(=C(/[H])c3nn([H])c(C([H])([H])[H])c3[H])C(=O)N2c2nc([H])c([H])c(C([H])([H])[H])c2[H])c([H])c1[H]


 31 34  0  0  0  0  0  0  0  0999 V2000
   39.9406   13.2606  -15.1118 N   0  0  0  0  0  0  0  0  0  0  0  0
   41.3927   13.2736  -15.0536 C   0  0  0  0  0  0  0  0  0  0  0  0
   42.0542   12.5961  -15.8513 O   0  0  0  0  0  0  0  0  0  0  0  0
   42.0565   14.0986  -14.0403 C   0  0  0  0  0  0  0  0  0  0  0  0
   43.3600   14.1283  -13.8974 C   0  0  0  0  0  0  0  0  0  0  0  0
   41.2066   14.8506  -13.1573 C   0  0  0  0  0  0  0  0  0  0  0  0
   41.6500   15.5814  -12.2557 O   0  0  0  0  0  0  0  0  0  0  0  0
   39.7976   14.7721  -13.2946 N   0  0  0  0  0  0  0  0  0  0  0  0
   39.2068   14.0290  -14.2079 C   0  0  0  0  0  0  0  0  0  0  0  0
   36.0732   10.7310  -16.8799 C   0  0  0  0  0  0  0  0  0  0  0  0
   37.4659   11.2028  -16.9762 C   0  0  0  0  0  0  0  0  0  0  0  0
   38.2397   10.8297  -18.0582 C   0  0  0  0  0  0  0  0  0  0  0  0
   39.5410   11.2775  -18.1299 C   0  0  0  0  0  0  0  0  0  0  0  0
   40.0256   12.0501  -17.1718 N   0  0  0  0  0  0  0  0  0  0  0  0
   39.3083   12.4529  -16.0766 C   0  0  0  0  0  0  0  0  0  0  0  0
   38.0205   12.0001  -16.0214 C   0  0  0  0  0  0  0  0  0  0  0  0
   44.1208   14.9026  -12.9467 C   0  0  0  0  0  0  0  0  0  0  0  0
   44.5816   16.2088  -13.0672 C   0  0  0  0  0  0  0  0  0  0  0  0
   45.1678   16.5411  -11.8904 C   0  0  0  0  0  0  0  0  0  0  0  0
   45.8140   17.8347  -11.5299 C   0  0  0  0  0  0  0  0  0  0  0  0
   45.0898   15.5045  -11.0535 N   0  0  0  0  0  0  0  0  0  0  0  0
   44.4689   14.5522  -11.6990 N   0  0  0  0  0  0  0  0  0  0  0  0
   45.4444   15.4500  -10.0816 H   0  0  0  0  0  0  0  0  0  0  0  0
   37.7440   14.0183  -14.2427 C   0  0  0  0  0  0  0  0  0  0  0  0
   36.8187   14.6789  -14.9729 C   0  0  0  0  0  0  0  0  0  0  0  0
   35.5217   14.4284  -14.7484 C   0  0  0  0  0  0  0  0  0  0  0  0
   35.2169   13.5077  -13.7806 C   0  0  0  0  0  0  0  0  0  0  0  0
   36.7488   13.0238  -13.2200 S   0  0  0  0  0  0  0  0  0  0  0  0
   33.8649   13.0385  -13.3186 C   0  0  0  0  0  0  0  0  0  0  0  0
   32.9286   13.6137  -14.1486 O   0  0  0  0  0  0  0  0  0  0  0  0
   32.9379   13.2103  -15.0308 H   0  0  0  0  0  0  0  0  0  0  0  0
 10 11  1  0  0  0
 11 12  2  0  0  0
 12 13  1  0  0  0
 13 14  2  0  0  0
 14 15  1  0  0  0
 15 16  2  0  0  0
 15  1  1  0  0  0
  1  2  1  0  0  0
  2  3  2  0  0  0
  2  4  1  0  0  0
  4  5  2  0  0  0
  5 17  1  0  0  0
 17 18  1  0  0  0
 18 19  2  0  0  0
 19 20  1  0  0  0
 19 21  1  0  0  0
 21 22  1  0  0  0
  4  6  1  0  0  0
  6  7  2  0  0  0
  6  8  1  0  0  0
  8  9  2  0  0  0
  9 24  1  0  0  0
 24 25  2  0  0  0
 25 26  1  0  0  0
 26 27  2  0  0  0
 27 29  1  0  0  0
 29 30  1  0  0  0
 27 28  1  0  0  0
 16 11  1  0  0  0
  9  1  1  0  0  0
 28 24  1  0  0  0
 22 17  2  0  0  0
 21 23  1  0  0  0
 30 31  1  0  0  0
M  END
> <minimizedAffinity>
-8.22094

> <CNNscore>
0.2000534236

> <CNNaffinity>
6.6167564392

> <CNN_VS>
1.3237047195

> <CNNaffinity_variance>
0.1614284813

$$$$
[H]OC([H])([H])c1sc(C2=NC(=O)/C(=C(/[H])c3nn([H])c(C([H])([H])[H])c3[H])C(=O)N2c2nc([H])c([H])c(C([H])([H])[H])c2[H])c([H])c1[H]


 31 34  0  0  0  0  0  0  0  0999 V2000
   44.8617   13.9846  -12.3417 N   0  0  0  0  0  0  0  0  0  0  0  0
   44.8511   13.5522  -13.7292 C   0  0  0  0  0  0  0  0  0  0  0  0
   45.9135   13.2863  -14.3068 O   0  0  0  0  0  0  0  0  0  0  0  0
   43.5683   13.4365  -14.4283 C   0  0  0  0  0  0  0  0  0  0  0  0
   43.4812   13.0952  -15.6917 C   0  0  0  0  0  0  0  0  0  0  0  0
   42.3877   13.7669  -13.6769 C   0  0  0  0  0  0  0  0  0  0  0  0
   41.2445   13.7129  -14.1602 O   0  0  0  0  0  0  0  0  0  0  0  0
   42.5018   14.1789  -12.3251 N   0  0  0  0  0  0  0  0  0  0  0  0
   43.6580   14.2804  -11.7019 C   0  0  0  0  0  0  0  0  0  0  0  0
   48.5500   12.2403   -9.5424 C   0  0  0  0  0  0  0  0  0  0  0  0
   47.9108   13.3175  -10.3186 C   0  0  0  0  0  0  0  0  0  0  0  0
   48.5247   14.5521  -10.4066 C   0  0  0  0  0  0  0  0  0  0  0  0
   47.9107   15.5487  -11.1340 C   0  0  0  0  0  0  0  0  0  0  0  0
   46.7546   15.3115  -11.7313 N   0  0  0  0  0  0  0  0  0  0  0  0
   46.0987   14.1100  -11.6804 C   0  0  0  0  0  0  0  0  0  0  0  0
   46.7211   13.1336  -10.9555 C   0  0  0  0  0  0  0  0  0  0  0  0
   42.2812   12.9426  -16.4785 C   0  0  0  0  0  0  0  0  0  0  0  0
   41.7233   11.7749  -16.9868 C   0  0  0  0  0  0  0  0  0  0  0  0
   40.5527   12.1118  -17.5825 C   0  0  0  0  0  0  0  0  0  0  0  0
   39.5915   11.2074  -18.2746 C   0  0  0  0  0  0  0  0  0  0  0  0
   40.3638   13.4278  -17.4652 N   0  0  0  0  0  0  0  0  0  0  0  0
   41.3953   13.8940  -16.8113 N   0  0  0  0  0  0  0  0  0  0  0  0
   39.5632   13.9841  -17.8159 H   0  0  0  0  0  0  0  0  0  0  0  0
   43.6498   14.7300  -10.3094 C   0  0  0  0  0  0  0  0  0  0  0  0
   43.5446   14.0967   -9.1205 C   0  0  0  0  0  0  0  0  0  0  0  0
   43.5737   14.8263   -7.9970 C   0  0  0  0  0  0  0  0  0  0  0  0
   43.7095   16.1831   -8.1311 C   0  0  0  0  0  0  0  0  0  0  0  0
   43.7930   16.3921   -9.8176 S   0  0  0  0  0  0  0  0  0  0  0  0
   43.7666   17.2351   -7.0579 C   0  0  0  0  0  0  0  0  0  0  0  0
   42.4751   17.4550   -6.6339 O   0  0  0  0  0  0  0  0  0  0  0  0
   42.1421   16.7135   -6.1044 H   0  0  0  0  0  0  0  0  0  0  0  0
 10 11  1  0  0  0
 11 12  2  0  0  0
 12 13  1  0  0  0
 13 14  2  0  0  0
 14 15  1  0  0  0
 15 16  2  0  0  0
 15  1  1  0  0  0
  1  2  1  0  0  0
  2  3  2  0  0  0
  2  4  1  0  0  0
  4  5  2  0  0  0
  5 17  1  0  0  0
 17 18  1  0  0  0
 18 19  2  0  0  0
 19 20  1  0  0  0
 19 21  1  0  0  0
 21 22  1  0  0  0
  4  6  1  0  0  0
  6  7  2  0  0  0
  6  8  1  0  0  0
  8  9  2  0  0  0
  9 24  1  0  0  0
 24 25  2  0  0  0
 25 26  1  0  0  0
 26 27  2  0  0  0
 27 29  1  0  0  0
 29 30  1  0  0  0
 27 28  1  0  0  0
 16 11  1  0  0  0
  9  1  1  0  0  0
 28 24  1  0  0  0
 22 17  2  0  0  0
 21 23  1  0  0  0
 30 31  1  0  0  0
M  END
> <minimizedAffinity>
-5.36161

> <CNNscore>
0.1814501286

> <CNNaffinity>
5.8698782921

> <CNN_VS>
1.0650901794

> <CNNaffinity_variance>
0.3530798852

$$$$
[H]OC([H])([H])c1sc(C2=NC(=O)/C(=C(/[H])c3nn([H])c(C([H])([H])[H])c3[H])C(=O)N2c2nc([H])c([H])c(C([H])([H])[H])c2[H])c([H])c1[H]


 31 34  0  0  0  0  0  0  0  0999 V2000
   42.0884   16.1014  -11.3710 N   0  0  0  0  0  0  0  0  0  0  0  0
   40.7285   16.0464  -11.8808 C   0  0  0  0  0  0  0  0  0  0  0  0
   40.5138   16.1547  -13.0954 O   0  0  0  0  0  0  0  0  0  0  0  0
   39.6223   15.8608  -10.9376 C   0  0  0  0  0  0  0  0  0  0  0  0
   38.3667   15.8449  -11.3165 C   0  0  0  0  0  0  0  0  0  0  0  0
   39.9680   15.7454   -9.5466 C   0  0  0  0  0  0  0  0  0  0  0  0
   39.1198   15.5907   -8.6522 O   0  0  0  0  0  0  0  0  0  0  0  0
   41.3270   15.8110   -9.1477 N   0  0  0  0  0  0  0  0  0  0  0  0
   42.3171   15.9773  -10.0005 C   0  0  0  0  0  0  0  0  0  0  0  0
   45.5744   14.4696  -14.4800 C   0  0  0  0  0  0  0  0  0  0  0  0
   44.8590   15.5591  -13.7927 C   0  0  0  0  0  0  0  0  0  0  0  0
   45.2374   16.8695  -14.0125 C   0  0  0  0  0  0  0  0  0  0  0  0
   44.5592   17.8752  -13.3585 C   0  0  0  0  0  0  0  0  0  0  0  0
   43.5660   17.5747  -12.5382 N   0  0  0  0  0  0  0  0  0  0  0  0
   43.1457   16.2968  -12.2804 C   0  0  0  0  0  0  0  0  0  0  0  0
   43.8286   15.3123  -12.9369 C   0  0  0  0  0  0  0  0  0  0  0  0
   37.2016   15.6635  -10.4847 C   0  0  0  0  0  0  0  0  0  0  0  0
   36.4139   16.6343   -9.8764 C   0  0  0  0  0  0  0  0  0  0  0  0
   35.3814   15.9968   -9.2713 C   0  0  0  0  0  0  0  0  0  0  0  0
   34.2708   16.6065   -8.4865 C   0  0  0  0  0  0  0  0  0  0  0  0
   35.4955   14.6832   -9.4778 N   0  0  0  0  0  0  0  0  0  0  0  0
   36.5752   14.5127  -10.1948 N   0  0  0  0  0  0  0  0  0  0  0  0
   34.8618   13.9346   -9.1442 H   0  0  0  0  0  0  0  0  0  0  0  0
   43.6782   16.0436   -9.4674 C   0  0  0  0  0  0  0  0  0  0  0  0
   44.4758   17.0538   -9.0564 C   0  0  0  0  0  0  0  0  0  0  0  0
   45.7053   16.7633   -8.6101 C   0  0  0  0  0  0  0  0  0  0  0  0
   46.0762   15.4443   -8.6008 C   0  0  0  0  0  0  0  0  0  0  0  0
   44.6974   14.6573   -9.2131 S   0  0  0  0  0  0  0  0  0  0  0  0
   47.3796   14.8349   -8.1637 C   0  0  0  0  0  0  0  0  0  0  0  0
   47.2499   13.4689   -8.2799 O   0  0  0  0  0  0  0  0  0  0  0  0
   47.2528   13.1878   -9.2084 H   0  0  0  0  0  0  0  0  0  0  0  0
 10 11  1  0  0  0
 11 12  2  0  0  0
 12 13  1  0  0  0
 13 14  2  0  0  0
 14 15  1  0  0  0
 15 16  2  0  0  0
 15  1  1  0  0  0
  1  2  1  0  0  0
  2  3  2  0  0  0
  2  4  1  0  0  0
  4  5  2  0  0  0
  5 17  1  0  0  0
 17 18  1  0  0  0
 18 19  2  0  0  0
 19 20  1  0  0  0
 19 21  1  0  0  0
 21 22  1  0  0  0
  4  6  1  0  0  0
  6  7  2  0  0  0
  6  8  1  0  0  0
  8  9  2  0  0  0
  9 24  1  0  0  0
 24 25  2  0  0  0
 25 26  1  0  0  0
 26 27  2  0  0  0
 27 29  1  0  0  0
 29 30  1  0  0  0
 27 28  1  0  0  0
 16 11  1  0  0  0
  9  1  1  0  0  0
 28 24  1  0  0  0
 22 17  2  0  0  0
 21 23  1  0  0  0
 30 31  1  0  0  0
M  END
> <minimizedAffinity>
-5.77524

> <CNNscore>
0.1808309108

> <CNNaffinity>
5.3477306366

> <CNN_VS>
0.9670349956

> <CNNaffinity_variance>
0.1598278880

$$$$
[H]OC(=O)C([H])([H])N([H])C([H])([H])c1c([H])c(-c2c([H])c([H])c3nc([N+](=O)[O-])n(C([H])([H])[H])c3c2[H])c(C(=O)N([H])c2c([H])c([H])c(Cl)c([H])c2[H])c2c([H])c([H])c([H])nc12


 42 46  0  0  0  0  0  0  0  0999 V2000
   36.4568   14.0775  -12.8611 C   0  0  0  0  0  0  0  0  0  0  0  0
   35.1453   14.3763  -12.6456 C   0  0  0  0  0  0  0  0  0  0  0  0
   34.1304   13.8372  -13.3876 C   0  0  0  0  0  0  0  0  0  0  0  0
   34.4535   12.9559  -14.3904 C   0  0  0  0  0  0  0  0  0  0  0  0
   33.4091   12.4317  -15.0808 N   0  0  0  0  0  0  0  0  0  0  0  0
   33.6905   11.5491  -16.0490 C   0  0  0  0  0  0  0  0  0  0  0  0
   34.9565   11.1562  -16.3701 C   0  0  0  0  0  0  0  0  0  0  0  0
   36.0194   11.6931  -15.6643 C   0  0  0  0  0  0  0  0  0  0  0  0
   35.7794   12.6019  -14.6671 C   0  0  0  0  0  0  0  0  0  0  0  0
   36.7729   13.1785  -13.8874 C   0  0  0  0  0  0  0  0  0  0  0  0
   38.0769   14.5503   -7.6142 C   0  0  0  0  0  0  0  0  0  0  0  0
   38.9054   15.1336   -8.6435 N   0  0  0  0  0  0  0  0  0  0  0  0
   40.0650   15.7958   -8.5075 C   0  0  0  0  0  0  0  0  0  0  0  0
   40.5150   16.1782   -9.7325 N   0  0  0  0  0  0  0  0  0  0  0  0
   39.6302   15.7531  -10.6549 C   0  0  0  0  0  0  0  0  0  0  0  0
   39.6194   15.8822  -12.0322 C   0  0  0  0  0  0  0  0  0  0  0  0
   38.5673   15.3362  -12.7145 C   0  0  0  0  0  0  0  0  0  0  0  0
   37.5402   14.6764  -12.0927 C   0  0  0  0  0  0  0  0  0  0  0  0
   37.5791   14.5644  -10.7227 C   0  0  0  0  0  0  0  0  0  0  0  0
   38.6282   15.1021   -9.9702 C   0  0  0  0  0  0  0  0  0  0  0  0
   40.7074   16.0499   -7.2726 N   0  0  0  0  0  0  0  0  0  0  0  0
   41.7752   15.3064   -6.8530 O   0  0  0  0  0  0  0  0  0  0  0  0
   40.3070   16.9741   -6.5278 O   0  0  0  0  0  0  0  0  0  0  0  0
   38.1686   12.8176  -14.0942 C   0  0  0  0  0  0  0  0  0  0  0  0
   38.6503   11.8500  -13.4762 O   0  0  0  0  0  0  0  0  0  0  0  0
   38.9814   13.5485  -14.9721 N   0  0  0  0  0  0  0  0  0  0  0  0
   38.5615   14.3979  -15.4757 H   0  0  0  0  0  0  0  0  0  0  0  0
   40.3480   13.2873  -15.2650 C   0  0  0  0  0  0  0  0  0  0  0  0
   41.4121   13.6516  -14.4829 C   0  0  0  0  0  0  0  0  0  0  0  0
   42.6895   13.3712  -14.8882 C   0  0  0  0  0  0  0  0  0  0  0  0
   42.9469   12.7224  -16.0779 C   0  0  0  0  0  0  0  0  0  0  0  0
   44.5800   12.3623  -16.5993 Cl  0  0  0  0  0  0  0  0  0  0  0  0
   41.8722   12.3577  -16.8602 C   0  0  0  0  0  0  0  0  0  0  0  0
   40.6070   12.6332  -16.4637 C   0  0  0  0  0  0  0  0  0  0  0  0
   32.7072   14.2113  -13.1020 C   0  0  0  0  0  0  0  0  0  0  0  0
   32.5554   14.6265  -11.7219 N   0  0  0  0  0  0  0  0  0  0  0  0
   32.4253   13.8003  -11.0997 H   0  0  0  0  0  0  0  0  0  0  0  0
   31.3953   15.4942  -11.6080 C   0  0  0  0  0  0  0  0  0  0  0  0
   30.1498   14.7018  -11.6417 C   0  0  0  0  0  0  0  0  0  0  0  0
   29.3726   14.6278  -12.7804 O   0  0  0  0  0  0  0  0  0  0  0  0
   29.7982   14.0877  -10.6134 O   0  0  0  0  0  0  0  0  0  0  0  0
   28.6559   15.3094  -12.9192 H   0  0  0  0  0  0  0  0  0  0  0  0
 11 12  1  0  0  0
 12 13  1  0  0  0
 13 14  2  0  0  0
 14 15  1  0  0  0
 15 16  2  0  0  0
 16 17  1  0  0  0
 17 18  2  0  0  0
 18 19  1  0  0  0
 19 20  2  0  0  0
 18  1  1  0  0  0
  1  2  2  0  0  0
  2  3  1  0  0  0
  3 35  1  0  0  0
 35 36  1  0  0  0
 36 38  1  0  0  0
 38 39  1  0  0  0
 39 40  1  0  0  0
 39 41  2  0  0  0
  3  4  2  0  0  0
  4  5  1  0  0  0
  5  6  2  0  0  0
  6  7  1  0  0  0
  7  8  2  0  0  0
  8  9  1  0  0  0
  9 10  2  0  0  0
 10 24  1  0  0  0
 24 25  2  0  0  0
 24 26  1  0  0  0
 26 28  1  0  0  0
 28 29  2  0  0  0
 29 30  1  0  0  0
 30 31  2  0  0  0
 31 32  1  0  0  0
 31 33  1  0  0  0
 33 34  2  0  0  0
 13 21  1  0  0  0
 21 22  1  0  0  0
 21 23  2  0  0  0
 20 12  1  0  0  0
 10  1  1  0  0  0
 34 28  1  0  0  0
 20 15  1  0  0  0
  9  4  1  0  0  0
 36 37  1  0  0  0
 40 42  1  0  0  0
 26 27  1  0  0  0
M  CHG 1  21   1
M  CHG 1  22  -1
M  END
> <minimizedAffinity>
-9.61512

> <CNNscore>
0.1580134928

> <CNNaffinity>
6.9482374191

> <CNN_VS>
1.0979152918

> <CNNaffinity_variance>
0.1919285208

$$$$
[H]OC(=O)C([H])([H])N([H])C([H])([H])c1c([H])c(-c2c([H])c([H])c3nc([N+](=O)[O-])n(C([H])([H])[H])c3c2[H])c(C(=O)N([H])c2c([H])c([H])c(Cl)c([H])c2[H])c2c([H])c([H])c([H])nc12


 42 46  0  0  0  0  0  0  0  0999 V2000
   41.3618   13.4187  -14.7197 C   0  0  0  0  0  0  0  0  0  0  0  0
   42.6462   13.0176  -14.9325 C   0  0  0  0  0  0  0  0  0  0  0  0
   43.7137   13.5725  -14.2815 C   0  0  0  0  0  0  0  0  0  0  0  0
   43.4740   14.5753  -13.3740 C   0  0  0  0  0  0  0  0  0  0  0  0
   44.5640   15.0752  -12.7385 N   0  0  0  0  0  0  0  0  0  0  0  0
   44.3602   16.0375  -11.8284 C   0  0  0  0  0  0  0  0  0  0  0  0
   43.1288   16.5319  -11.5129 C   0  0  0  0  0  0  0  0  0  0  0  0
   42.0192   16.0200  -12.1634 C   0  0  0  0  0  0  0  0  0  0  0  0
   42.1801   15.0366  -13.1040 C   0  0  0  0  0  0  0  0  0  0  0  0
   41.1311   14.4429  -13.7928 C   0  0  0  0  0  0  0  0  0  0  0  0
   36.1200   12.0025  -13.7729 C   0  0  0  0  0  0  0  0  0  0  0  0
   36.6468   11.8317  -15.1068 N   0  0  0  0  0  0  0  0  0  0  0  0
   36.0210   11.3662  -16.1993 C   0  0  0  0  0  0  0  0  0  0  0  0
   36.8830   11.3684  -17.2510 N   0  0  0  0  0  0  0  0  0  0  0  0
   38.0684   11.8410  -16.8197 C   0  0  0  0  0  0  0  0  0  0  0  0
   39.2641   12.0421  -17.4857 C   0  0  0  0  0  0  0  0  0  0  0  0
   40.3152   12.5444  -16.7691 C   0  0  0  0  0  0  0  0  0  0  0  0
   40.2277   12.8507  -15.4367 C   0  0  0  0  0  0  0  0  0  0  0  0
   39.0259   12.6398  -14.8024 C   0  0  0  0  0  0  0  0  0  0  0  0
   37.9156   12.1284  -15.4815 C   0  0  0  0  0  0  0  0  0  0  0  0
   34.6718   10.9414  -16.2350 N   0  0  0  0  0  0  0  0  0  0  0  0
   33.6518   11.7568  -15.8303 O   0  0  0  0  0  0  0  0  0  0  0  0
   34.3787    9.7943  -16.6443 O   0  0  0  0  0  0  0  0  0  0  0  0
   39.7574   14.8456  -13.5248 C   0  0  0  0  0  0  0  0  0  0  0  0
   39.1346   15.5068  -14.3762 O   0  0  0  0  0  0  0  0  0  0  0  0
   39.1277   14.5077  -12.3186 N   0  0  0  0  0  0  0  0  0  0  0  0
   39.6857   13.9630  -11.5815 H   0  0  0  0  0  0  0  0  0  0  0  0
   37.7936   14.8315  -11.9486 C   0  0  0  0  0  0  0  0  0  0  0  0
   36.8025   15.2221  -12.8099 C   0  0  0  0  0  0  0  0  0  0  0  0
   35.5607   15.5397  -12.3286 C   0  0  0  0  0  0  0  0  0  0  0  0
   35.2674   15.4783  -10.9821 C   0  0  0  0  0  0  0  0  0  0  0  0
   33.6796   15.8840  -10.3631 Cl  0  0  0  0  0  0  0  0  0  0  0  0
   36.2683   15.0839  -10.1205 C   0  0  0  0  0  0  0  0  0  0  0  0
   37.4982   14.7692  -10.5919 C   0  0  0  0  0  0  0  0  0  0  0  0
   45.1038   13.0883  -14.5649 C   0  0  0  0  0  0  0  0  0  0  0  0
   45.8495   14.0835  -15.3089 N   0  0  0  0  0  0  0  0  0  0  0  0
   45.8065   13.8887  -16.3321 H   0  0  0  0  0  0  0  0  0  0  0  0
   47.2375   14.0616  -14.8792 C   0  0  0  0  0  0  0  0  0  0  0  0
   47.6950   15.4226  -14.5346 C   0  0  0  0  0  0  0  0  0  0  0  0
   47.8087   16.4097  -15.4932 O   0  0  0  0  0  0  0  0  0  0  0  0
   47.9838   15.6790  -13.3475 O   0  0  0  0  0  0  0  0  0  0  0  0
   48.6726   16.5062  -15.9849 H   0  0  0  0  0  0  0  0  0  0  0  0
 11 12  1  0  0  0
 12 13  1  0  0  0
 13 14  2  0  0  0
 14 15  1  0  0  0
 15 16  2  0  0  0
 16 17  1  0  0  0
 17 18  2  0  0  0
 18 19  1  0  0  0
 19 20  2  0  0  0
 18  1  1  0  0  0
  1  2  2  0  0  0
  2  3  1  0  0  0
  3 35  1  0  0  0
 35 36  1  0  0  0
 36 38  1  0  0  0
 38 39  1  0  0  0
 39 40  1  0  0  0
 39 41  2  0  0  0
  3  4  2  0  0  0
  4  5  1  0  0  0
  5  6  2  0  0  0
  6  7  1  0  0  0
  7  8  2  0  0  0
  8  9  1  0  0  0
  9 10  2  0  0  0
 10 24  1  0  0  0
 24 25  2  0  0  0
 24 26  1  0  0  0
 26 28  1  0  0  0
 28 29  2  0  0  0
 29 30  1  0  0  0
 30 31  2  0  0  0
 31 32  1  0  0  0
 31 33  1  0  0  0
 33 34  2  0  0  0
 13 21  1  0  0  0
 21 22  1  0  0  0
 21 23  2  0  0  0
 20 12  1  0  0  0
 10  1  1  0  0  0
 34 28  1  0  0  0
 20 15  1  0  0  0
  9  4  1  0  0  0
 36 37  1  0  0  0
 40 42  1  0  0  0
 26 27  1  0  0  0
M  CHG 1  21   1
M  CHG 1  22  -1
M  END
> <minimizedAffinity>
-9.13199

> <CNNscore>
0.1448770761

> <CNNaffinity>
6.8791303635

> <CNN_VS>
0.9966282845

> <CNNaffinity_variance>
0.1023049578

$$$$
[H]OC(=O)C([H])([H])N([H])C([H])([H])c1c([H])c(-c2c([H])c([H])c3nc([N+](=O)[O-])n(C([H])([H])[H])c3c2[H])c(C(=O)N([H])c2c([H])c([H])c(Cl)c([H])c2[H])c2c([H])c([H])c([H])nc12


 42 46  0  0  0  0  0  0  0  0999 V2000
   40.3742   15.6962  -11.6448 C   0  0  0  0  0  0  0  0  0  0  0  0
   40.2395   16.1758  -10.3769 C   0  0  0  0  0  0  0  0  0  0  0  0
   39.0238   16.3399   -9.7715 C   0  0  0  0  0  0  0  0  0  0  0  0
   37.8941   16.0031  -10.4764 C   0  0  0  0  0  0  0  0  0  0  0  0
   36.7155   16.1622   -9.8224 N   0  0  0  0  0  0  0  0  0  0  0  0
   35.5967   15.8182  -10.4748 C   0  0  0  0  0  0  0  0  0  0  0  0
   35.5838   15.3223  -11.7453 C   0  0  0  0  0  0  0  0  0  0  0  0
   36.7876   15.1617  -12.4096 C   0  0  0  0  0  0  0  0  0  0  0  0
   37.9572   15.5031  -11.7825 C   0  0  0  0  0  0  0  0  0  0  0  0
   39.2144   15.3577  -12.3532 C   0  0  0  0  0  0  0  0  0  0  0  0
   44.6529   18.8261  -13.1530 C   0  0  0  0  0  0  0  0  0  0  0  0
   44.7179   17.4059  -13.4078 N   0  0  0  0  0  0  0  0  0  0  0  0
   45.7111   16.7032  -13.9749 C   0  0  0  0  0  0  0  0  0  0  0  0
   45.3653   15.3890  -14.0249 N   0  0  0  0  0  0  0  0  0  0  0  0
   44.1391   15.2578  -13.4829 C   0  0  0  0  0  0  0  0  0  0  0  0
   43.3425   14.1427  -13.2947 C   0  0  0  0  0  0  0  0  0  0  0  0
   42.1216   14.3247  -12.7057 C   0  0  0  0  0  0  0  0  0  0  0  0
   41.6666   15.5522  -12.3019 C   0  0  0  0  0  0  0  0  0  0  0  0
   42.4813   16.6417  -12.5025 C   0  0  0  0  0  0  0  0  0  0  0  0
   43.7399   16.5190  -13.0997 C   0  0  0  0  0  0  0  0  0  0  0  0
   46.9247   17.2589  -14.4444 N   0  0  0  0  0  0  0  0  0  0  0  0
   48.0669   17.2254  -13.6939 O   0  0  0  0  0  0  0  0  0  0  0  0
   46.9798   17.7999  -15.5729 O   0  0  0  0  0  0  0  0  0  0  0  0
   39.3516   14.8005  -13.6918 C   0  0  0  0  0  0  0  0  0  0  0  0
   39.6018   15.5567  -14.6486 O   0  0  0  0  0  0  0  0  0  0  0  0
   39.1975   13.4261  -13.9215 N   0  0  0  0  0  0  0  0  0  0  0  0
   38.9529   12.7899  -13.0927 H   0  0  0  0  0  0  0  0  0  0  0  0
   39.3191   12.7655  -15.1746 C   0  0  0  0  0  0  0  0  0  0  0  0
   38.3733   11.9504  -15.7384 C   0  0  0  0  0  0  0  0  0  0  0  0
   38.6196   11.3426  -16.9403 C   0  0  0  0  0  0  0  0  0  0  0  0
   39.8082   11.5262  -17.6157 C   0  0  0  0  0  0  0  0  0  0  0  0
   40.1264   10.7498  -19.1535 Cl  0  0  0  0  0  0  0  0  0  0  0  0
   40.7556   12.3478  -17.0439 C   0  0  0  0  0  0  0  0  0  0  0  0
   40.5167   12.9509  -15.8551 C   0  0  0  0  0  0  0  0  0  0  0  0
   38.9442   16.8771   -8.3743 C   0  0  0  0  0  0  0  0  0  0  0  0
   38.4819   18.2506   -8.3809 N   0  0  0  0  0  0  0  0  0  0  0  0
   39.2701   18.9048   -8.5743 H   0  0  0  0  0  0  0  0  0  0  0  0
   37.9079   18.5685   -7.0843 C   0  0  0  0  0  0  0  0  0  0  0  0
   36.4507   18.3298   -7.0897 C   0  0  0  0  0  0  0  0  0  0  0  0
   35.6785   18.6074   -8.2000 O   0  0  0  0  0  0  0  0  0  0  0  0
   35.9120   17.8662   -6.0635 O   0  0  0  0  0  0  0  0  0  0  0  0
   35.2842   19.5199   -8.2963 H   0  0  0  0  0  0  0  0  0  0  0  0
 11 12  1  0  0  0
 12 13  1  0  0  0
 13 14  2  0  0  0
 14 15  1  0  0  0
 15 16  2  0  0  0
 16 17  1  0  0  0
 17 18  2  0  0  0
 18 19  1  0  0  0
 19 20  2  0  0  0
 18  1  1  0  0  0
  1  2  2  0  0  0
  2  3  1  0  0  0
  3 35  1  0  0  0
 35 36  1  0  0  0
 36 38  1  0  0  0
 38 39  1  0  0  0
 39 40  1  0  0  0
 39 41  2  0  0  0
  3  4  2  0  0  0
  4  5  1  0  0  0
  5  6  2  0  0  0
  6  7  1  0  0  0
  7  8  2  0  0  0
  8  9  1  0  0  0
  9 10  2  0  0  0
 10 24  1  0  0  0
 24 25  2  0  0  0
 24 26  1  0  0  0
 26 28  1  0  0  0
 28 29  2  0  0  0
 29 30  1  0  0  0
 30 31  2  0  0  0
 31 32  1  0  0  0
 31 33  1  0  0  0
 33 34  2  0  0  0
 13 21  1  0  0  0
 21 22  1  0  0  0
 21 23  2  0  0  0
 20 12  1  0  0  0
 10  1  1  0  0  0
 34 28  1  0  0  0
 20 15  1  0  0  0
  9  4  1  0  0  0
 36 37  1  0  0  0
 40 42  1  0  0  0
 26 27  1  0  0  0
M  CHG 1  21   1
M  CHG 1  22  -1
M  END
> <minimizedAffinity>
-8.65352

> <CNNscore>
0.1438723505

> <CNNaffinity>
6.2973303795

> <CNN_VS>
0.9060117006

> <CNNaffinity_variance>
0.4221940637

$$$$
[H]OC(=O)C([H])([H])N([H])C([H])([H])c1c([H])c(-c2c([H])c([H])c3nc([N+](=O)[O-])n(C([H])([H])[H])c3c2[H])c(C(=O)N([H])c2c([H])c([H])c(Cl)c([H])c2[H])c2c([H])c([H])c([H])nc12


 42 46  0  0  0  0  0  0  0  0999 V2000
   40.5938   15.6451  -11.5779 C   0  0  0  0  0  0  0  0  0  0  0  0
   40.4444   16.0669  -10.2911 C   0  0  0  0  0  0  0  0  0  0  0  0
   39.2261   16.1493   -9.6746 C   0  0  0  0  0  0  0  0  0  0  0  0
   38.1092   15.7881  -10.3878 C   0  0  0  0  0  0  0  0  0  0  0  0
   36.9284   15.8654   -9.7231 N   0  0  0  0  0  0  0  0  0  0  0  0
   35.8231   15.4956  -10.3841 C   0  0  0  0  0  0  0  0  0  0  0  0
   35.8256   15.0508  -11.6735 C   0  0  0  0  0  0  0  0  0  0  0  0
   37.0316   14.9736  -12.3486 C   0  0  0  0  0  0  0  0  0  0  0  0
   38.1877   15.3443  -11.7132 C   0  0  0  0  0  0  0  0  0  0  0  0
   39.4470   15.2811  -12.2945 C   0  0  0  0  0  0  0  0  0  0  0  0
   44.5981   19.0672  -13.2010 C   0  0  0  0  0  0  0  0  0  0  0  0
   44.7728   17.6510  -13.4250 N   0  0  0  0  0  0  0  0  0  0  0  0
   45.8132   17.0160  -13.9872 C   0  0  0  0  0  0  0  0  0  0  0  0
   45.5719   15.6778  -14.0043 N   0  0  0  0  0  0  0  0  0  0  0  0
   44.3648   15.4628  -13.4464 C   0  0  0  0  0  0  0  0  0  0  0  0
   43.6606   14.2930  -13.2250 C   0  0  0  0  0  0  0  0  0  0  0  0
   42.4345   14.3916  -12.6270 C   0  0  0  0  0  0  0  0  0  0  0  0
   41.8876   15.5884  -12.2455 C   0  0  0  0  0  0  0  0  0  0  0  0
   42.6118   16.7339  -12.4790 C   0  0  0  0  0  0  0  0  0  0  0  0
   43.8708   16.6970  -13.0868 C   0  0  0  0  0  0  0  0  0  0  0  0
   46.9748   17.6546  -14.4819 N   0  0  0  0  0  0  0  0  0  0  0  0
   47.1325   17.9270  -15.8123 O   0  0  0  0  0  0  0  0  0  0  0  0
   47.8957   17.9893  -13.7014 O   0  0  0  0  0  0  0  0  0  0  0  0
   39.6020   14.7848  -13.6549 C   0  0  0  0  0  0  0  0  0  0  0  0
   39.7174   15.5942  -14.5939 O   0  0  0  0  0  0  0  0  0  0  0  0
   39.6145   13.4092  -13.9251 N   0  0  0  0  0  0  0  0  0  0  0  0
   39.4845   12.7233  -13.1102 H   0  0  0  0  0  0  0  0  0  0  0  0
   39.7705   12.8060  -15.2032 C   0  0  0  0  0  0  0  0  0  0  0  0
   40.8967   12.8709  -15.9804 C   0  0  0  0  0  0  0  0  0  0  0  0
   40.9156   12.2739  -17.2124 C   0  0  0  0  0  0  0  0  0  0  0  0
   39.8204   11.5966  -17.7069 C   0  0  0  0  0  0  0  0  0  0  0  0
   39.8414   10.8318  -19.2828 Cl  0  0  0  0  0  0  0  0  0  0  0  0
   38.6904   11.5341  -16.9201 C   0  0  0  0  0  0  0  0  0  0  0  0
   38.6669   12.1234  -15.7011 C   0  0  0  0  0  0  0  0  0  0  0  0
   39.1298   16.6259   -8.2567 C   0  0  0  0  0  0  0  0  0  0  0  0
   38.6367   15.5701   -7.3952 N   0  0  0  0  0  0  0  0  0  0  0  0
   38.2554   15.9643   -6.5087 H   0  0  0  0  0  0  0  0  0  0  0  0
   39.7257   14.6608   -7.0811 C   0  0  0  0  0  0  0  0  0  0  0  0
   39.2289   13.5033   -6.3105 C   0  0  0  0  0  0  0  0  0  0  0  0
   39.6603   12.2195   -6.5786 O   0  0  0  0  0  0  0  0  0  0  0  0
   38.4001   13.6979   -5.3975 O   0  0  0  0  0  0  0  0  0  0  0  0
   39.1633   11.6755   -7.2527 H   0  0  0  0  0  0  0  0  0  0  0  0
 11 12  1  0  0  0
 12 13  1  0  0  0
 13 14  2  0  0  0
 14 15  1  0  0  0
 15 16  2  0  0  0
 16 17  1  0  0  0
 17 18  2  0  0  0
 18 19  1  0  0  0
 19 20  2  0  0  0
 18  1  1  0  0  0
  1  2  2  0  0  0
  2  3  1  0  0  0
  3 35  1  0  0  0
 35 36  1  0  0  0
 36 38  1  0  0  0
 38 39  1  0  0  0
 39 40  1  0  0  0
 39 41  2  0  0  0
  3  4  2  0  0  0
  4  5  1  0  0  0
  5  6  2  0  0  0
  6  7  1  0  0  0
  7  8  2  0  0  0
  8  9  1  0  0  0
  9 10  2  0  0  0
 10 24  1  0  0  0
 24 25  2  0  0  0
 24 26  1  0  0  0
 26 28  1  0  0  0
 28 29  2  0  0  0
 29 30  1  0  0  0
 30 31  2  0  0  0
 31 32  1  0  0  0
 31 33  1  0  0  0
 33 34  2  0  0  0
 13 21  1  0  0  0
 21 22  1  0  0  0
 21 23  2  0  0  0
 20 12  1  0  0  0
 10  1  1  0  0  0
 34 28  1  0  0  0
 20 15  1  0  0  0
  9  4  1  0  0  0
 36 37  1  0  0  0
 40 42  1  0  0  0
 26 27  1  0  0  0
M  CHG 1  21   1
M  CHG 1  22  -1
M  END
> <minimizedAffinity>
-8.79803

> <CNNscore>
0.1425313056

> <CNNaffinity>
6.4399590492

> <CNN_VS>
0.9178957939

> <CNNaffinity_variance>
0.2708247006

$$$$
[H]OC(=O)C([H])([H])N([H])C([H])([H])c1c([H])c(-c2c([H])c([H])c3nc([N+](=O)[O-])n(C([H])([H])[H])c3c2[H])c(C(=O)N([H])c2c([H])c([H])c(Cl)c([H])c2[H])c2c([H])c([H])c([H])nc12


 42 46  0  0  0  0  0  0  0  0999 V2000
   40.3635   15.8318  -11.0197 C   0  0  0  0  0  0  0  0  0  0  0  0
   40.1482   16.2387   -9.7375 C   0  0  0  0  0  0  0  0  0  0  0  0
   38.8962   16.3756   -9.2035 C   0  0  0  0  0  0  0  0  0  0  0  0
   37.8137   16.0871   -9.9982 C   0  0  0  0  0  0  0  0  0  0  0  0
   36.5957   16.2161   -9.4137 N   0  0  0  0  0  0  0  0  0  0  0  0
   35.5206   15.9174  -10.1557 C   0  0  0  0  0  0  0  0  0  0  0  0
   35.5888   15.4953  -11.4509 C   0  0  0  0  0  0  0  0  0  0  0  0
   36.8327   15.3653  -12.0442 C   0  0  0  0  0  0  0  0  0  0  0  0
   37.9601   15.6626  -11.3242 C   0  0  0  0  0  0  0  0  0  0  0  0
   39.2513   15.5420  -11.8199 C   0  0  0  0  0  0  0  0  0  0  0  0
   44.5422   12.2413  -11.1811 C   0  0  0  0  0  0  0  0  0  0  0  0
   44.6700   13.4767  -11.9184 N   0  0  0  0  0  0  0  0  0  0  0  0
   45.6959   13.8956  -12.6758 C   0  0  0  0  0  0  0  0  0  0  0  0
   45.4079   15.1203  -13.1920 N   0  0  0  0  0  0  0  0  0  0  0  0
   44.1853   15.4810  -12.7566 C   0  0  0  0  0  0  0  0  0  0  0  0
   43.4369   16.6210  -12.9889 C   0  0  0  0  0  0  0  0  0  0  0  0
   42.2059   16.7055  -12.3989 C   0  0  0  0  0  0  0  0  0  0  0  0
   41.6955   15.7173  -11.5990 C   0  0  0  0  0  0  0  0  0  0  0  0
   42.4631   14.5962  -11.3870 C   0  0  0  0  0  0  0  0  0  0  0  0
   43.7295   14.4522  -11.9626 C   0  0  0  0  0  0  0  0  0  0  0  0
   46.8877   13.1645  -12.8933 N   0  0  0  0  0  0  0  0  0  0  0  0
   46.8956   12.0033  -13.6149 O   0  0  0  0  0  0  0  0  0  0  0  0
   47.9757   13.5710  -12.4239 O   0  0  0  0  0  0  0  0  0  0  0  0
   39.4735   15.0617  -13.1767 C   0  0  0  0  0  0  0  0  0  0  0  0
   39.5836   15.8812  -14.1075 O   0  0  0  0  0  0  0  0  0  0  0  0
   39.5567   13.6897  -13.4528 N   0  0  0  0  0  0  0  0  0  0  0  0
   39.4306   12.9936  -12.6460 H   0  0  0  0  0  0  0  0  0  0  0  0
   39.7819   13.1021  -14.7278 C   0  0  0  0  0  0  0  0  0  0  0  0
   40.9354   13.2082  -15.4592 C   0  0  0  0  0  0  0  0  0  0  0  0
   41.0217   12.6221  -16.6936 C   0  0  0  0  0  0  0  0  0  0  0  0
   39.9687   11.9151  -17.2359 C   0  0  0  0  0  0  0  0  0  0  0  0
   40.0759   11.1641  -18.8149 Cl  0  0  0  0  0  0  0  0  0  0  0  0
   38.8110   11.8112  -16.4950 C   0  0  0  0  0  0  0  0  0  0  0  0
   38.7208   12.3895  -15.2739 C   0  0  0  0  0  0  0  0  0  0  0  0
   38.7276   16.8323   -7.7857 C   0  0  0  0  0  0  0  0  0  0  0  0
   38.0501   15.8202   -7.0003 N   0  0  0  0  0  0  0  0  0  0  0  0
   37.5865   16.2463   -6.1695 H   0  0  0  0  0  0  0  0  0  0  0  0
   39.0191   14.8352   -6.5505 C   0  0  0  0  0  0  0  0  0  0  0  0
   38.4706   13.4706   -6.6818 C   0  0  0  0  0  0  0  0  0  0  0  0
   37.1369   13.2536   -6.9655 O   0  0  0  0  0  0  0  0  0  0  0  0
   39.2361   12.4961   -6.5316 O   0  0  0  0  0  0  0  0  0  0  0  0
   36.4896   13.1792   -6.2086 H   0  0  0  0  0  0  0  0  0  0  0  0
 11 12  1  0  0  0
 12 13  1  0  0  0
 13 14  2  0  0  0
 14 15  1  0  0  0
 15 16  2  0  0  0
 16 17  1  0  0  0
 17 18  2  0  0  0
 18 19  1  0  0  0
 19 20  2  0  0  0
 18  1  1  0  0  0
  1  2  2  0  0  0
  2  3  1  0  0  0
  3 35  1  0  0  0
 35 36  1  0  0  0
 36 38  1  0  0  0
 38 39  1  0  0  0
 39 40  1  0  0  0
 39 41  2  0  0  0
  3  4  2  0  0  0
  4  5  1  0  0  0
  5  6  2  0  0  0
  6  7  1  0  0  0
  7  8  2  0  0  0
  8  9  1  0  0  0
  9 10  2  0  0  0
 10 24  1  0  0  0
 24 25  2  0  0  0
 24 26  1  0  0  0
 26 28  1  0  0  0
 28 29  2  0  0  0
 29 30  1  0  0  0
 30 31  2  0  0  0
 31 32  1  0  0  0
 31 33  1  0  0  0
 33 34  2  0  0  0
 13 21  1  0  0  0
 21 22  1  0  0  0
 21 23  2  0  0  0
 20 12  1  0  0  0
 10  1  1  0  0  0
 34 28  1  0  0  0
 20 15  1  0  0  0
  9  4  1  0  0  0
 36 37  1  0  0  0
 40 42  1  0  0  0
 26 27  1  0  0  0
M  CHG 1  21   1
M  CHG 1  22  -1
M  END
> <minimizedAffinity>
-8.21300

> <CNNscore>
0.1323886812

> <CNNaffinity>
6.3320407867

> <CNN_VS>
0.8382905126

> <CNNaffinity_variance>
0.4217654765

$$$$
[H]OC(=O)C([H])([H])N([H])C([H])([H])c1c([H])c(-c2c([H])c([H])c3nc([N+](=O)[O-])n(C([H])([H])[H])c3c2[H])c(C(=O)N([H])c2c([H])c([H])c(Cl)c([H])c2[H])c2c([H])c([H])c([H])nc12


 42 46  0  0  0  0  0  0  0  0999 V2000
   38.7054   13.7103  -14.1940 C   0  0  0  0  0  0  0  0  0  0  0  0
   39.6919   13.5142  -15.1128 C   0  0  0  0  0  0  0  0  0  0  0  0
   39.5385   12.7032  -16.2037 C   0  0  0  0  0  0  0  0  0  0  0  0
   38.3354   12.0634  -16.3759 C   0  0  0  0  0  0  0  0  0  0  0  0
   38.2267   11.2898  -17.4858 N   0  0  0  0  0  0  0  0  0  0  0  0
   37.0561   10.6723  -17.6952 C   0  0  0  0  0  0  0  0  0  0  0  0
   35.9830   10.7817  -16.8604 C   0  0  0  0  0  0  0  0  0  0  0  0
   36.0974   11.5711  -15.7291 C   0  0  0  0  0  0  0  0  0  0  0  0
   37.2771   12.2194  -15.4728 C   0  0  0  0  0  0  0  0  0  0  0  0
   37.4839   13.0511  -14.3805 C   0  0  0  0  0  0  0  0  0  0  0  0
   36.4942   14.3683   -9.1884 C   0  0  0  0  0  0  0  0  0  0  0  0
   37.6124   15.2036   -9.5599 N   0  0  0  0  0  0  0  0  0  0  0  0
   38.2246   16.1521   -8.8338 C   0  0  0  0  0  0  0  0  0  0  0  0
   39.2343   16.6994   -9.5620 N   0  0  0  0  0  0  0  0  0  0  0  0
   39.2620   16.0903  -10.7631 C   0  0  0  0  0  0  0  0  0  0  0  0
   40.0877   16.2747  -11.8575 C   0  0  0  0  0  0  0  0  0  0  0  0
   39.8700   15.4925  -12.9581 C   0  0  0  0  0  0  0  0  0  0  0  0
   38.8793   14.5479  -13.0147 C   0  0  0  0  0  0  0  0  0  0  0  0
   38.0747   14.3881  -11.9109 C   0  0  0  0  0  0  0  0  0  0  0  0
   38.2482   15.1582  -10.7565 C   0  0  0  0  0  0  0  0  0  0  0  0
   37.8628   16.5159   -7.5151 N   0  0  0  0  0  0  0  0  0  0  0  0
   36.9706   17.5216   -7.2673 O   0  0  0  0  0  0  0  0  0  0  0  0
   38.3582   15.9159   -6.5333 O   0  0  0  0  0  0  0  0  0  0  0  0
   36.4082   13.2916  -13.4286 C   0  0  0  0  0  0  0  0  0  0  0  0
   36.3081   12.5684  -12.4201 O   0  0  0  0  0  0  0  0  0  0  0  0
   35.4777   14.3198  -13.6346 N   0  0  0  0  0  0  0  0  0  0  0  0
   35.5581   14.9166  -14.5227 H   0  0  0  0  0  0  0  0  0  0  0  0
   34.3967   14.6583  -12.7752 C   0  0  0  0  0  0  0  0  0  0  0  0
   33.1004   14.2421  -12.9270 C   0  0  0  0  0  0  0  0  0  0  0  0
   32.1374   14.6624  -12.0492 C   0  0  0  0  0  0  0  0  0  0  0  0
   32.4326   15.5052  -10.9979 C   0  0  0  0  0  0  0  0  0  0  0  0
   31.2027   16.0448   -9.8731 Cl  0  0  0  0  0  0  0  0  0  0  0  0
   33.7386   15.9201  -10.8499 C   0  0  0  0  0  0  0  0  0  0  0  0
   34.6944   15.5073  -11.7158 C   0  0  0  0  0  0  0  0  0  0  0  0
   40.6659   12.5265  -17.1757 C   0  0  0  0  0  0  0  0  0  0  0  0
   41.8978   13.0619  -16.6318 N   0  0  0  0  0  0  0  0  0  0  0  0
   42.1971   13.9095  -17.1599 H   0  0  0  0  0  0  0  0  0  0  0  0
   42.9396   12.0530  -16.7229 C   0  0  0  0  0  0  0  0  0  0  0  0
   44.2632   12.6484  -16.4516 C   0  0  0  0  0  0  0  0  0  0  0  0
   44.4495   14.0164  -16.4374 O   0  0  0  0  0  0  0  0  0  0  0  0
   45.2310   11.8915  -16.2309 O   0  0  0  0  0  0  0  0  0  0  0  0
   44.6861   14.4790  -17.2903 H   0  0  0  0  0  0  0  0  0  0  0  0
 11 12  1  0  0  0
 12 13  1  0  0  0
 13 14  2  0  0  0
 14 15  1  0  0  0
 15 16  2  0  0  0
 16 17  1  0  0  0
 17 18  2  0  0  0
 18 19  1  0  0  0
 19 20  2  0  0  0
 18  1  1  0  0  0
  1  2  2  0  0  0
  2  3  1  0  0  0
  3 35  1  0  0  0
 35 36  1  0  0  0
 36 38  1  0  0  0
 38 39  1  0  0  0
 39 40  1  0  0  0
 39 41  2  0  0  0
  3  4  2  0  0  0
  4  5  1  0  0  0
  5  6  2  0  0  0
  6  7  1  0  0  0
  7  8  2  0  0  0
  8  9  1  0  0  0
  9 10  2  0  0  0
 10 24  1  0  0  0
 24 25  2  0  0  0
 24 26  1  0  0  0
 26 28  1  0  0  0
 28 29  2  0  0  0
 29 30  1  0  0  0
 30 31  2  0  0  0
 31 32  1  0  0  0
 31 33  1  0  0  0
 33 34  2  0  0  0
 13 21  1  0  0  0
 21 22  1  0  0  0
 21 23  2  0  0  0
 20 12  1  0  0  0
 10  1  1  0  0  0
 34 28  1  0  0  0
 20 15  1  0  0  0
  9  4  1  0  0  0
 36 37  1  0  0  0
 40 42  1  0  0  0
 26 27  1  0  0  0
M  CHG 1  21   1
M  CHG 1  22  -1
M  END
> <minimizedAffinity>
-9.66701

> <CNNscore>
0.0904079378

> <CNNaffinity>
6.7880234718

> <CNN_VS>
0.6136912107

> <CNNaffinity_variance>
0.1444648206

$$$$
[H]OC(=O)C([H])([H])N([H])C([H])([H])c1c([H])c(-c2c([H])c([H])c3nc([N+](=O)[O-])n(C([H])([H])[H])c3c2[H])c(C(=O)N([H])c2c([H])c([H])c(Cl)c([H])c2[H])c2c([H])c([H])c([H])nc12


 42 46  0  0  0  0  0  0  0  0999 V2000
   40.2799   15.7379  -10.9504 C   0  0  0  0  0  0  0  0  0  0  0  0
   40.0738   16.1059   -9.6550 C   0  0  0  0  0  0  0  0  0  0  0  0
   38.8267   16.2036   -9.1015 C   0  0  0  0  0  0  0  0  0  0  0  0
   37.7395   15.9152   -9.8898 C   0  0  0  0  0  0  0  0  0  0  0  0
   36.5270   16.0043   -9.2864 N   0  0  0  0  0  0  0  0  0  0  0  0
   35.4482   15.7044  -10.0225 C   0  0  0  0  0  0  0  0  0  0  0  0
   35.5073   15.3187  -11.3294 C   0  0  0  0  0  0  0  0  0  0  0  0
   36.7454   15.2293  -11.9418 C   0  0  0  0  0  0  0  0  0  0  0  0
   37.8764   15.5294  -11.2286 C   0  0  0  0  0  0  0  0  0  0  0  0
   39.1630   15.4478  -11.7438 C   0  0  0  0  0  0  0  0  0  0  0  0
   44.5522   12.2649  -11.2057 C   0  0  0  0  0  0  0  0  0  0  0  0
   44.6356   13.5102  -11.9328 N   0  0  0  0  0  0  0  0  0  0  0  0
   45.6387   13.9641  -12.7005 C   0  0  0  0  0  0  0  0  0  0  0  0
   45.3099   15.1852  -13.2007 N   0  0  0  0  0  0  0  0  0  0  0  0
   44.0843   15.5082  -12.7446 C   0  0  0  0  0  0  0  0  0  0  0  0
   43.3019   16.6294  -12.9552 C   0  0  0  0  0  0  0  0  0  0  0  0
   42.0777   16.6746  -12.3470 C   0  0  0  0  0  0  0  0  0  0  0  0
   41.6060   15.6654  -11.5496 C   0  0  0  0  0  0  0  0  0  0  0  0
   42.4069   14.5638  -11.3593 C   0  0  0  0  0  0  0  0  0  0  0  0
   43.6683   14.4599  -11.9542 C   0  0  0  0  0  0  0  0  0  0  0  0
   46.8467   13.2680  -12.9420 N   0  0  0  0  0  0  0  0  0  0  0  0
   47.9630   13.4831  -12.1826 O   0  0  0  0  0  0  0  0  0  0  0  0
   46.9202   12.4279  -13.8684 O   0  0  0  0  0  0  0  0  0  0  0  0
   39.3764   15.0085  -13.1159 C   0  0  0  0  0  0  0  0  0  0  0  0
   39.3829   15.8482  -14.0351 O   0  0  0  0  0  0  0  0  0  0  0  0
   39.5659   13.6529  -13.4193 N   0  0  0  0  0  0  0  0  0  0  0  0
   39.5284   12.9367  -12.6212 H   0  0  0  0  0  0  0  0  0  0  0  0
   39.7943   13.1058  -14.7116 C   0  0  0  0  0  0  0  0  0  0  0  0
   40.9581   13.2141  -15.4261 C   0  0  0  0  0  0  0  0  0  0  0  0
   41.0473   12.6699  -16.6793 C   0  0  0  0  0  0  0  0  0  0  0  0
   39.9869   12.0038  -17.2577 C   0  0  0  0  0  0  0  0  0  0  0  0
   40.0977   11.3065  -18.8609 Cl  0  0  0  0  0  0  0  0  0  0  0  0
   38.8188   11.8975  -16.5338 C   0  0  0  0  0  0  0  0  0  0  0  0
   38.7258   12.4344  -15.2941 C   0  0  0  0  0  0  0  0  0  0  0  0
   38.6681   16.6186   -7.6698 C   0  0  0  0  0  0  0  0  0  0  0  0
   38.9930   18.0213   -7.5057 N   0  0  0  0  0  0  0  0  0  0  0  0
   39.4945   18.1815   -6.6059 H   0  0  0  0  0  0  0  0  0  0  0  0
   37.7665   18.8006   -7.5112 C   0  0  0  0  0  0  0  0  0  0  0  0
   37.7978   19.8091   -8.5893 C   0  0  0  0  0  0  0  0  0  0  0  0
   37.8155   21.1614   -8.3116 O   0  0  0  0  0  0  0  0  0  0  0  0
   37.8084   19.4226   -9.7762 O   0  0  0  0  0  0  0  0  0  0  0  0
   36.9467   21.6447   -8.2160 H   0  0  0  0  0  0  0  0  0  0  0  0
 11 12  1  0  0  0
 12 13  1  0  0  0
 13 14  2  0  0  0
 14 15  1  0  0  0
 15 16  2  0  0  0
 16 17  1  0  0  0
 17 18  2  0  0  0
 18 19  1  0  0  0
 19 20  2  0  0  0
 18  1  1  0  0  0
  1  2  2  0  0  0
  2  3  1  0  0  0
  3 35  1  0  0  0
 35 36  1  0  0  0
 36 38  1  0  0  0
 38 39  1  0  0  0
 39 40  1  0  0  0
 39 41  2  0  0  0
  3  4  2  0  0  0
  4  5  1  0  0  0
  5  6  2  0  0  0
  6  7  1  0  0  0
  7  8  2  0  0  0
  8  9  1  0  0  0
  9 10  2  0  0  0
 10 24  1  0  0  0
 24 25  2  0  0  0
 24 26  1  0  0  0
 26 28  1  0  0  0
 28 29  2  0  0  0
 29 30  1  0  0  0
 30 31  2  0  0  0
 31 32  1  0  0  0
 31 33  1  0  0  0
 33 34  2  0  0  0
 13 21  1  0  0  0
 21 22  1  0  0  0
 21 23  2  0  0  0
 20 12  1  0  0  0
 10  1  1  0  0  0
 34 28  1  0  0  0
 20 15  1  0  0  0
  9  4  1  0  0  0
 36 37  1  0  0  0
 40 42  1  0  0  0
 26 27  1  0  0  0
M  CHG 1  21   1
M  CHG 1  22  -1
M  END
> <minimizedAffinity>
-8.07380

> <CNNscore>
0.0864550322

> <CNNaffinity>
6.1385970116

> <CNN_VS>
0.5307126045

> <CNNaffinity_variance>
0.4410888553

$$$$
[H]OC(=O)C([H])([H])N([H])C([H])([H])c1c([H])c(-c2c([H])c([H])c3nc([N+](=O)[O-])n(C([H])([H])[H])c3c2[H])c(C(=O)N([H])c2c([H])c([H])c(Cl)c([H])c2[H])c2c([H])c([H])c([H])nc12


 42 46  0  0  0  0  0  0  0  0999 V2000
   37.9324   14.6801  -12.0140 C   0  0  0  0  0  0  0  0  0  0  0  0
   36.8614   13.8844  -12.2889 C   0  0  0  0  0  0  0  0  0  0  0  0
   36.7898   13.0972  -13.4053 C   0  0  0  0  0  0  0  0  0  0  0  0
   37.8469   13.1122  -14.2821 C   0  0  0  0  0  0  0  0  0  0  0  0
   37.7365   12.2960  -15.3608 N   0  0  0  0  0  0  0  0  0  0  0  0
   38.7629   12.2693  -16.2218 C   0  0  0  0  0  0  0  0  0  0  0  0
   39.8977   13.0106  -16.0696 C   0  0  0  0  0  0  0  0  0  0  0  0
   40.0068   13.8424  -14.9685 C   0  0  0  0  0  0  0  0  0  0  0  0
   38.9803   13.9042  -14.0629 C   0  0  0  0  0  0  0  0  0  0  0  0
   39.0032   14.6873  -12.9167 C   0  0  0  0  0  0  0  0  0  0  0  0
   40.4461   14.8756   -7.1128 C   0  0  0  0  0  0  0  0  0  0  0  0
   39.5743   15.9668   -7.4810 N   0  0  0  0  0  0  0  0  0  0  0  0
   39.2780   17.0727   -6.7803 C   0  0  0  0  0  0  0  0  0  0  0  0
   38.4139   17.8433   -7.4937 N   0  0  0  0  0  0  0  0  0  0  0  0
   38.1602   17.2182   -8.6596 C   0  0  0  0  0  0  0  0  0  0  0  0
   37.3561   17.5756   -9.7269 C   0  0  0  0  0  0  0  0  0  0  0  0
   37.2972   16.7215  -10.7936 C   0  0  0  0  0  0  0  0  0  0  0  0
   37.9950   15.5435  -10.8421 C   0  0  0  0  0  0  0  0  0  0  0  0
   38.7858   15.2158   -9.7658 C   0  0  0  0  0  0  0  0  0  0  0  0
   38.8866   16.0482   -8.6465 C   0  0  0  0  0  0  0  0  0  0  0  0
   39.7929   17.3756   -5.4977 N   0  0  0  0  0  0  0  0  0  0  0  0
   40.9277   18.1209   -5.3376 O   0  0  0  0  0  0  0  0  0  0  0  0
   39.2120   16.9627   -4.4675 O   0  0  0  0  0  0  0  0  0  0  0  0
   40.1719   15.4992  -12.6070 C   0  0  0  0  0  0  0  0  0  0  0  0
   40.1639   16.7145  -12.8770 O   0  0  0  0  0  0  0  0  0  0  0  0
   41.3103   14.9316  -12.0174 N   0  0  0  0  0  0  0  0  0  0  0  0
   41.3150   13.8774  -11.8172 H   0  0  0  0  0  0  0  0  0  0  0  0
   42.5016   15.6198  -11.6588 C   0  0  0  0  0  0  0  0  0  0  0  0
   43.5227   15.9397  -12.5142 C   0  0  0  0  0  0  0  0  0  0  0  0
   44.6384   16.5782  -12.0427 C   0  0  0  0  0  0  0  0  0  0  0  0
   44.7721   16.9172  -10.7123 C   0  0  0  0  0  0  0  0  0  0  0  0
   46.1982   17.7340  -10.1059 Cl  0  0  0  0  0  0  0  0  0  0  0  0
   43.7412   16.5933   -9.8566 C   0  0  0  0  0  0  0  0  0  0  0  0
   42.6360   15.9615  -10.3183 C   0  0  0  0  0  0  0  0  0  0  0  0
   35.5798   12.2473  -13.6516 C   0  0  0  0  0  0  0  0  0  0  0  0
   34.8707   12.6983  -14.8322 N   0  0  0  0  0  0  0  0  0  0  0  0
   34.4055   13.6144  -14.6563 H   0  0  0  0  0  0  0  0  0  0  0  0
   33.8626   11.7146  -15.1900 C   0  0  0  0  0  0  0  0  0  0  0  0
   34.1795   11.0981  -16.4938 C   0  0  0  0  0  0  0  0  0  0  0  0
   35.4491   10.6407  -16.7857 O   0  0  0  0  0  0  0  0  0  0  0  0
   33.2739   10.9916  -17.3462 O   0  0  0  0  0  0  0  0  0  0  0  0
   36.1049   11.2708  -17.1983 H   0  0  0  0  0  0  0  0  0  0  0  0
 11 12  1  0  0  0
 12 13  1  0  0  0
 13 14  2  0  0  0
 14 15  1  0  0  0
 15 16  2  0  0  0
 16 17  1  0  0  0
 17 18  2  0  0  0
 18 19  1  0  0  0
 19 20  2  0  0  0
 18  1  1  0  0  0
  1  2  2  0  0  0
  2  3  1  0  0  0
  3 35  1  0  0  0
 35 36  1  0  0  0
 36 38  1  0  0  0
 38 39  1  0  0  0
 39 40  1  0  0  0
 39 41  2  0  0  0
  3  4  2  0  0  0
  4  5  1  0  0  0
  5  6  2  0  0  0
  6  7  1  0  0  0
  7  8  2  0  0  0
  8  9  1  0  0  0
  9 10  2  0  0  0
 10 24  1  0  0  0
 24 25  2  0  0  0
 24 26  1  0  0  0
 26 28  1  0  0  0
 28 29  2  0  0  0
 29 30  1  0  0  0
 30 31  2  0  0  0
 31 32  1  0  0  0
 31 33  1  0  0  0
 33 34  2  0  0  0
 13 21  1  0  0  0
 21 22  1  0  0  0
 21 23  2  0  0  0
 20 12  1  0  0  0
 10  1  1  0  0  0
 34 28  1  0  0  0
 20 15  1  0  0  0
  9  4  1  0  0  0
 36 37  1  0  0  0
 40 42  1  0  0  0
 26 27  1  0  0  0
M  CHG 1  21   1
M  CHG 1  22  -1
M  END
> <minimizedAffinity>
-8.38974

> <CNNscore>
0.0729322806

> <CNNaffinity>
6.2376160622

> <CNN_VS>
0.4549235702

> <CNNaffinity_variance>
0.3623265326

$$$$
[H]OC(=O)C([H])([H])N([H])C([H])([H])c1c([H])c(-c2c([H])c([H])c3nc([N+](=O)[O-])n(C([H])([H])[H])c3c2[H])c(C(=O)N([H])c2c([H])c([H])c(Cl)c([H])c2[H])c2c([H])c([H])c([H])nc12


 42 46  0  0  0  0  0  0  0  0999 V2000
   40.9898   15.1850  -12.6541 C   0  0  0  0  0  0  0  0  0  0  0  0
   42.1138   15.5872  -11.9979 C   0  0  0  0  0  0  0  0  0  0  0  0
   43.3750   15.2972  -12.4412 C   0  0  0  0  0  0  0  0  0  0  0  0
   43.5077   14.5707  -13.5993 C   0  0  0  0  0  0  0  0  0  0  0  0
   44.7793   14.3304  -14.0083 N   0  0  0  0  0  0  0  0  0  0  0  0
   44.9415   13.6457  -15.1486 C   0  0  0  0  0  0  0  0  0  0  0  0
   43.9067   13.1853  -15.9086 C   0  0  0  0  0  0  0  0  0  0  0  0
   42.6110   13.4317  -15.4882 C   0  0  0  0  0  0  0  0  0  0  0  0
   42.3970   14.1258  -14.3262 C   0  0  0  0  0  0  0  0  0  0  0  0
   41.1388   14.4438  -13.8331 C   0  0  0  0  0  0  0  0  0  0  0  0
   38.5287   17.1501   -8.1309 C   0  0  0  0  0  0  0  0  0  0  0  0
   37.7029   16.7885   -9.2594 N   0  0  0  0  0  0  0  0  0  0  0  0
   36.3684   16.8701   -9.3786 C   0  0  0  0  0  0  0  0  0  0  0  0
   35.9952   16.4251  -10.6082 N   0  0  0  0  0  0  0  0  0  0  0  0
   37.1061   16.0575  -11.2754 C   0  0  0  0  0  0  0  0  0  0  0  0
   37.2741   15.5432  -12.5485 C   0  0  0  0  0  0  0  0  0  0  0  0
   38.5481   15.2605  -12.9579 C   0  0  0  0  0  0  0  0  0  0  0  0
   39.6464   15.4654  -12.1650 C   0  0  0  0  0  0  0  0  0  0  0  0
   39.4472   15.9778  -10.9045 C   0  0  0  0  0  0  0  0  0  0  0  0
   38.1685   16.2863  -10.4295 C   0  0  0  0  0  0  0  0  0  0  0  0
   35.4974   17.3472   -8.3708 N   0  0  0  0  0  0  0  0  0  0  0  0
   34.4814   16.5772   -7.8769 O   0  0  0  0  0  0  0  0  0  0  0  0
   35.6406   18.5003   -7.9025 O   0  0  0  0  0  0  0  0  0  0  0  0
   39.9434   14.0500  -14.5659 C   0  0  0  0  0  0  0  0  0  0  0  0
   39.4030   14.8616  -15.3401 O   0  0  0  0  0  0  0  0  0  0  0  0
   39.3861   12.7735  -14.4065 N   0  0  0  0  0  0  0  0  0  0  0  0
   39.8448   12.0943  -13.7139 H   0  0  0  0  0  0  0  0  0  0  0  0
   38.2346   12.2710  -15.0723 C   0  0  0  0  0  0  0  0  0  0  0  0
   38.2217   11.7044  -16.3195 C   0  0  0  0  0  0  0  0  0  0  0  0
   37.0406   11.2851  -16.8706 C   0  0  0  0  0  0  0  0  0  0  0  0
   35.8415   11.4151  -16.2013 C   0  0  0  0  0  0  0  0  0  0  0  0
   34.3286   10.8797  -16.9036 Cl  0  0  0  0  0  0  0  0  0  0  0  0
   35.8609   11.9853  -14.9465 C   0  0  0  0  0  0  0  0  0  0  0  0
   37.0266   12.4019  -14.3975 C   0  0  0  0  0  0  0  0  0  0  0  0
   44.5715   15.7660  -11.6692 C   0  0  0  0  0  0  0  0  0  0  0  0
   45.3612   16.6875  -12.4611 N   0  0  0  0  0  0  0  0  0  0  0  0
   46.3586   16.3860  -12.4935 H   0  0  0  0  0  0  0  0  0  0  0  0
   45.2847   18.0131  -11.8707 C   0  0  0  0  0  0  0  0  0  0  0  0
   45.6862   19.0415  -12.8513 C   0  0  0  0  0  0  0  0  0  0  0  0
   47.0149   19.2906  -13.1320 O   0  0  0  0  0  0  0  0  0  0  0  0
   44.7986   19.6963  -13.4357 O   0  0  0  0  0  0  0  0  0  0  0  0
   47.5036   19.9685  -12.5852 H   0  0  0  0  0  0  0  0  0  0  0  0
 11 12  1  0  0  0
 12 13  1  0  0  0
 13 14  2  0  0  0
 14 15  1  0  0  0
 15 16  2  0  0  0
 16 17  1  0  0  0
 17 18  2  0  0  0
 18 19  1  0  0  0
 19 20  2  0  0  0
 18  1  1  0  0  0
  1  2  2  0  0  0
  2  3  1  0  0  0
  3 35  1  0  0  0
 35 36  1  0  0  0
 36 38  1  0  0  0
 38 39  1  0  0  0
 39 40  1  0  0  0
 39 41  2  0  0  0
  3  4  2  0  0  0
  4  5  1  0  0  0
  5  6  2  0  0  0
  6  7  1  0  0  0
  7  8  2  0  0  0
  8  9  1  0  0  0
  9 10  2  0  0  0
 10 24  1  0  0  0
 24 25  2  0  0  0
 24 26  1  0  0  0
 26 28  1  0  0  0
 28 29  2  0  0  0
 29 30  1  0  0  0
 30 31  2  0  0  0
 31 32  1  0  0  0
 31 33  1  0  0  0
 33 34  2  0  0  0
 13 21  1  0  0  0
 21 22  1  0  0  0
 21 23  2  0  0  0
 20 12  1  0  0  0
 10  1  1  0  0  0
 34 28  1  0  0  0
 20 15  1  0  0  0
  9  4  1  0  0  0
 36 37  1  0  0  0
 40 42  1  0  0  0
 26 27  1  0  0  0
M  CHG 1  21   1
M  CHG 1  22  -1
M  END
> <minimizedAffinity>
-8.62142

> <CNNscore>
0.0491762981

> <CNNaffinity>
6.2822208405

> <CNN_VS>
0.3089363575

> <CNNaffinity_variance>
0.2479209900

$$$$
[H]c1c([H])c(OC(C([H])([H])[H])(C([H])([H])[H])C([H])([H])[H])c([H])c(C(=O)c2c([H])c([H])c(C([H])([H])[H])n2[H])c1[H]


 20 21  0  0  0  0  0  0  0  0999 V2000
   36.2123   11.3030  -16.7086 C   0  0  0  0  0  0  0  0  0  0  0  0
   36.8932   12.3392  -16.1099 C   0  0  0  0  0  0  0  0  0  0  0  0
   38.2367   12.4814  -16.4533 C   0  0  0  0  0  0  0  0  0  0  0  0
   38.8650   11.6284  -17.3508 C   0  0  0  0  0  0  0  0  0  0  0  0
   38.1641   10.6139  -17.9254 C   0  0  0  0  0  0  0  0  0  0  0  0
   36.8212   10.4325  -17.6136 C   0  0  0  0  0  0  0  0  0  0  0  0
   40.2714   11.8782  -17.6341 C   0  0  0  0  0  0  0  0  0  0  0  0
   40.7319   11.6038  -18.7960 O   0  0  0  0  0  0  0  0  0  0  0  0
   41.2110   12.4246  -16.6856 C   0  0  0  0  0  0  0  0  0  0  0  0
   40.9402   12.9926  -15.4577 C   0  0  0  0  0  0  0  0  0  0  0  0
   42.1211   13.3970  -14.8445 C   0  0  0  0  0  0  0  0  0  0  0  0
   43.1113   13.0594  -15.7323 C   0  0  0  0  0  0  0  0  0  0  0  0
   44.5559   13.3089  -15.4916 C   0  0  0  0  0  0  0  0  0  0  0  0
   42.5578   12.4847  -16.8172 N   0  0  0  0  0  0  0  0  0  0  0  0
   43.1268   12.1452  -17.6288 H   0  0  0  0  0  0  0  0  0  0  0  0
   36.3719   13.2288  -15.2193 O   0  0  0  0  0  0  0  0  0  0  0  0
   36.0231   13.0298  -13.8883 C   0  0  0  0  0  0  0  0  0  0  0  0
   34.5814   12.6409  -13.6827 C   0  0  0  0  0  0  0  0  0  0  0  0
   36.9790   12.1117  -13.1351 C   0  0  0  0  0  0  0  0  0  0  0  0
   36.1729   14.4031  -13.2089 C   0  0  0  0  0  0  0  0  0  0  0  0
  1  2  2  0  0  0
  2 16  1  0  0  0
 16 17  1  0  0  0
 17 18  1  0  0  0
 17 19  1  0  0  0
 17 20  1  0  0  0
  2  3  1  0  0  0
  3  4  2  0  0  0
  4  7  1  0  0  0
  7  8  2  0  0  0
  7  9  1  0  0  0
  9 10  2  0  0  0
 10 11  1  0  0  0
 11 12  2  0  0  0
 12 13  1  0  0  0
 12 14  1  0  0  0
  4  5  1  0  0  0
  5  6  2  0  0  0
  6  1  1  0  0  0
 14  9  1  0  0  0
 14 15  1  0  0  0
M  END
> <minimizedAffinity>
-7.69163

> <CNNscore>
0.8923640847

> <CNNaffinity>
6.1074876785

> <CNN_VS>
5.4501028061

> <CNNaffinity_variance>
0.0691219345

$$$$
[H]c1c([H])c(OC(C([H])([H])[H])(C([H])([H])[H])C([H])([H])[H])c([H])c(C(=O)c2c([H])c([H])c(C([H])([H])[H])n2[H])c1[H]


 20 21  0  0  0  0  0  0  0  0999 V2000
   36.3989   11.1180  -16.4340 C   0  0  0  0  0  0  0  0  0  0  0  0
   37.1912   11.7187  -15.4816 C   0  0  0  0  0  0  0  0  0  0  0  0
   38.5097   11.9857  -15.8473 C   0  0  0  0  0  0  0  0  0  0  0  0
   39.0078   11.6667  -17.1034 C   0  0  0  0  0  0  0  0  0  0  0  0
   38.1989   11.0736  -18.0225 C   0  0  0  0  0  0  0  0  0  0  0  0
   36.8760   10.7877  -17.7032 C   0  0  0  0  0  0  0  0  0  0  0  0
   40.4005   11.9972  -17.3714 C   0  0  0  0  0  0  0  0  0  0  0  0
   40.8706   11.8117  -18.5469 O   0  0  0  0  0  0  0  0  0  0  0  0
   41.3159   12.5311  -16.3926 C   0  0  0  0  0  0  0  0  0  0  0  0
   42.6905   12.4139  -16.3672 C   0  0  0  0  0  0  0  0  0  0  0  0
   43.2084   13.0726  -15.2572 C   0  0  0  0  0  0  0  0  0  0  0  0
   42.1129   13.5901  -14.6132 C   0  0  0  0  0  0  0  0  0  0  0  0
   42.1907   14.3829  -13.3591 C   0  0  0  0  0  0  0  0  0  0  0  0
   40.9999   13.2618  -15.2967 N   0  0  0  0  0  0  0  0  0  0  0  0
   40.0415   13.5517  -14.9882 H   0  0  0  0  0  0  0  0  0  0  0  0
   36.8014   12.0711  -14.2244 O   0  0  0  0  0  0  0  0  0  0  0  0
   35.9234   13.0747  -13.8312 C   0  0  0  0  0  0  0  0  0  0  0  0
   36.0526   14.3495  -14.6251 C   0  0  0  0  0  0  0  0  0  0  0  0
   34.4752   12.6124  -13.7183 C   0  0  0  0  0  0  0  0  0  0  0  0
   36.3344   13.4484  -12.3954 C   0  0  0  0  0  0  0  0  0  0  0  0
  1  2  2  0  0  0
  2 16  1  0  0  0
 16 17  1  0  0  0
 17 18  1  0  0  0
 17 19  1  0  0  0
 17 20  1  0  0  0
  2  3  1  0  0  0
  3  4  2  0  0  0
  4  7  1  0  0  0
  7  8  2  0  0  0
  7  9  1  0  0  0
  9 10  2  0  0  0
 10 11  1  0  0  0
 11 12  2  0  0  0
 12 13  1  0  0  0
 12 14  1  0  0  0
  4  5  1  0  0  0
  5  6  2  0  0  0
  6  1  1  0  0  0
 14  9  1  0  0  0
 14 15  1  0  0  0
M  END
> <minimizedAffinity>
-7.43321

> <CNNscore>
0.8153947592

> <CNNaffinity>
5.8969864845

> <CNN_VS>
4.8083720207

> <CNNaffinity_variance>
0.0798471123

$$$$
[H]c1c([H])c(OC(C([H])([H])[H])(C([H])([H])[H])C([H])([H])[H])c([H])c(C(=O)c2c([H])c([H])c(C([H])([H])[H])n2[H])c1[H]


 20 21  0  0  0  0  0  0  0  0999 V2000
   36.9887   11.4776  -16.5439 C   0  0  0  0  0  0  0  0  0  0  0  0
   36.7576   12.5872  -15.7621 C   0  0  0  0  0  0  0  0  0  0  0  0
   37.8811   13.2995  -15.3451 C   0  0  0  0  0  0  0  0  0  0  0  0
   39.1698   12.9186  -15.6942 C   0  0  0  0  0  0  0  0  0  0  0  0
   39.3645   11.8169  -16.4682 C   0  0  0  0  0  0  0  0  0  0  0  0
   38.2741   11.0745  -16.9082 C   0  0  0  0  0  0  0  0  0  0  0  0
   40.2645   13.7432  -15.2021 C   0  0  0  0  0  0  0  0  0  0  0  0
   39.9989   14.8609  -14.6385 O   0  0  0  0  0  0  0  0  0  0  0  0
   41.6600   13.3918  -15.3013 C   0  0  0  0  0  0  0  0  0  0  0  0
   42.6286   13.4886  -14.3234 C   0  0  0  0  0  0  0  0  0  0  0  0
   43.8526   13.0466  -14.8139 C   0  0  0  0  0  0  0  0  0  0  0  0
   43.5993   12.6809  -16.1119 C   0  0  0  0  0  0  0  0  0  0  0  0
   44.6319   12.1425  -17.0343 C   0  0  0  0  0  0  0  0  0  0  0  0
   42.2976   12.8906  -16.3863 N   0  0  0  0  0  0  0  0  0  0  0  0
   41.8769   12.6815  -17.3228 H   0  0  0  0  0  0  0  0  0  0  0  0
   35.5372   13.0445  -15.3647 O   0  0  0  0  0  0  0  0  0  0  0  0
   34.6898   12.5358  -14.3870 C   0  0  0  0  0  0  0  0  0  0  0  0
   33.7503   11.4670  -14.8840 C   0  0  0  0  0  0  0  0  0  0  0  0
   35.4088   12.1198  -13.1088 C   0  0  0  0  0  0  0  0  0  0  0  0
   33.7841   13.7088  -13.9697 C   0  0  0  0  0  0  0  0  0  0  0  0
  1  2  2  0  0  0
  2 16  1  0  0  0
 16 17  1  0  0  0
 17 18  1  0  0  0
 17 19  1  0  0  0
 17 20  1  0  0  0
  2  3  1  0  0  0
  3  4  2  0  0  0
  4  7  1  0  0  0
  7  8  2  0  0  0
  7  9  1  0  0  0
  9 10  2  0  0  0
 10 11  1  0  0  0
 11 12  2  0  0  0
 12 13  1  0  0  0
 12 14  1  0  0  0
  4  5  1  0  0  0
  5  6  2  0  0  0
  6  1  1  0  0  0
 14  9  1  0  0  0
 14 15  1  0  0  0
M  END
> <minimizedAffinity>
-7.53327

> <CNNscore>
0.6357894540

> <CNNaffinity>
5.6588797569

> <CNN_VS>
3.5978560448

> <CNNaffinity_variance>
0.1017161161

$$$$
[H]c1c([H])c(OC(C([H])([H])[H])(C([H])([H])[H])C([H])([H])[H])c([H])c(C(=O)c2c([H])c([H])c(C([H])([H])[H])n2[H])c1[H]


 20 21  0  0  0  0  0  0  0  0999 V2000
   38.4797   10.9177  -17.5250 C   0  0  0  0  0  0  0  0  0  0  0  0
   38.7870   11.6299  -16.3874 C   0  0  0  0  0  0  0  0  0  0  0  0
   37.7100   12.0863  -15.6291 C   0  0  0  0  0  0  0  0  0  0  0  0
   36.3927   11.8411  -15.9929 C   0  0  0  0  0  0  0  0  0  0  0  0
   36.1224   11.1339  -17.1231 C   0  0  0  0  0  0  0  0  0  0  0  0
   37.1642   10.6581  -17.9118 C   0  0  0  0  0  0  0  0  0  0  0  0
   35.3519   12.3653  -15.1196 C   0  0  0  0  0  0  0  0  0  0  0  0
   34.1250   12.1531  -15.4145 O   0  0  0  0  0  0  0  0  0  0  0  0
   35.5997   13.1236  -13.9178 C   0  0  0  0  0  0  0  0  0  0  0  0
   35.8202   12.6420  -12.6437 C   0  0  0  0  0  0  0  0  0  0  0  0
   36.0211   13.6965  -11.7595 C   0  0  0  0  0  0  0  0  0  0  0  0
   35.9164   14.8264  -12.5309 C   0  0  0  0  0  0  0  0  0  0  0  0
   36.0623   16.2057  -11.9986 C   0  0  0  0  0  0  0  0  0  0  0  0
   35.6669   14.4719  -13.8059 N   0  0  0  0  0  0  0  0  0  0  0  0
   35.5480   15.1740  -14.5745 H   0  0  0  0  0  0  0  0  0  0  0  0
   40.0412   11.9243  -15.9435 O   0  0  0  0  0  0  0  0  0  0  0  0
   40.7168   13.1389  -15.9765 C   0  0  0  0  0  0  0  0  0  0  0  0
   40.5041   13.9258  -17.2443 C   0  0  0  0  0  0  0  0  0  0  0  0
   40.5075   13.9905  -14.7296 C   0  0  0  0  0  0  0  0  0  0  0  0
   42.2145   12.7825  -15.9676 C   0  0  0  0  0  0  0  0  0  0  0  0
  1  2  2  0  0  0
  2 16  1  0  0  0
 16 17  1  0  0  0
 17 18  1  0  0  0
 17 19  1  0  0  0
 17 20  1  0  0  0
  2  3  1  0  0  0
  3  4  2  0  0  0
  4  7  1  0  0  0
  7  8  2  0  0  0
  7  9  1  0  0  0
  9 10  2  0  0  0
 10 11  1  0  0  0
 11 12  2  0  0  0
 12 13  1  0  0  0
 12 14  1  0  0  0
  4  5  1  0  0  0
  5  6  2  0  0  0
  6  1  1  0  0  0
 14  9  1  0  0  0
 14 15  1  0  0  0
M  END
> <minimizedAffinity>
-7.63267

> <CNNscore>
0.4977480769

> <CNNaffinity>
5.4346747398

> <CNN_VS>
2.7050988674

> <CNNaffinity_variance>
0.3433956802

$$$$
[H]c1c([H])c(OC(C([H])([H])[H])(C([H])([H])[H])C([H])([H])[H])c([H])c(C(=O)c2c([H])c([H])c(C([H])([H])[H])n2[H])c1[H]


 20 21  0  0  0  0  0  0  0  0999 V2000
   45.0189   12.9411  -15.4984 C   0  0  0  0  0  0  0  0  0  0  0  0
   43.9719   13.6870  -15.0053 C   0  0  0  0  0  0  0  0  0  0  0  0
   42.7137   13.4270  -15.5462 C   0  0  0  0  0  0  0  0  0  0  0  0
   42.5157   12.4684  -16.5310 C   0  0  0  0  0  0  0  0  0  0  0  0
   43.5713   11.7479  -16.9972 C   0  0  0  0  0  0  0  0  0  0  0  0
   44.8456   11.9721  -16.4877 C   0  0  0  0  0  0  0  0  0  0  0  0
   41.1554   12.2834  -17.0165 C   0  0  0  0  0  0  0  0  0  0  0  0
   40.9649   12.0248  -18.2551 O   0  0  0  0  0  0  0  0  0  0  0  0
   39.9750   12.3701  -16.1917 C   0  0  0  0  0  0  0  0  0  0  0  0
   38.8650   11.5508  -16.2141 C   0  0  0  0  0  0  0  0  0  0  0  0
   37.9427   11.9651  -15.2592 C   0  0  0  0  0  0  0  0  0  0  0  0
   38.5230   13.0545  -14.6600 C   0  0  0  0  0  0  0  0  0  0  0  0
   37.8861   13.8313  -13.5654 C   0  0  0  0  0  0  0  0  0  0  0  0
   39.7254   13.2824  -15.2221 N   0  0  0  0  0  0  0  0  0  0  0  0
   40.3499   14.0680  -14.9210 H   0  0  0  0  0  0  0  0  0  0  0  0
   44.0589   14.6481  -14.0434 O   0  0  0  0  0  0  0  0  0  0  0  0
   43.6784   14.5843  -12.7078 C   0  0  0  0  0  0  0  0  0  0  0  0
   42.3346   15.2044  -12.4218 C   0  0  0  0  0  0  0  0  0  0  0  0
   43.8107   13.1932  -12.0987 C   0  0  0  0  0  0  0  0  0  0  0  0
   44.6953   15.4513  -11.9433 C   0  0  0  0  0  0  0  0  0  0  0  0
  1  2  2  0  0  0
  2 16  1  0  0  0
 16 17  1  0  0  0
 17 18  1  0  0  0
 17 19  1  0  0  0
 17 20  1  0  0  0
  2  3  1  0  0  0
  3  4  2  0  0  0
  4  7  1  0  0  0
  7  8  2  0  0  0
  7  9  1  0  0  0
  9 10  2  0  0  0
 10 11  1  0  0  0
 11 12  2  0  0  0
 12 13  1  0  0  0
 12 14  1  0  0  0
  4  5  1  0  0  0
  5  6  2  0  0  0
  6  1  1  0  0  0
 14  9  1  0  0  0
 14 15  1  0  0  0
M  END
> <minimizedAffinity>
-6.16096

> <CNNscore>
0.4712807834

> <CNNaffinity>
5.0726113319

> <CNN_VS>
2.3906242847

> <CNNaffinity_variance>
0.1910321414

$$$$
[H]c1c([H])c(OC(C([H])([H])[H])(C([H])([H])[H])C([H])([H])[H])c([H])c(C(=O)c2c([H])c([H])c(C([H])([H])[H])n2[H])c1[H]


 20 21  0  0  0  0  0  0  0  0999 V2000
   34.0751   12.1356  -15.2883 C   0  0  0  0  0  0  0  0  0  0  0  0
   35.2090   12.9087  -15.1776 C   0  0  0  0  0  0  0  0  0  0  0  0
   36.3200   12.4921  -15.9093 C   0  0  0  0  0  0  0  0  0  0  0  0
   36.2952   11.3585  -16.7107 C   0  0  0  0  0  0  0  0  0  0  0  0
   35.1587   10.6158  -16.7987 C   0  0  0  0  0  0  0  0  0  0  0  0
   34.0250   10.9922  -16.0869 C   0  0  0  0  0  0  0  0  0  0  0  0
   37.5162   11.0248  -17.4306 C   0  0  0  0  0  0  0  0  0  0  0  0
   37.4645   10.1754  -18.3861 O   0  0  0  0  0  0  0  0  0  0  0  0
   38.8125   11.5900  -17.1457 C   0  0  0  0  0  0  0  0  0  0  0  0
   39.9344   11.5812  -17.9488 C   0  0  0  0  0  0  0  0  0  0  0  0
   40.9853   12.2339  -17.3134 C   0  0  0  0  0  0  0  0  0  0  0  0
   40.4703   12.6368  -16.1071 C   0  0  0  0  0  0  0  0  0  0  0  0
   41.2490   13.3823  -15.0848 C   0  0  0  0  0  0  0  0  0  0  0  0
   39.1835   12.2488  -16.0219 N   0  0  0  0  0  0  0  0  0  0  0  0
   38.5874   12.4493  -15.1838 H   0  0  0  0  0  0  0  0  0  0  0  0
   35.3374   14.0350  -14.4216 O   0  0  0  0  0  0  0  0  0  0  0  0
   35.6586   14.1506  -13.0740 C   0  0  0  0  0  0  0  0  0  0  0  0
   35.8866   12.8313  -12.3816 C   0  0  0  0  0  0  0  0  0  0  0  0
   36.7775   15.1474  -12.7941 C   0  0  0  0  0  0  0  0  0  0  0  0
   34.4125   14.7521  -12.3991 C   0  0  0  0  0  0  0  0  0  0  0  0
  1  2  2  0  0  0
  2 16  1  0  0  0
 16 17  1  0  0  0
 17 18  1  0  0  0
 17 19  1  0  0  0
 17 20  1  0  0  0
  2  3  1  0  0  0
  3  4  2  0  0  0
  4  7  1  0  0  0
  7  8  2  0  0  0
  7  9  1  0  0  0
  9 10  2  0  0  0
 10 11  1  0  0  0
 11 12  2  0  0  0
 12 13  1  0  0  0
 12 14  1  0  0  0
  4  5  1  0  0  0
  5  6  2  0  0  0
  6  1  1  0  0  0
 14  9  1  0  0  0
 14 15  1  0  0  0
M  END
> <minimizedAffinity>
-7.65135

> <CNNscore>
0.4650181830

> <CNNaffinity>
5.5018119812

> <CNN_VS>
2.5584425926

> <CNNaffinity_variance>
0.2272049636

$$$$
[H]c1c([H])c(OC(C([H])([H])[H])(C([H])([H])[H])C([H])([H])[H])c([H])c(C(=O)c2c([H])c([H])c(C([H])([H])[H])n2[H])c1[H]


 20 21  0  0  0  0  0  0  0  0999 V2000
   38.1150   15.2025  -12.8215 C   0  0  0  0  0  0  0  0  0  0  0  0
   37.5576   14.4532  -13.8333 C   0  0  0  0  0  0  0  0  0  0  0  0
   38.4464   13.8235  -14.7033 C   0  0  0  0  0  0  0  0  0  0  0  0
   39.8231   13.9393  -14.5657 C   0  0  0  0  0  0  0  0  0  0  0  0
   40.3425   14.6873  -13.5550 C   0  0  0  0  0  0  0  0  0  0  0  0
   39.4951   15.3343  -12.6622 C   0  0  0  0  0  0  0  0  0  0  0  0
   40.6510   13.2327  -15.5332 C   0  0  0  0  0  0  0  0  0  0  0  0
   41.9240   13.3391  -15.4604 O   0  0  0  0  0  0  0  0  0  0  0  0
   40.1376   12.4009  -16.5940 C   0  0  0  0  0  0  0  0  0  0  0  0
   40.7986   11.9684  -17.7254 C   0  0  0  0  0  0  0  0  0  0  0  0
   39.9561   11.1807  -18.5025 C   0  0  0  0  0  0  0  0  0  0  0  0
   38.7704   11.1485  -17.8127 C   0  0  0  0  0  0  0  0  0  0  0  0
   37.5654   10.4135  -18.2765 C   0  0  0  0  0  0  0  0  0  0  0  0
   38.8927   11.8749  -16.6853 N   0  0  0  0  0  0  0  0  0  0  0  0
   38.1083   11.9913  -16.0005 H   0  0  0  0  0  0  0  0  0  0  0  0
   36.2250   14.2761  -14.0553 O   0  0  0  0  0  0  0  0  0  0  0  0
   35.4630   13.1211  -13.9209 C   0  0  0  0  0  0  0  0  0  0  0  0
   35.2882   12.3480  -15.2030 C   0  0  0  0  0  0  0  0  0  0  0  0
   35.9025   12.2278  -12.7666 C   0  0  0  0  0  0  0  0  0  0  0  0
   34.0495   13.5970  -13.5392 C   0  0  0  0  0  0  0  0  0  0  0  0
  1  2  2  0  0  0
  2 16  1  0  0  0
 16 17  1  0  0  0
 17 18  1  0  0  0
 17 19  1  0  0  0
 17 20  1  0  0  0
  2  3  1  0  0  0
  3  4  2  0  0  0
  4  7  1  0  0  0
  7  8  2  0  0  0
  7  9  1  0  0  0
  9 10  2  0  0  0
 10 11  1  0  0  0
 11 12  2  0  0  0
 12 13  1  0  0  0
 12 14  1  0  0  0
  4  5  1  0  0  0
  5  6  2  0  0  0
  6  1  1  0  0  0
 14  9  1  0  0  0
 14 15  1  0  0  0
M  END
> <minimizedAffinity>
-7.00923

> <CNNscore>
0.4464086890

> <CNNaffinity>
5.5230622292

> <CNN_VS>
2.4655430317

> <CNNaffinity_variance>
0.1980395317

$$$$
[H]c1c([H])c(OC(C([H])([H])[H])(C([H])([H])[H])C([H])([H])[H])c([H])c(C(=O)c2c([H])c([H])c(C([H])([H])[H])n2[H])c1[H]


 20 21  0  0  0  0  0  0  0  0999 V2000
   40.3327   14.6443  -13.7315 C   0  0  0  0  0  0  0  0  0  0  0  0
   38.9611   14.6009  -13.8439 C   0  0  0  0  0  0  0  0  0  0  0  0
   38.4402   13.6821  -14.7537 C   0  0  0  0  0  0  0  0  0  0  0  0
   39.2528   12.8497  -15.5115 C   0  0  0  0  0  0  0  0  0  0  0  0
   40.6049   12.9170  -15.3769 C   0  0  0  0  0  0  0  0  0  0  0  0
   41.1707   13.8183  -14.4818 C   0  0  0  0  0  0  0  0  0  0  0  0
   38.5938   11.9279  -16.4262 C   0  0  0  0  0  0  0  0  0  0  0  0
   39.2940   11.3089  -17.3001 O   0  0  0  0  0  0  0  0  0  0  0  0
   37.1784   11.6493  -16.4256 C   0  0  0  0  0  0  0  0  0  0  0  0
   36.4520   10.9559  -17.3719 C   0  0  0  0  0  0  0  0  0  0  0  0
   35.1117   10.9026  -17.0047 C   0  0  0  0  0  0  0  0  0  0  0  0
   35.0467   11.5809  -15.8137 C   0  0  0  0  0  0  0  0  0  0  0  0
   33.7915   11.7788  -15.0440 C   0  0  0  0  0  0  0  0  0  0  0  0
   36.2773   12.0170  -15.4834 N   0  0  0  0  0  0  0  0  0  0  0  0
   36.4676   12.5621  -14.6091 H   0  0  0  0  0  0  0  0  0  0  0  0
   38.0777   15.3715  -13.1494 O   0  0  0  0  0  0  0  0  0  0  0  0
   37.3729   15.0642  -11.9912 C   0  0  0  0  0  0  0  0  0  0  0  0
   36.5858   13.7813  -12.0735 C   0  0  0  0  0  0  0  0  0  0  0  0
   38.2148   15.1414  -10.7228 C   0  0  0  0  0  0  0  0  0  0  0  0
   36.3195   16.1763  -11.8374 C   0  0  0  0  0  0  0  0  0  0  0  0
  1  2  2  0  0  0
  2 16  1  0  0  0
 16 17  1  0  0  0
 17 18  1  0  0  0
 17 19  1  0  0  0
 17 20  1  0  0  0
  2  3  1  0  0  0
  3  4  2  0  0  0
  4  7  1  0  0  0
  7  8  2  0  0  0
  7  9  1  0  0  0
  9 10  2  0  0  0
 10 11  1  0  0  0
 11 12  2  0  0  0
 12 13  1  0  0  0
 12 14  1  0  0  0
  4  5  1  0  0  0
  5  6  2  0  0  0
  6  1  1  0  0  0
 14  9  1  0  0  0
 14 15  1  0  0  0
M  END
> <minimizedAffinity>
-6.92125

> <CNNscore>
0.4263989329

> <CNNaffinity>
5.3276872635

> <CNN_VS>
2.2717201710

> <CNNaffinity_variance>
0.2492917031

$$$$
[H]c1c([H])c(OC(C([H])([H])[H])(C([H])([H])[H])C([H])([H])[H])c([H])c(C(=O)c2c([H])c([H])c(C([H])([H])[H])n2[H])c1[H]


 20 21  0  0  0  0  0  0  0  0999 V2000
   45.3364   12.5320  -15.5515 C   0  0  0  0  0  0  0  0  0  0  0  0
   44.6218   13.2426  -14.6133 C   0  0  0  0  0  0  0  0  0  0  0  0
   43.2511   13.3637  -14.8360 C   0  0  0  0  0  0  0  0  0  0  0  0
   42.6290   12.8012  -15.9425 C   0  0  0  0  0  0  0  0  0  0  0  0
   43.3635   12.1048  -16.8515 C   0  0  0  0  0  0  0  0  0  0  0  0
   44.7345   11.9573  -16.6717 C   0  0  0  0  0  0  0  0  0  0  0  0
   41.1906   12.9914  -16.0664 C   0  0  0  0  0  0  0  0  0  0  0  0
   40.6141   13.8774  -15.3453 O   0  0  0  0  0  0  0  0  0  0  0  0
   40.3418   12.2420  -16.9602 C   0  0  0  0  0  0  0  0  0  0  0  0
   40.5900   11.8979  -18.2731 C   0  0  0  0  0  0  0  0  0  0  0  0
   39.5230   11.1704  -18.7892 C   0  0  0  0  0  0  0  0  0  0  0  0
   38.6246   11.0839  -17.7558 C   0  0  0  0  0  0  0  0  0  0  0  0
   37.3176   10.3845  -17.8547 C   0  0  0  0  0  0  0  0  0  0  0  0
   39.1226   11.7225  -16.6798 N   0  0  0  0  0  0  0  0  0  0  0  0
   38.6055   11.7853  -15.7707 H   0  0  0  0  0  0  0  0  0  0  0  0
   45.1343   13.8320  -13.4969 O   0  0  0  0  0  0  0  0  0  0  0  0
   45.3835   13.2715  -12.2493 C   0  0  0  0  0  0  0  0  0  0  0  0
   44.1412   12.9867  -11.4447 C   0  0  0  0  0  0  0  0  0  0  0  0
   46.3271   12.0750  -12.2925 C   0  0  0  0  0  0  0  0  0  0  0  0
   46.1433   14.3483  -11.4534 C   0  0  0  0  0  0  0  0  0  0  0  0
  1  2  2  0  0  0
  2 16  1  0  0  0
 16 17  1  0  0  0
 17 18  1  0  0  0
 17 19  1  0  0  0
 17 20  1  0  0  0
  2  3  1  0  0  0
  3  4  2  0  0  0
  4  7  1  0  0  0
  7  8  2  0  0  0
  7  9  1  0  0  0
  9 10  2  0  0  0
 10 11  1  0  0  0
 11 12  2  0  0  0
 12 13  1  0  0  0
 12 14  1  0  0  0
  4  5  1  0  0  0
  5  6  2  0  0  0
  6  1  1  0  0  0
 14  9  1  0  0  0
 14 15  1  0  0  0
M  END
> <minimizedAffinity>
-6.51753

> <CNNscore>
0.4241810441

> <CNNaffinity>
4.9048285484

> <CNN_VS>
2.0805354118

> <CNNaffinity_variance>
0.2505920529

$$$$
[H]c1c([H])c(S(=O)(=O)N2C(F)(F)OC([H])(C([H])([H])[H])C2([H])[H])c([H])c([H])c1F


 18 19  0  0  0  0  0  0  0  0999 V2000
   37.4564   12.4698  -14.3332 S   0  0  0  0  0  0  0  0  0  0  0  0
   37.7612   11.4733  -13.2620 O   0  0  0  0  0  0  0  0  0  0  0  0
   38.6679   12.5054  -15.2505 O   0  0  0  0  0  0  0  0  0  0  0  0
   37.1657   14.0416  -13.6767 N   0  0  0  0  0  0  0  0  0  0  0  0
   38.3792   14.7666  -13.4485 C   0  0  0  0  0  0  0  0  0  0  0  0
   39.2780   13.9825  -12.7758 F   0  0  0  0  0  0  0  0  0  0  0  0
   38.9193   15.3116  -14.6023 F   0  0  0  0  0  0  0  0  0  0  0  0
   37.9598   15.8070  -12.5909 O   0  0  0  0  0  0  0  0  0  0  0  0
   37.0395   15.2521  -11.7292 C   0  0  0  0  0  0  0  0  0  0  0  0
   35.8765   16.2160  -11.5710 C   0  0  0  0  0  0  0  0  0  0  0  0
   36.5668   13.9629  -12.3726 C   0  0  0  0  0  0  0  0  0  0  0  0
   34.7705   11.9995  -14.7114 C   0  0  0  0  0  0  0  0  0  0  0  0
   36.0592   11.9215  -15.2306 C   0  0  0  0  0  0  0  0  0  0  0  0
   36.2609   11.3900  -16.5095 C   0  0  0  0  0  0  0  0  0  0  0  0
   35.1424   10.9652  -17.1943 C   0  0  0  0  0  0  0  0  0  0  0  0
   33.8623   11.0437  -16.6763 C   0  0  0  0  0  0  0  0  0  0  0  0
   32.8417   10.5940  -17.4446 F   0  0  0  0  0  0  0  0  0  0  0  0
   33.6664   11.5682  -15.4151 C   0  0  0  0  0  0  0  0  0  0  0  0
 12 13  2  0  0  0
 13  1  1  0  0  0
  1  2  2  0  0  0
  1  4  1  0  0  0
  4  5  1  0  0  0
  5  6  1  0  0  0
  5  7  1  0  0  0
  5  8  1  0  0  0
  8  9  1  0  0  0
  9 10  1  0  0  0
  9 11  1  0  0  0
  1  3  2  0  0  0
 13 14  1  0  0  0
 14 15  2  0  0  0
 15 16  1  0  0  0
 16 17  1  0  0  0
 16 18  2  0  0  0
 18 12  1  0  0  0
 11  4  1  0  0  0
M  END
> <minimizedAffinity>
-6.72128

> <CNNscore>
0.5602862239

> <CNNaffinity>
5.1266026497

> <CNN_VS>
2.8723647594

> <CNNaffinity_variance>
0.2566119134

$$$$
[H]c1c([H])c(S(=O)(=O)N2C(F)(F)OC([H])(C([H])([H])[H])C2([H])[H])c([H])c([H])c1F


 18 19  0  0  0  0  0  0  0  0999 V2000
   37.7120   12.9171  -14.4941 S   0  0  0  0  0  0  0  0  0  0  0  0
   37.5008   14.3951  -14.4288 O   0  0  0  0  0  0  0  0  0  0  0  0
   37.7910   12.4260  -13.0578 O   0  0  0  0  0  0  0  0  0  0  0  0
   39.1672   12.5183  -15.3361 N   0  0  0  0  0  0  0  0  0  0  0  0
   40.2124   13.4657  -15.0908 C   0  0  0  0  0  0  0  0  0  0  0  0
   39.7422   14.7409  -15.2579 F   0  0  0  0  0  0  0  0  0  0  0  0
   40.8347   13.2927  -13.8648 F   0  0  0  0  0  0  0  0  0  0  0  0
   41.1311   13.1858  -16.1260 O   0  0  0  0  0  0  0  0  0  0  0  0
   40.3800   12.9090  -17.2468 C   0  0  0  0  0  0  0  0  0  0  0  0
   40.9857   11.7105  -17.9562 C   0  0  0  0  0  0  0  0  0  0  0  0
   38.9824   12.5777  -16.7602 C   0  0  0  0  0  0  0  0  0  0  0  0
   35.0352   12.3649  -14.8232 C   0  0  0  0  0  0  0  0  0  0  0  0
   36.3350   12.1867  -15.2870 C   0  0  0  0  0  0  0  0  0  0  0  0
   36.5649   11.4011  -16.4222 C   0  0  0  0  0  0  0  0  0  0  0  0
   35.4619   10.8373  -17.0270 C   0  0  0  0  0  0  0  0  0  0  0  0
   34.1707   11.0157  -16.5643 C   0  0  0  0  0  0  0  0  0  0  0  0
   33.1674   10.4105  -17.2434 F   0  0  0  0  0  0  0  0  0  0  0  0
   33.9470   11.7909  -15.4448 C   0  0  0  0  0  0  0  0  0  0  0  0
 12 13  2  0  0  0
 13  1  1  0  0  0
  1  2  2  0  0  0
  1  4  1  0  0  0
  4  5  1  0  0  0
  5  6  1  0  0  0
  5  7  1  0  0  0
  5  8  1  0  0  0
  8  9  1  0  0  0
  9 10  1  0  0  0
  9 11  1  0  0  0
  1  3  2  0  0  0
 13 14  1  0  0  0
 14 15  2  0  0  0
 15 16  1  0  0  0
 16 17  1  0  0  0
 16 18  2  0  0  0
 18 12  1  0  0  0
 11  4  1  0  0  0
M  END
> <minimizedAffinity>
-7.18629

> <CNNscore>
0.5151238441

> <CNNaffinity>
5.4713873863

> <CNN_VS>
2.8184421062

> <CNNaffinity_variance>
0.1247050166

$$$$
[H]c1c([H])c(S(=O)(=O)N2C(F)(F)OC([H])(C([H])([H])[H])C2([H])[H])c([H])c([H])c1F


 18 19  0  0  0  0  0  0  0  0999 V2000
   40.3108   13.6230  -15.0039 S   0  0  0  0  0  0  0  0  0  0  0  0
   40.2577   14.9797  -15.6283 O   0  0  0  0  0  0  0  0  0  0  0  0
   39.9212   13.8008  -13.5455 O   0  0  0  0  0  0  0  0  0  0  0  0
   41.8912   12.9329  -15.1137 N   0  0  0  0  0  0  0  0  0  0  0  0
   42.8024   13.5130  -14.1738 C   0  0  0  0  0  0  0  0  0  0  0  0
   42.7296   14.8794  -14.2276 F   0  0  0  0  0  0  0  0  0  0  0  0
   42.6444   13.0298  -12.8847 F   0  0  0  0  0  0  0  0  0  0  0  0
   44.0596   13.1095  -14.6744 O   0  0  0  0  0  0  0  0  0  0  0  0
   43.9740   13.1882  -16.0469 C   0  0  0  0  0  0  0  0  0  0  0  0
   44.6339   11.9595  -16.6479 C   0  0  0  0  0  0  0  0  0  0  0  0
   42.4965   13.2081  -16.3878 C   0  0  0  0  0  0  0  0  0  0  0  0
   39.4806   11.8043  -16.8964 C   0  0  0  0  0  0  0  0  0  0  0  0
   39.1440   12.5916  -15.7994 C   0  0  0  0  0  0  0  0  0  0  0  0
   37.8349   12.5690  -15.3049 C   0  0  0  0  0  0  0  0  0  0  0  0
   36.9359   11.7476  -15.9510 C   0  0  0  0  0  0  0  0  0  0  0  0
   37.2727   10.9658  -17.0413 C   0  0  0  0  0  0  0  0  0  0  0  0
   36.3019   10.1988  -17.5921 F   0  0  0  0  0  0  0  0  0  0  0  0
   38.5641   10.9900  -17.5266 C   0  0  0  0  0  0  0  0  0  0  0  0
 12 13  2  0  0  0
 13  1  1  0  0  0
  1  2  2  0  0  0
  1  4  1  0  0  0
  4  5  1  0  0  0
  5  6  1  0  0  0
  5  7  1  0  0  0
  5  8  1  0  0  0
  8  9  1  0  0  0
  9 10  1  0  0  0
  9 11  1  0  0  0
  1  3  2  0  0  0
 13 14  1  0  0  0
 14 15  2  0  0  0
 15 16  1  0  0  0
 16 17  1  0  0  0
 16 18  2  0  0  0
 18 12  1  0  0  0
 11  4  1  0  0  0
M  END
> <minimizedAffinity>
-6.00039

> <CNNscore>
0.5058476925

> <CNNaffinity>
5.0317077637

> <CNN_VS>
2.5452778339

> <CNNaffinity_variance>
0.3088814020

$$$$
[H]c1c([H])c(S(=O)(=O)N2C(F)(F)OC([H])(C([H])([H])[H])C2([H])[H])c([H])c([H])c1F


 18 19  0  0  0  0  0  0  0  0999 V2000
   36.0180   11.1809  -16.7124 S   0  0  0  0  0  0  0  0  0  0  0  0
   35.3563   11.7721  -17.9149 O   0  0  0  0  0  0  0  0  0  0  0  0
   35.7376    9.6876  -16.7528 O   0  0  0  0  0  0  0  0  0  0  0  0
   35.4003   11.8588  -15.2478 N   0  0  0  0  0  0  0  0  0  0  0  0
   33.9889   11.6602  -15.1116 C   0  0  0  0  0  0  0  0  0  0  0  0
   33.3480   12.0202  -16.2669 F   0  0  0  0  0  0  0  0  0  0  0  0
   33.6508   10.3805  -14.7013 F   0  0  0  0  0  0  0  0  0  0  0  0
   33.6442   12.5828  -14.0997 O   0  0  0  0  0  0  0  0  0  0  0  0
   34.4001   13.7111  -14.3298 C   0  0  0  0  0  0  0  0  0  0  0  0
   34.9360   14.2181  -13.0023 C   0  0  0  0  0  0  0  0  0  0  0  0
   35.5454   13.2886  -15.2295 C   0  0  0  0  0  0  0  0  0  0  0  0
   38.5032   10.9453  -17.8729 C   0  0  0  0  0  0  0  0  0  0  0  0
   37.7412   11.4558  -16.8263 C   0  0  0  0  0  0  0  0  0  0  0  0
   38.3580   12.2149  -15.8252 C   0  0  0  0  0  0  0  0  0  0  0  0
   39.7170   12.4156  -15.9397 C   0  0  0  0  0  0  0  0  0  0  0  0
   40.4724   11.9072  -16.9809 C   0  0  0  0  0  0  0  0  0  0  0  0
   41.8006   12.1718  -16.9851 F   0  0  0  0  0  0  0  0  0  0  0  0
   39.8617   11.1593  -17.9665 C   0  0  0  0  0  0  0  0  0  0  0  0
 12 13  2  0  0  0
 13  1  1  0  0  0
  1  2  2  0  0  0
  1  4  1  0  0  0
  4  5  1  0  0  0
  5  6  1  0  0  0
  5  7  1  0  0  0
  5  8  1  0  0  0
  8  9  1  0  0  0
  9 10  1  0  0  0
  9 11  1  0  0  0
  1  3  2  0  0  0
 13 14  1  0  0  0
 14 15  2  0  0  0
 15 16  1  0  0  0
 16 17  1  0  0  0
 16 18  2  0  0  0
 18 12  1  0  0  0
 11  4  1  0  0  0
M  END
> <minimizedAffinity>
-6.54661

> <CNNscore>
0.4825929403

> <CNNaffinity>
5.2817173004

> <CNN_VS>
2.5489194393

> <CNNaffinity_variance>
0.4489385486

$$$$
[H]c1c([H])c(S(=O)(=O)N2C(F)(F)OC([H])(C([H])([H])[H])C2([H])[H])c([H])c([H])c1F


 18 19  0  0  0  0  0  0  0  0999 V2000
   40.9266   12.7530  -16.7481 S   0  0  0  0  0  0  0  0  0  0  0  0
   40.5787   14.0862  -17.3265 O   0  0  0  0  0  0  0  0  0  0  0  0
   41.1392   11.8121  -17.9228 O   0  0  0  0  0  0  0  0  0  0  0  0
   39.6663   12.1520  -15.7300 N   0  0  0  0  0  0  0  0  0  0  0  0
   38.6273   11.5086  -16.4760 C   0  0  0  0  0  0  0  0  0  0  0  0
   38.2385   12.3007  -17.5233 F   0  0  0  0  0  0  0  0  0  0  0  0
   38.9563   10.2255  -16.8830 F   0  0  0  0  0  0  0  0  0  0  0  0
   37.5701   11.4472  -15.5419 O   0  0  0  0  0  0  0  0  0  0  0  0
   37.6047   12.6309  -14.8386 C   0  0  0  0  0  0  0  0  0  0  0  0
   37.3848   12.3301  -13.3663 C   0  0  0  0  0  0  0  0  0  0  0  0
   38.9856   13.2206  -15.0516 C   0  0  0  0  0  0  0  0  0  0  0  0
   42.4518   13.4634  -14.5692 C   0  0  0  0  0  0  0  0  0  0  0  0
   42.4152   12.9036  -15.8427 C   0  0  0  0  0  0  0  0  0  0  0  0
   43.5978   12.4421  -16.4320 C   0  0  0  0  0  0  0  0  0  0  0  0
   44.7563   12.5736  -15.6964 C   0  0  0  0  0  0  0  0  0  0  0  0
   44.7904   13.1303  -14.4306 C   0  0  0  0  0  0  0  0  0  0  0  0
   45.9898   13.2053  -13.8061 F   0  0  0  0  0  0  0  0  0  0  0  0
   43.6229   13.5844  -13.8521 C   0  0  0  0  0  0  0  0  0  0  0  0
 12 13  2  0  0  0
 13  1  1  0  0  0
  1  2  2  0  0  0
  1  4  1  0  0  0
  4  5  1  0  0  0
  5  6  1  0  0  0
  5  7  1  0  0  0
  5  8  1  0  0  0
  8  9  1  0  0  0
  9 10  1  0  0  0
  9 11  1  0  0  0
  1  3  2  0  0  0
 13 14  1  0  0  0
 14 15  2  0  0  0
 15 16  1  0  0  0
 16 17  1  0  0  0
 16 18  2  0  0  0
 18 12  1  0  0  0
 11  4  1  0  0  0
M  END
> <minimizedAffinity>
-6.11200

> <CNNscore>
0.4277497232

> <CNNaffinity>
4.8325390816

> <CNN_VS>
2.0671172142

> <CNNaffinity_variance>
0.3398622274

$$$$
[H]c1c([H])c(S(=O)(=O)N2C(F)(F)OC([H])(C([H])([H])[H])C2([H])[H])c([H])c([H])c1F


 18 19  0  0  0  0  0  0  0  0999 V2000
   38.1254   12.6010  -14.2493 S   0  0  0  0  0  0  0  0  0  0  0  0
   38.1099   11.4114  -13.3449 O   0  0  0  0  0  0  0  0  0  0  0  0
   39.1188   13.5857  -13.6545 O   0  0  0  0  0  0  0  0  0  0  0  0
   36.5646   13.3333  -14.3652 N   0  0  0  0  0  0  0  0  0  0  0  0
   36.3309   14.2800  -13.3168 C   0  0  0  0  0  0  0  0  0  0  0  0
   36.6582   13.7327  -12.1050 F   0  0  0  0  0  0  0  0  0  0  0  0
   36.9554   15.4990  -13.5275 F   0  0  0  0  0  0  0  0  0  0  0  0
   34.9308   14.4562  -13.3673 O   0  0  0  0  0  0  0  0  0  0  0  0
   34.3928   13.2152  -13.6277 C   0  0  0  0  0  0  0  0  0  0  0  0
   33.2878   13.3692  -14.6582 C   0  0  0  0  0  0  0  0  0  0  0  0
   35.5167   12.3656  -14.1887 C   0  0  0  0  0  0  0  0  0  0  0  0
   39.9203   12.4687  -16.3325 C   0  0  0  0  0  0  0  0  0  0  0  0
   38.6763   12.0979  -15.8310 C   0  0  0  0  0  0  0  0  0  0  0  0
   37.8271   11.2978  -16.6040 C   0  0  0  0  0  0  0  0  0  0  0  0
   38.2863   10.9162  -17.8466 C   0  0  0  0  0  0  0  0  0  0  0  0
   39.5232   11.2859  -18.3431 C   0  0  0  0  0  0  0  0  0  0  0  0
   39.8638   10.8487  -19.5788 F   0  0  0  0  0  0  0  0  0  0  0  0
   40.3584   12.0747  -17.5787 C   0  0  0  0  0  0  0  0  0  0  0  0
 12 13  2  0  0  0
 13  1  1  0  0  0
  1  2  2  0  0  0
  1  4  1  0  0  0
  4  5  1  0  0  0
  5  6  1  0  0  0
  5  7  1  0  0  0
  5  8  1  0  0  0
  8  9  1  0  0  0
  9 10  1  0  0  0
  9 11  1  0  0  0
  1  3  2  0  0  0
 13 14  1  0  0  0
 14 15  2  0  0  0
 15 16  1  0  0  0
 16 17  1  0  0  0
 16 18  2  0  0  0
 18 12  1  0  0  0
 11  4  1  0  0  0
M  END
> <minimizedAffinity>
-6.82666

> <CNNscore>
0.4241536558

> <CNNaffinity>
5.1710934639

> <CNN_VS>
2.1933381557

> <CNNaffinity_variance>
0.2864128947

$$$$
[H]c1c([H])c(S(=O)(=O)N2C(F)(F)OC([H])(C([H])([H])[H])C2([H])[H])c([H])c([H])c1F


 18 19  0  0  0  0  0  0  0  0999 V2000
   37.7128   12.4786  -14.1211 S   0  0  0  0  0  0  0  0  0  0  0  0
   37.7623   11.3598  -13.1316 O   0  0  0  0  0  0  0  0  0  0  0  0
   38.9694   13.3059  -13.9042 O   0  0  0  0  0  0  0  0  0  0  0  0
   36.3108   13.4639  -13.8987 N   0  0  0  0  0  0  0  0  0  0  0  0
   36.5102   14.4736  -12.9032 C   0  0  0  0  0  0  0  0  0  0  0  0
   37.0520   13.9216  -11.7732 F   0  0  0  0  0  0  0  0  0  0  0  0
   37.2416   15.5586  -13.3594 F   0  0  0  0  0  0  0  0  0  0  0  0
   35.1910   14.8861  -12.6143 O   0  0  0  0  0  0  0  0  0  0  0  0
   34.4158   13.7477  -12.6327 C   0  0  0  0  0  0  0  0  0  0  0  0
   33.1188   14.0526  -13.3616 C   0  0  0  0  0  0  0  0  0  0  0  0
   35.2067   12.6979  -13.3891 C   0  0  0  0  0  0  0  0  0  0  0  0
   36.5573   11.4489  -16.3977 C   0  0  0  0  0  0  0  0  0  0  0  0
   37.7280   11.8039  -15.7344 C   0  0  0  0  0  0  0  0  0  0  0  0
   38.9646   11.6214  -16.3638 C   0  0  0  0  0  0  0  0  0  0  0  0
   38.9473   11.0876  -17.6347 C   0  0  0  0  0  0  0  0  0  0  0  0
   37.7824   10.7354  -18.2922 C   0  0  0  0  0  0  0  0  0  0  0  0
   37.8928   10.2199  -19.5397 F   0  0  0  0  0  0  0  0  0  0  0  0
   36.5646   10.9166  -17.6692 C   0  0  0  0  0  0  0  0  0  0  0  0
 12 13  2  0  0  0
 13  1  1  0  0  0
  1  2  2  0  0  0
  1  4  1  0  0  0
  4  5  1  0  0  0
  5  6  1  0  0  0
  5  7  1  0  0  0
  5  8  1  0  0  0
  8  9  1  0  0  0
  9 10  1  0  0  0
  9 11  1  0  0  0
  1  3  2  0  0  0
 13 14  1  0  0  0
 14 15  2  0  0  0
 15 16  1  0  0  0
 16 17  1  0  0  0
 16 18  2  0  0  0
 18 12  1  0  0  0
 11  4  1  0  0  0
M  END
> <minimizedAffinity>
-7.02652

> <CNNscore>
0.4187744260

> <CNNaffinity>
5.0827875137

> <CNN_VS>
2.1285414696

> <CNNaffinity_variance>
0.2848044038

$$$$
[H]c1c([H])c(S(=O)(=O)N2C(F)(F)OC([H])(C([H])([H])[H])C2([H])[H])c([H])c([H])c1F


 18 19  0  0  0  0  0  0  0  0999 V2000
   39.6043   13.8979  -14.4729 S   0  0  0  0  0  0  0  0  0  0  0  0
   40.7915   13.5558  -13.6321 O   0  0  0  0  0  0  0  0  0  0  0  0
   39.7661   15.3531  -14.8809 O   0  0  0  0  0  0  0  0  0  0  0  0
   38.1261   13.6889  -13.6028 N   0  0  0  0  0  0  0  0  0  0  0  0
   36.9837   14.0769  -14.3740 C   0  0  0  0  0  0  0  0  0  0  0  0
   37.1902   15.3082  -14.9366 F   0  0  0  0  0  0  0  0  0  0  0  0
   36.6053   13.1289  -15.3111 F   0  0  0  0  0  0  0  0  0  0  0  0
   35.9751   14.1942  -13.3927 O   0  0  0  0  0  0  0  0  0  0  0  0
   36.5745   14.7521  -12.2851 C   0  0  0  0  0  0  0  0  0  0  0  0
   36.0830   14.0244  -11.0460 C   0  0  0  0  0  0  0  0  0  0  0  0
   38.0679   14.5493  -12.4531 C   0  0  0  0  0  0  0  0  0  0  0  0
   38.9143   11.6850  -15.9580 C   0  0  0  0  0  0  0  0  0  0  0  0
   39.6148   12.8860  -15.8992 C   0  0  0  0  0  0  0  0  0  0  0  0
   40.3560   13.3119  -17.0074 C   0  0  0  0  0  0  0  0  0  0  0  0
   40.3469   12.4949  -18.1177 C   0  0  0  0  0  0  0  0  0  0  0  0
   39.6499   11.3015  -18.1741 C   0  0  0  0  0  0  0  0  0  0  0  0
   39.7172   10.5846  -19.3211 F   0  0  0  0  0  0  0  0  0  0  0  0
   38.9199   10.8842  -17.0800 C   0  0  0  0  0  0  0  0  0  0  0  0
 12 13  2  0  0  0
 13  1  1  0  0  0
  1  2  2  0  0  0
  1  4  1  0  0  0
  4  5  1  0  0  0
  5  6  1  0  0  0
  5  7  1  0  0  0
  5  8  1  0  0  0
  8  9  1  0  0  0
  9 10  1  0  0  0
  9 11  1  0  0  0
  1  3  2  0  0  0
 13 14  1  0  0  0
 14 15  2  0  0  0
 15 16  1  0  0  0
 16 17  1  0  0  0
 16 18  2  0  0  0
 18 12  1  0  0  0
 11  4  1  0  0  0
M  END
> <minimizedAffinity>
-6.07106

> <CNNscore>
0.4154037535

> <CNNaffinity>
4.9072637558

> <CNN_VS>
2.0384957790

> <CNNaffinity_variance>
0.3371909857

$$$$
[H]c1c([H])c(S(=O)(=O)N2C(F)(F)OC([H])(C([H])([H])[H])C2([H])[H])c([H])c([H])c1F


 18 19  0  0  0  0  0  0  0  0999 V2000
   38.3331   13.3051  -14.5531 S   0  0  0  0  0  0  0  0  0  0  0  0
   38.7292   12.4613  -13.3851 O   0  0  0  0  0  0  0  0  0  0  0  0
   39.0784   14.6221  -14.4099 O   0  0  0  0  0  0  0  0  0  0  0  0
   36.6291   13.5907  -14.5837 N   0  0  0  0  0  0  0  0  0  0  0  0
   36.1900   14.3702  -13.4659 C   0  0  0  0  0  0  0  0  0  0  0  0
   36.7006   13.8575  -12.3033 F   0  0  0  0  0  0  0  0  0  0  0  0
   36.4531   15.7238  -13.6022 F   0  0  0  0  0  0  0  0  0  0  0  0
   34.7935   14.1614  -13.4743 O   0  0  0  0  0  0  0  0  0  0  0  0
   34.6009   12.8398  -13.8112 C   0  0  0  0  0  0  0  0  0  0  0  0
   33.4556   12.7515  -14.8047 C   0  0  0  0  0  0  0  0  0  0  0  0
   35.8895   12.3652  -14.4547 C   0  0  0  0  0  0  0  0  0  0  0  0
   38.0954   11.4774  -16.5979 C   0  0  0  0  0  0  0  0  0  0  0  0
   38.8385   12.5040  -16.0231 C   0  0  0  0  0  0  0  0  0  0  0  0
   40.0302   12.9202  -16.6276 C   0  0  0  0  0  0  0  0  0  0  0  0
   40.4048   12.2714  -17.7848 C   0  0  0  0  0  0  0  0  0  0  0  0
   39.6646   11.2512  -18.3544 C   0  0  0  0  0  0  0  0  0  0  0  0
   40.1353   10.6899  -19.4935 F   0  0  0  0  0  0  0  0  0  0  0  0
   38.4901   10.8430  -17.7563 C   0  0  0  0  0  0  0  0  0  0  0  0
 12 13  2  0  0  0
 13  1  1  0  0  0
  1  2  2  0  0  0
  1  4  1  0  0  0
  4  5  1  0  0  0
  5  6  1  0  0  0
  5  7  1  0  0  0
  5  8  1  0  0  0
  8  9  1  0  0  0
  9 10  1  0  0  0
  9 11  1  0  0  0
  1  3  2  0  0  0
 13 14  1  0  0  0
 14 15  2  0  0  0
 15 16  1  0  0  0
 16 17  1  0  0  0
 16 18  2  0  0  0
 18 12  1  0  0  0
 11  4  1  0  0  0
M  END
> <minimizedAffinity>
-6.63860

> <CNNscore>
0.3918977082

> <CNNaffinity>
5.1311974525

> <CNN_VS>
2.0109045506

> <CNNaffinity_variance>
0.2790358365

$$$$
[H]C1=C2C([H])([H])N3C([H])([H])C([H])([H])C([H])([H])C([H])([H])C3([H])C([H])([H])C([H])([H])C2([H])N(C([H])([H])C([H])([H])c2c(C([H])([H])[H])oc3c([H])c([H])c([H])c([H])c23)C([H])([H])C1([H])[H]


 27 31  0  0  0  0  0  0  0  0999 V2000
   36.3692   15.0577  -13.7654 N   0  0  0  0  0  0  0  0  0  0  0  0
   37.7726   14.9709  -13.9676 C   0  0  0  0  0  0  0  0  0  0  0  0
   38.3902   13.9788  -12.9374 C   0  0  0  0  0  0  0  0  0  0  0  0
   38.3830   14.7911  -11.6856 C   0  0  0  0  0  0  0  0  0  0  0  0
   37.2882   15.5629  -11.5276 C   0  0  0  0  0  0  0  0  0  0  0  0
   37.4017   16.3343  -10.2371 C   0  0  0  0  0  0  0  0  0  0  0  0
   36.7944   15.7588   -9.1176 N   0  0  0  0  0  0  0  0  0  0  0  0
   37.5867   14.9928   -8.2155 C   0  0  0  0  0  0  0  0  0  0  0  0
   36.9505   15.1981   -6.8253 C   0  0  0  0  0  0  0  0  0  0  0  0
   35.5279   14.7365   -6.8574 C   0  0  0  0  0  0  0  0  0  0  0  0
   34.7571   15.2906   -8.0461 C   0  0  0  0  0  0  0  0  0  0  0  0
   35.5352   15.1202   -9.3389 C   0  0  0  0  0  0  0  0  0  0  0  0
   34.7593   15.7959  -10.4511 C   0  0  0  0  0  0  0  0  0  0  0  0
   34.9192   15.1142  -11.7863 C   0  0  0  0  0  0  0  0  0  0  0  0
   36.1506   15.6324  -12.4556 C   0  0  0  0  0  0  0  0  0  0  0  0
   35.5909   13.9430  -14.0740 C   0  0  0  0  0  0  0  0  0  0  0  0
   36.1309   12.5660  -14.1385 C   0  0  0  0  0  0  0  0  0  0  0  0
   33.6077   11.2968  -15.6534 C   0  0  0  0  0  0  0  0  0  0  0  0
   35.0264   11.3124  -16.1090 C   0  0  0  0  0  0  0  0  0  0  0  0
   35.4929   10.8466  -17.2318 O   0  0  0  0  0  0  0  0  0  0  0  0
   36.7702   11.0084  -17.3357 C   0  0  0  0  0  0  0  0  0  0  0  0
   37.6684   10.6692  -18.3611 C   0  0  0  0  0  0  0  0  0  0  0  0
   38.9984   10.9956  -18.1600 C   0  0  0  0  0  0  0  0  0  0  0  0
   39.4571   11.6268  -17.0109 C   0  0  0  0  0  0  0  0  0  0  0  0
   38.5438   11.9394  -16.0332 C   0  0  0  0  0  0  0  0  0  0  0  0
   37.2128   11.6277  -16.2047 C   0  0  0  0  0  0  0  0  0  0  0  0
   36.0830   11.8314  -15.3985 C   0  0  0  0  0  0  0  0  0  0  0  0
 18 19  1  0  0  0
 19 20  1  0  0  0
 20 21  1  0  0  0
 21 22  2  0  0  0
 22 23  1  0  0  0
 23 24  2  0  0  0
 24 25  1  0  0  0
 25 26  2  0  0  0
 26 27  1  0  0  0
 27 17  1  0  0  0
 17 16  1  0  0  0
 16  1  1  0  0  0
  1  2  1  0  0  0
  2  3  1  0  0  0
  3  4  1  0  0  0
  4  5  2  0  0  0
  5  6  1  0  0  0
  6  7  1  0  0  0
  7  8  1  0  0  0
  8  9  1  0  0  0
  9 10  1  0  0  0
 10 11  1  0  0  0
 11 12  1  0  0  0
 12 13  1  0  0  0
 13 14  1  0  0  0
 14 15  1  0  0  0
 27 19  2  0  0  0
 15  1  1  0  0  0
 26 21  1  0  0  0
 15  5  1  0  0  0
 12  7  1  0  0  0
M  END
> <minimizedAffinity>
-8.93958

> <CNNscore>
0.3623422682

> <CNNaffinity>
6.4239654541

> <CNN_VS>
2.3276741505

> <CNNaffinity_variance>
0.1615089178

$$$$
[H]C1=C2C([H])([H])N3C([H])([H])C([H])([H])C([H])([H])C([H])([H])C3([H])C([H])([H])C([H])([H])C2([H])N(C([H])([H])C([H])([H])c2c(C([H])([H])[H])oc3c([H])c([H])c([H])c([H])c23)C([H])([H])C1([H])[H]


 27 31  0  0  0  0  0  0  0  0999 V2000
   35.6793   15.2868  -11.8131 N   0  0  0  0  0  0  0  0  0  0  0  0
   36.5544   15.5010  -10.7147 C   0  0  0  0  0  0  0  0  0  0  0  0
   36.1627   14.5553   -9.5403 C   0  0  0  0  0  0  0  0  0  0  0  0
   34.9417   15.2232   -9.0016 C   0  0  0  0  0  0  0  0  0  0  0  0
   34.1283   15.7427   -9.9439 C   0  0  0  0  0  0  0  0  0  0  0  0
   32.9410   16.3908   -9.2779 C   0  0  0  0  0  0  0  0  0  0  0  0
   31.7965   15.5991   -9.1483 N   0  0  0  0  0  0  0  0  0  0  0  0
   31.5575   14.9212   -7.9189 C   0  0  0  0  0  0  0  0  0  0  0  0
   30.0234   14.8584   -7.7696 C   0  0  0  0  0  0  0  0  0  0  0  0
   29.4404   14.1287   -8.9381 C   0  0  0  0  0  0  0  0  0  0  0  0
   29.9735   14.6324  -10.2709 C   0  0  0  0  0  0  0  0  0  0  0  0
   31.4875   14.7477  -10.2538 C   0  0  0  0  0  0  0  0  0  0  0  0
   31.9304   15.3615  -11.5664 C   0  0  0  0  0  0  0  0  0  0  0  0
   33.2729   14.8595  -12.0341 C   0  0  0  0  0  0  0  0  0  0  0  0
   34.3497   15.6752  -11.3953 C   0  0  0  0  0  0  0  0  0  0  0  0
   35.7683   14.0753  -12.4973 C   0  0  0  0  0  0  0  0  0  0  0  0
   37.0449   13.5118  -12.9916 C   0  0  0  0  0  0  0  0  0  0  0  0
   39.5668   13.1060  -14.9277 C   0  0  0  0  0  0  0  0  0  0  0  0
   38.1603   12.6757  -15.1668 C   0  0  0  0  0  0  0  0  0  0  0  0
   37.7076   12.0159  -16.1939 O   0  0  0  0  0  0  0  0  0  0  0  0
   36.4382   11.7919  -16.1110 C   0  0  0  0  0  0  0  0  0  0  0  0
   35.5555   11.1224  -16.9747 C   0  0  0  0  0  0  0  0  0  0  0  0
   34.2307   11.0492  -16.5801 C   0  0  0  0  0  0  0  0  0  0  0  0
   33.7628   11.6014  -15.3946 C   0  0  0  0  0  0  0  0  0  0  0  0
   34.6611   12.2479  -14.5805 C   0  0  0  0  0  0  0  0  0  0  0  0
   35.9864   12.3368  -14.9459 C   0  0  0  0  0  0  0  0  0  0  0  0
   37.1021   12.9148  -14.3220 C   0  0  0  0  0  0  0  0  0  0  0  0
 18 19  1  0  0  0
 19 20  1  0  0  0
 20 21  1  0  0  0
 21 22  2  0  0  0
 22 23  1  0  0  0
 23 24  2  0  0  0
 24 25  1  0  0  0
 25 26  2  0  0  0
 26 27  1  0  0  0
 27 17  1  0  0  0
 17 16  1  0  0  0
 16  1  1  0  0  0
  1  2  1  0  0  0
  2  3  1  0  0  0
  3  4  1  0  0  0
  4  5  2  0  0  0
  5  6  1  0  0  0
  6  7  1  0  0  0
  7  8  1  0  0  0
  8  9  1  0  0  0
  9 10  1  0  0  0
 10 11  1  0  0  0
 11 12  1  0  0  0
 12 13  1  0  0  0
 13 14  1  0  0  0
 14 15  1  0  0  0
 27 19  2  0  0  0
 15  1  1  0  0  0
 26 21  1  0  0  0
 15  5  1  0  0  0
 12  7  1  0  0  0
M  END
> <minimizedAffinity>
-8.06600

> <CNNscore>
0.3045006394

> <CNNaffinity>
6.1017508507

> <CNN_VS>
1.8579870462

> <CNNaffinity_variance>
0.1934290379

$$$$
[H]C1=C2C([H])([H])N3C([H])([H])C([H])([H])C([H])([H])C([H])([H])C3([H])C([H])([H])C([H])([H])C2([H])N(C([H])([H])C([H])([H])c2c(C([H])([H])[H])oc3c([H])c([H])c([H])c([H])c23)C([H])([H])C1([H])[H]


 27 31  0  0  0  0  0  0  0  0999 V2000
   43.1900   13.6816  -15.5075 N   0  0  0  0  0  0  0  0  0  0  0  0
   44.1959   13.4142  -16.4743 C   0  0  0  0  0  0  0  0  0  0  0  0
   44.9255   12.0847  -16.1177 C   0  0  0  0  0  0  0  0  0  0  0  0
   45.7972   12.5072  -14.9825 C   0  0  0  0  0  0  0  0  0  0  0  0
   45.2212   13.3814  -14.1320 C   0  0  0  0  0  0  0  0  0  0  0  0
   46.1980   13.7336  -13.0389 C   0  0  0  0  0  0  0  0  0  0  0  0
   46.1064   12.9839  -11.8629 N   0  0  0  0  0  0  0  0  0  0  0  0
   46.9790   11.8737  -11.6782 C   0  0  0  0  0  0  0  0  0  0  0  0
   47.2329   11.7921  -10.1588 C   0  0  0  0  0  0  0  0  0  0  0  0
   45.9300   11.6093   -9.4470 C   0  0  0  0  0  0  0  0  0  0  0  0
   44.8661   12.5949   -9.9063 C   0  0  0  0  0  0  0  0  0  0  0  0
   44.7868   12.6581  -11.4214 C   0  0  0  0  0  0  0  0  0  0  0  0
   43.7937   13.7383  -11.7989 C   0  0  0  0  0  0  0  0  0  0  0  0
   43.0417   13.4362  -13.0702 C   0  0  0  0  0  0  0  0  0  0  0  0
   43.8500   13.8996  -14.2384 C   0  0  0  0  0  0  0  0  0  0  0  0
   42.0737   12.8471  -15.4728 C   0  0  0  0  0  0  0  0  0  0  0  0
   40.9271   12.9828  -16.3994 C   0  0  0  0  0  0  0  0  0  0  0  0
   39.5315   14.4417  -13.9101 C   0  0  0  0  0  0  0  0  0  0  0  0
   38.9111   13.4767  -14.8611 C   0  0  0  0  0  0  0  0  0  0  0  0
   37.6706   13.0816  -14.8772 O   0  0  0  0  0  0  0  0  0  0  0  0
   37.4383   12.2370  -15.8265 C   0  0  0  0  0  0  0  0  0  0  0  0
   36.2618   11.5718  -16.2097 C   0  0  0  0  0  0  0  0  0  0  0  0
   36.3509   10.7221  -17.2987 C   0  0  0  0  0  0  0  0  0  0  0  0
   37.5312   10.5130  -18.0005 C   0  0  0  0  0  0  0  0  0  0  0  0
   38.6580   11.1836  -17.5903 C   0  0  0  0  0  0  0  0  0  0  0  0
   38.6006   12.0366  -16.5100 C   0  0  0  0  0  0  0  0  0  0  0  0
   39.5674   12.8415  -15.8890 C   0  0  0  0  0  0  0  0  0  0  0  0
 18 19  1  0  0  0
 19 20  1  0  0  0
 20 21  1  0  0  0
 21 22  2  0  0  0
 22 23  1  0  0  0
 23 24  2  0  0  0
 24 25  1  0  0  0
 25 26  2  0  0  0
 26 27  1  0  0  0
 27 17  1  0  0  0
 17 16  1  0  0  0
 16  1  1  0  0  0
  1  2  1  0  0  0
  2  3  1  0  0  0
  3  4  1  0  0  0
  4  5  2  0  0  0
  5  6  1  0  0  0
  6  7  1  0  0  0
  7  8  1  0  0  0
  8  9  1  0  0  0
  9 10  1  0  0  0
 10 11  1  0  0  0
 11 12  1  0  0  0
 12 13  1  0  0  0
 13 14  1  0  0  0
 14 15  1  0  0  0
 27 19  2  0  0  0
 15  1  1  0  0  0
 26 21  1  0  0  0
 15  5  1  0  0  0
 12  7  1  0  0  0
M  END
> <minimizedAffinity>
-8.62898

> <CNNscore>
0.2839818299

> <CNNaffinity>
6.2094330788

> <CNN_VS>
1.7633662224

> <CNNaffinity_variance>
0.0685507059

$$$$
[H]C1=C2C([H])([H])N3C([H])([H])C([H])([H])C([H])([H])C([H])([H])C3([H])C([H])([H])C([H])([H])C2([H])N(C([H])([H])C([H])([H])c2c(C([H])([H])[H])oc3c([H])c([H])c([H])c([H])c23)C([H])([H])C1([H])[H]


 27 31  0  0  0  0  0  0  0  0999 V2000
   40.2103   13.6037  -15.9893 N   0  0  0  0  0  0  0  0  0  0  0  0
   40.5954   13.0856  -17.2547 C   0  0  0  0  0  0  0  0  0  0  0  0
   41.4693   11.8114  -17.0554 C   0  0  0  0  0  0  0  0  0  0  0  0
   42.7756   12.3971  -16.6340 C   0  0  0  0  0  0  0  0  0  0  0  0
   42.6707   13.4583  -15.8081 C   0  0  0  0  0  0  0  0  0  0  0  0
   44.0493   13.9604  -15.4609 C   0  0  0  0  0  0  0  0  0  0  0  0
   44.6064   13.4687  -14.2771 N   0  0  0  0  0  0  0  0  0  0  0  0
   45.5048   12.3654  -14.3391 C   0  0  0  0  0  0  0  0  0  0  0  0
   46.5007   12.5740  -13.1796 C   0  0  0  0  0  0  0  0  0  0  0  0
   45.7526   12.6195  -11.8850 C   0  0  0  0  0  0  0  0  0  0  0  0
   44.5562   13.5580  -11.9303 C   0  0  0  0  0  0  0  0  0  0  0  0
   43.7134   13.3212  -13.1711 C   0  0  0  0  0  0  0  0  0  0  0  0
   42.6147   14.3641  -13.2033 C   0  0  0  0  0  0  0  0  0  0  0  0
   41.3360   13.8612  -13.8239 C   0  0  0  0  0  0  0  0  0  0  0  0
   41.4129   14.0297  -15.3067 C   0  0  0  0  0  0  0  0  0  0  0  0
   39.3099   12.8647  -15.2232 C   0  0  0  0  0  0  0  0  0  0  0  0
   38.7284   11.5777  -15.6673 C   0  0  0  0  0  0  0  0  0  0  0  0
   37.5862   10.5851  -18.4927 C   0  0  0  0  0  0  0  0  0  0  0  0
   36.8077   11.0770  -17.3210 C   0  0  0  0  0  0  0  0  0  0  0  0
   35.5120   11.1533  -17.2186 O   0  0  0  0  0  0  0  0  0  0  0  0
   35.1384   11.6233  -16.0750 C   0  0  0  0  0  0  0  0  0  0  0  0
   33.8607   11.8643  -15.5432 C   0  0  0  0  0  0  0  0  0  0  0  0
   33.8051   12.3748  -14.2577 C   0  0  0  0  0  0  0  0  0  0  0  0
   34.9384   12.6486  -13.5028 C   0  0  0  0  0  0  0  0  0  0  0  0
   36.1677   12.3984  -14.0629 C   0  0  0  0  0  0  0  0  0  0  0  0
   36.2553   11.8899  -15.3403 C   0  0  0  0  0  0  0  0  0  0  0  0
   37.3497   11.5360  -16.1436 C   0  0  0  0  0  0  0  0  0  0  0  0
 18 19  1  0  0  0
 19 20  1  0  0  0
 20 21  1  0  0  0
 21 22  2  0  0  0
 22 23  1  0  0  0
 23 24  2  0  0  0
 24 25  1  0  0  0
 25 26  2  0  0  0
 26 27  1  0  0  0
 27 17  1  0  0  0
 17 16  1  0  0  0
 16  1  1  0  0  0
  1  2  1  0  0  0
  2  3  1  0  0  0
  3  4  1  0  0  0
  4  5  2  0  0  0
  5  6  1  0  0  0
  6  7  1  0  0  0
  7  8  1  0  0  0
  8  9  1  0  0  0
  9 10  1  0  0  0
 10 11  1  0  0  0
 11 12  1  0  0  0
 12 13  1  0  0  0
 13 14  1  0  0  0
 14 15  1  0  0  0
 27 19  2  0  0  0
 15  1  1  0  0  0
 26 21  1  0  0  0
 15  5  1  0  0  0
 12  7  1  0  0  0
M  END
> <minimizedAffinity>
-8.55710

> <CNNscore>
0.2816879749

> <CNNaffinity>
6.6000328064

> <CNN_VS>
1.8591499329

> <CNNaffinity_variance>
0.0493764207

$$$$
[H]C1=C2C([H])([H])N3C([H])([H])C([H])([H])C([H])([H])C([H])([H])C3([H])C([H])([H])C([H])([H])C2([H])N(C([H])([H])C([H])([H])c2c(C([H])([H])[H])oc3c([H])c([H])c([H])c([H])c23)C([H])([H])C1([H])[H]


 27 31  0  0  0  0  0  0  0  0999 V2000
   36.1060   15.3857  -12.2316 N   0  0  0  0  0  0  0  0  0  0  0  0
   37.3237   15.3892  -11.5000 C   0  0  0  0  0  0  0  0  0  0  0  0
   37.2170   14.4014  -10.3001 C   0  0  0  0  0  0  0  0  0  0  0  0
   36.3664   15.1693   -9.3441 C   0  0  0  0  0  0  0  0  0  0  0  0
   35.3691   15.8691   -9.9228 C   0  0  0  0  0  0  0  0  0  0  0  0
   34.5901   16.6020   -8.8601 C   0  0  0  0  0  0  0  0  0  0  0  0
   33.4527   15.9542   -8.3700 N   0  0  0  0  0  0  0  0  0  0  0  0
   33.5467   15.2067   -7.1615 C   0  0  0  0  0  0  0  0  0  0  0  0
   32.1635   15.3270   -6.4891 C   0  0  0  0  0  0  0  0  0  0  0  0
   31.1159   14.7831   -7.4080 C   0  0  0  0  0  0  0  0  0  0  0  0
   31.2337   15.3303   -8.8226 C   0  0  0  0  0  0  0  0  0  0  0  0
   32.6626   15.2498   -9.3302 C   0  0  0  0  0  0  0  0  0  0  0  0
   32.7200   15.9153  -10.6903 C   0  0  0  0  0  0  0  0  0  0  0  0
   33.7324   15.2896  -11.6158 C   0  0  0  0  0  0  0  0  0  0  0  0
   35.0715   15.9021  -11.3617 C   0  0  0  0  0  0  0  0  0  0  0  0
   35.7745   14.2378  -12.9500 C   0  0  0  0  0  0  0  0  0  0  0  0
   36.7717   13.4073  -13.6624 C   0  0  0  0  0  0  0  0  0  0  0  0
   33.8145   12.4588  -14.4549 C   0  0  0  0  0  0  0  0  0  0  0  0
   35.0879   12.1484  -15.1639 C   0  0  0  0  0  0  0  0  0  0  0  0
   35.2248   11.4657  -16.2641 O   0  0  0  0  0  0  0  0  0  0  0  0
   36.4599   11.3685  -16.6293 C   0  0  0  0  0  0  0  0  0  0  0  0
   37.0538   10.7395  -17.7361 C   0  0  0  0  0  0  0  0  0  0  0  0
   38.4309   10.8309  -17.8421 C   0  0  0  0  0  0  0  0  0  0  0  0
   39.2181   11.5029  -16.9158 C   0  0  0  0  0  0  0  0  0  0  0  0
   38.5952   12.1028  -15.8482 C   0  0  0  0  0  0  0  0  0  0  0  0
   37.2259   12.0296  -15.7156 C   0  0  0  0  0  0  0  0  0  0  0  0
   36.3405   12.5429  -14.7561 C   0  0  0  0  0  0  0  0  0  0  0  0
 18 19  1  0  0  0
 19 20  1  0  0  0
 20 21  1  0  0  0
 21 22  2  0  0  0
 22 23  1  0  0  0
 23 24  2  0  0  0
 24 25  1  0  0  0
 25 26  2  0  0  0
 26 27  1  0  0  0
 27 17  1  0  0  0
 17 16  1  0  0  0
 16  1  1  0  0  0
  1  2  1  0  0  0
  2  3  1  0  0  0
  3  4  1  0  0  0
  4  5  2  0  0  0
  5  6  1  0  0  0
  6  7  1  0  0  0
  7  8  1  0  0  0
  8  9  1  0  0  0
  9 10  1  0  0  0
 10 11  1  0  0  0
 11 12  1  0  0  0
 12 13  1  0  0  0
 13 14  1  0  0  0
 14 15  1  0  0  0
 27 19  2  0  0  0
 15  1  1  0  0  0
 26 21  1  0  0  0
 15  5  1  0  0  0
 12  7  1  0  0  0
M  END
> <minimizedAffinity>
-8.21399

> <CNNscore>
0.2612733841

> <CNNaffinity>
6.1477346420

> <CNN_VS>
1.6062394381

> <CNNaffinity_variance>
0.1162255257

$$$$
[H]C1=C2C([H])([H])N3C([H])([H])C([H])([H])C([H])([H])C([H])([H])C3([H])C([H])([H])C([H])([H])C2([H])N(C([H])([H])C([H])([H])c2c(C([H])([H])[H])oc3c([H])c([H])c([H])c([H])c23)C([H])([H])C1([H])[H]


 27 31  0  0  0  0  0  0  0  0999 V2000
   38.9414   12.5227  -14.4252 N   0  0  0  0  0  0  0  0  0  0  0  0
   38.4645   11.6739  -15.4597 C   0  0  0  0  0  0  0  0  0  0  0  0
   37.2905   12.3708  -16.2101 C   0  0  0  0  0  0  0  0  0  0  0  0
   36.1678   12.2120  -15.2398 C   0  0  0  0  0  0  0  0  0  0  0  0
   36.5219   12.3645  -13.9472 C   0  0  0  0  0  0  0  0  0  0  0  0
   35.3096   12.1761  -13.0708 C   0  0  0  0  0  0  0  0  0  0  0  0
   34.6200   13.3374  -12.7115 N   0  0  0  0  0  0  0  0  0  0  0  0
   33.4715   13.7222  -13.4605 C   0  0  0  0  0  0  0  0  0  0  0  0
   32.5368   14.4277  -12.4565 C   0  0  0  0  0  0  0  0  0  0  0  0
   33.2435   15.6054  -11.8636 C   0  0  0  0  0  0  0  0  0  0  0  0
   34.6403   15.2638  -11.3673 C   0  0  0  0  0  0  0  0  0  0  0  0
   35.4216   14.4809  -12.4077 C   0  0  0  0  0  0  0  0  0  0  0  0
   36.7503   14.0803  -11.7996 C   0  0  0  0  0  0  0  0  0  0  0  0
   37.8717   14.0245  -12.8057 C   0  0  0  0  0  0  0  0  0  0  0  0
   37.8726   12.6826  -13.4631 C   0  0  0  0  0  0  0  0  0  0  0  0
   39.6068   13.6924  -14.7896 C   0  0  0  0  0  0  0  0  0  0  0  0
   40.2910   13.8677  -16.0906 C   0  0  0  0  0  0  0  0  0  0  0  0
   40.5178   11.6487  -18.3921 C   0  0  0  0  0  0  0  0  0  0  0  0
   41.5784   12.0779  -17.4374 C   0  0  0  0  0  0  0  0  0  0  0  0
   42.8091   11.6554  -17.3932 O   0  0  0  0  0  0  0  0  0  0  0  0
   43.4863   12.2189  -16.4486 C   0  0  0  0  0  0  0  0  0  0  0  0
   44.8255   12.0708  -16.0511 C   0  0  0  0  0  0  0  0  0  0  0  0
   45.2499   12.8444  -14.9846 C   0  0  0  0  0  0  0  0  0  0  0  0
   44.4177   13.7331  -14.3161 C   0  0  0  0  0  0  0  0  0  0  0  0
   43.1149   13.8451  -14.7380 C   0  0  0  0  0  0  0  0  0  0  0  0
   42.6632   13.0887  -15.7971 C   0  0  0  0  0  0  0  0  0  0  0  0
   41.4166   13.0052  -16.4350 C   0  0  0  0  0  0  0  0  0  0  0  0
 18 19  1  0  0  0
 19 20  1  0  0  0
 20 21  1  0  0  0
 21 22  2  0  0  0
 22 23  1  0  0  0
 23 24  2  0  0  0
 24 25  1  0  0  0
 25 26  2  0  0  0
 26 27  1  0  0  0
 27 17  1  0  0  0
 17 16  1  0  0  0
 16  1  1  0  0  0
  1  2  1  0  0  0
  2  3  1  0  0  0
  3  4  1  0  0  0
  4  5  2  0  0  0
  5  6  1  0  0  0
  6  7  1  0  0  0
  7  8  1  0  0  0
  8  9  1  0  0  0
  9 10  1  0  0  0
 10 11  1  0  0  0
 11 12  1  0  0  0
 12 13  1  0  0  0
 13 14  1  0  0  0
 14 15  1  0  0  0
 27 19  2  0  0  0
 15  1  1  0  0  0
 26 21  1  0  0  0
 15  5  1  0  0  0
 12  7  1  0  0  0
M  END
> <minimizedAffinity>
-8.78711

> <CNNscore>
0.2509789765

> <CNNaffinity>
6.4899773598

> <CNN_VS>
1.6288478374

> <CNNaffinity_variance>
0.0489004329

$$$$
[H]C1=C2C([H])([H])N3C([H])([H])C([H])([H])C([H])([H])C([H])([H])C3([H])C([H])([H])C([H])([H])C2([H])N(C([H])([H])C([H])([H])c2c(C([H])([H])[H])oc3c([H])c([H])c([H])c([H])c23)C([H])([H])C1([H])[H]


 27 31  0  0  0  0  0  0  0  0999 V2000
   43.1562   13.6374  -15.8020 N   0  0  0  0  0  0  0  0  0  0  0  0
   44.2150   13.2780  -16.6782 C   0  0  0  0  0  0  0  0  0  0  0  0
   44.8670   11.9483  -16.1946 C   0  0  0  0  0  0  0  0  0  0  0  0
   45.6744   12.4084  -15.0269 C   0  0  0  0  0  0  0  0  0  0  0  0
   45.0752   13.3515  -14.2713 C   0  0  0  0  0  0  0  0  0  0  0  0
   45.9875   13.7354  -13.1339 C   0  0  0  0  0  0  0  0  0  0  0  0
   45.7868   13.0616  -11.9260 N   0  0  0  0  0  0  0  0  0  0  0  0
   46.6016   11.9354  -11.6162 C   0  0  0  0  0  0  0  0  0  0  0  0
   46.7473   11.9369  -10.0805 C   0  0  0  0  0  0  0  0  0  0  0  0
   45.3925   11.8419   -9.4533 C   0  0  0  0  0  0  0  0  0  0  0  0
   44.4012   12.8339  -10.0428 C   0  0  0  0  0  0  0  0  0  0  0  0
   44.4286   12.8082  -11.5609 C   0  0  0  0  0  0  0  0  0  0  0  0
   43.5058   13.8970  -12.0695 C   0  0  0  0  0  0  0  0  0  0  0  0
   42.8317   13.5447  -13.3712 C   0  0  0  0  0  0  0  0  0  0  0  0
   43.7354   13.9089  -14.5042 C   0  0  0  0  0  0  0  0  0  0  0  0
   42.0090   12.8451  -15.7982 C   0  0  0  0  0  0  0  0  0  0  0  0
   40.7194   13.2776  -16.3828 C   0  0  0  0  0  0  0  0  0  0  0  0
   38.9112   10.8119  -17.3437 C   0  0  0  0  0  0  0  0  0  0  0  0
   38.6864   11.6981  -16.1670 C   0  0  0  0  0  0  0  0  0  0  0  0
   37.7312   11.6036  -15.2873 O   0  0  0  0  0  0  0  0  0  0  0  0
   37.8059   12.5230  -14.3831 C   0  0  0  0  0  0  0  0  0  0  0  0
   37.0027   12.7896  -13.2619 C   0  0  0  0  0  0  0  0  0  0  0  0
   37.3679   13.8674  -12.4738 C   0  0  0  0  0  0  0  0  0  0  0  0
   38.4684   14.6684  -12.7503 C   0  0  0  0  0  0  0  0  0  0  0  0
   39.2254   14.3717  -13.8578 C   0  0  0  0  0  0  0  0  0  0  0  0
   38.8874   13.3049  -14.6614 C   0  0  0  0  0  0  0  0  0  0  0  0
   39.4694   12.7746  -15.8225 C   0  0  0  0  0  0  0  0  0  0  0  0
 18 19  1  0  0  0
 19 20  1  0  0  0
 20 21  1  0  0  0
 21 22  2  0  0  0
 22 23  1  0  0  0
 23 24  2  0  0  0
 24 25  1  0  0  0
 25 26  2  0  0  0
 26 27  1  0  0  0
 27 17  1  0  0  0
 17 16  1  0  0  0
 16  1  1  0  0  0
  1  2  1  0  0  0
  2  3  1  0  0  0
  3  4  1  0  0  0
  4  5  2  0  0  0
  5  6  1  0  0  0
  6  7  1  0  0  0
  7  8  1  0  0  0
  8  9  1  0  0  0
  9 10  1  0  0  0
 10 11  1  0  0  0
 11 12  1  0  0  0
 12 13  1  0  0  0
 13 14  1  0  0  0
 14 15  1  0  0  0
 27 19  2  0  0  0
 15  1  1  0  0  0
 26 21  1  0  0  0
 15  5  1  0  0  0
 12  7  1  0  0  0
M  END
> <minimizedAffinity>
-7.89699

> <CNNscore>
0.2507787049

> <CNNaffinity>
6.0917406082

> <CNN_VS>
1.5276788473

> <CNNaffinity_variance>
0.1392749846

$$$$
[H]C1=C2C([H])([H])N3C([H])([H])C([H])([H])C([H])([H])C([H])([H])C3([H])C([H])([H])C([H])([H])C2([H])N(C([H])([H])C([H])([H])c2c(C([H])([H])[H])oc3c([H])c([H])c([H])c([H])c23)C([H])([H])C1([H])[H]


 27 31  0  0  0  0  0  0  0  0999 V2000
   37.9285   14.5164  -13.6819 N   0  0  0  0  0  0  0  0  0  0  0  0
   39.1328   15.2399  -13.8924 C   0  0  0  0  0  0  0  0  0  0  0  0
   40.1048   14.9982  -12.6991 C   0  0  0  0  0  0  0  0  0  0  0  0
   39.5016   15.8510  -11.6334 C   0  0  0  0  0  0  0  0  0  0  0  0
   38.1530   15.8426  -11.6087 C   0  0  0  0  0  0  0  0  0  0  0  0
   37.6672   16.7408  -10.4995 C   0  0  0  0  0  0  0  0  0  0  0  0
   37.3988   16.1218   -9.2755 N   0  0  0  0  0  0  0  0  0  0  0  0
   38.3933   16.1395   -8.2563 C   0  0  0  0  0  0  0  0  0  0  0  0
   37.6207   16.1664   -6.9213 C   0  0  0  0  0  0  0  0  0  0  0  0
   36.7431   14.9583   -6.8314 C   0  0  0  0  0  0  0  0  0  0  0  0
   35.9177   14.7367   -8.0899 C   0  0  0  0  0  0  0  0  0  0  0  0
   36.7749   14.8377   -9.3392 C   0  0  0  0  0  0  0  0  0  0  0  0
   35.8670   14.7221  -10.5468 C   0  0  0  0  0  0  0  0  0  0  0  0
   36.5261   14.0479  -11.7234 C   0  0  0  0  0  0  0  0  0  0  0  0
   37.2869   15.0671  -12.5079 C   0  0  0  0  0  0  0  0  0  0  0  0
   37.9784   13.1246  -13.7469 C   0  0  0  0  0  0  0  0  0  0  0  0
   38.5584   12.3836  -14.8897 C   0  0  0  0  0  0  0  0  0  0  0  0
   39.3025   11.0782  -17.7208 C   0  0  0  0  0  0  0  0  0  0  0  0
   37.9485   11.2225  -17.1156 C   0  0  0  0  0  0  0  0  0  0  0  0
   36.8203   10.8039  -17.6129 O   0  0  0  0  0  0  0  0  0  0  0  0
   35.8161   11.0808  -16.8492 C   0  0  0  0  0  0  0  0  0  0  0  0
   34.4437   10.8149  -16.9875 C   0  0  0  0  0  0  0  0  0  0  0  0
   33.6173   11.2469  -15.9645 C   0  0  0  0  0  0  0  0  0  0  0  0
   34.0891   11.9153  -14.8420 C   0  0  0  0  0  0  0  0  0  0  0  0
   35.4387   12.1550  -14.7486 C   0  0  0  0  0  0  0  0  0  0  0  0
   36.2867   11.7368  -15.7506 C   0  0  0  0  0  0  0  0  0  0  0  0
   37.6766   11.8334  -15.9141 C   0  0  0  0  0  0  0  0  0  0  0  0
 18 19  1  0  0  0
 19 20  1  0  0  0
 20 21  1  0  0  0
 21 22  2  0  0  0
 22 23  1  0  0  0
 23 24  2  0  0  0
 24 25  1  0  0  0
 25 26  2  0  0  0
 26 27  1  0  0  0
 27 17  1  0  0  0
 17 16  1  0  0  0
 16  1  1  0  0  0
  1  2  1  0  0  0
  2  3  1  0  0  0
  3  4  1  0  0  0
  4  5  2  0  0  0
  5  6  1  0  0  0
  6  7  1  0  0  0
  7  8  1  0  0  0
  8  9  1  0  0  0
  9 10  1  0  0  0
 10 11  1  0  0  0
 11 12  1  0  0  0
 12 13  1  0  0  0
 13 14  1  0  0  0
 14 15  1  0  0  0
 27 19  2  0  0  0
 15  1  1  0  0  0
 26 21  1  0  0  0
 15  5  1  0  0  0
 12  7  1  0  0  0
M  END
> <minimizedAffinity>
-8.82918

> <CNNscore>
0.1989708990

> <CNNaffinity>
6.1427636147

> <CNN_VS>
1.2222311497

> <CNNaffinity_variance>
0.1386430562

$$$$
[H]C1=C2C([H])([H])N3C([H])([H])C([H])([H])C([H])([H])C([H])([H])C3([H])C([H])([H])C([H])([H])C2([H])N(C([H])([H])C([H])([H])c2c(C([H])([H])[H])oc3c([H])c([H])c([H])c([H])c23)C([H])([H])C1([H])[H]


 27 31  0  0  0  0  0  0  0  0999 V2000
   37.7435   14.9852  -12.8274 N   0  0  0  0  0  0  0  0  0  0  0  0
   39.0393   15.4264  -12.4475 C   0  0  0  0  0  0  0  0  0  0  0  0
   39.3079   15.0450  -10.9611 C   0  0  0  0  0  0  0  0  0  0  0  0
   38.4914   16.0585  -10.2310 C   0  0  0  0  0  0  0  0  0  0  0  0
   37.3031   16.3364  -10.8055 C   0  0  0  0  0  0  0  0  0  0  0  0
   36.5792   17.3716   -9.9824 C   0  0  0  0  0  0  0  0  0  0  0  0
   35.6733   16.8856   -9.0356 N   0  0  0  0  0  0  0  0  0  0  0  0
   36.0934   16.7439   -7.6822 C   0  0  0  0  0  0  0  0  0  0  0  0
   34.8355   17.0005   -6.8269 C   0  0  0  0  0  0  0  0  0  0  0  0
   33.7752   16.0112   -7.1943 C   0  0  0  0  0  0  0  0  0  0  0  0
   33.5652   15.9061   -8.6973 C   0  0  0  0  0  0  0  0  0  0  0  0
   34.8860   15.7608   -9.4322 C   0  0  0  0  0  0  0  0  0  0  0  0
   34.6041   15.7791  -10.9208 C   0  0  0  0  0  0  0  0  0  0  0  0
   35.5561   14.9227  -11.7166 C   0  0  0  0  0  0  0  0  0  0  0  0
   36.7816   15.7174  -12.0322 C   0  0  0  0  0  0  0  0  0  0  0  0
   37.5213   13.6129  -12.9325 C   0  0  0  0  0  0  0  0  0  0  0  0
   38.2812   12.7335  -13.8495 C   0  0  0  0  0  0  0  0  0  0  0  0
   39.6253   11.9152  -16.6418 C   0  0  0  0  0  0  0  0  0  0  0  0
   38.1835   11.8422  -16.2725 C   0  0  0  0  0  0  0  0  0  0  0  0
   37.2091   11.3905  -17.0084 O   0  0  0  0  0  0  0  0  0  0  0  0
   36.0684   11.4596  -16.4063 C   0  0  0  0  0  0  0  0  0  0  0  0
   34.7782   11.0846  -16.8164 C   0  0  0  0  0  0  0  0  0  0  0  0
   33.7512   11.2873  -15.9107 C   0  0  0  0  0  0  0  0  0  0  0  0
   33.9514   11.8344  -14.6498 C   0  0  0  0  0  0  0  0  0  0  0  0
   35.2297   12.1877  -14.2909 C   0  0  0  0  0  0  0  0  0  0  0  0
   36.2728   11.9976  -15.1705 C   0  0  0  0  0  0  0  0  0  0  0  0
   37.6494   12.2497  -15.0727 C   0  0  0  0  0  0  0  0  0  0  0  0
 18 19  1  0  0  0
 19 20  1  0  0  0
 20 21  1  0  0  0
 21 22  2  0  0  0
 22 23  1  0  0  0
 23 24  2  0  0  0
 24 25  1  0  0  0
 25 26  2  0  0  0
 26 27  1  0  0  0
 27 17  1  0  0  0
 17 16  1  0  0  0
 16  1  1  0  0  0
  1  2  1  0  0  0
  2  3  1  0  0  0
  3  4  1  0  0  0
  4  5  2  0  0  0
  5  6  1  0  0  0
  6  7  1  0  0  0
  7  8  1  0  0  0
  8  9  1  0  0  0
  9 10  1  0  0  0
 10 11  1  0  0  0
 11 12  1  0  0  0
 12 13  1  0  0  0
 13 14  1  0  0  0
 14 15  1  0  0  0
 27 19  2  0  0  0
 15  1  1  0  0  0
 26 21  1  0  0  0
 15  5  1  0  0  0
 12  7  1  0  0  0
M  END
> <minimizedAffinity>
-8.37723

> <CNNscore>
0.1986332685

> <CNNaffinity>
6.0805130005

> <CNN_VS>
1.2077921629

> <CNNaffinity_variance>
0.1282689720

$$$$
[H]c1nc(N([H])c2c([H])c([H])c(N3C([H])([H])C([H])([H])C([H])(N4C([H])([H])C([H])([H])N(C([H])([H])[H])C([H])([H])C4([H])[H])C([H])([H])C3([H])[H])c([H])c2OC([H])([H])[H])nc(N([H])c2c([H])c([H])c([H])c([H])c2S(=O)(=O)C([H])(C([H])([H])[H])C([H])([H])[H])c1Cl


 44 48  0  0  0  0  0  0  0  0999 V2000
   34.2723   14.7094  -13.6459 N   0  0  0  0  0  0  0  0  0  0  0  0
   33.4582   15.3465  -13.9660 H   0  0  0  0  0  0  0  0  0  0  0  0
   34.5159   13.5585  -14.4413 C   0  0  0  0  0  0  0  0  0  0  0  0
   33.6022   12.8621  -15.1221 N   0  0  0  0  0  0  0  0  0  0  0  0
   33.9017   11.7833  -15.8561 C   0  0  0  0  0  0  0  0  0  0  0  0
   35.2035   11.3467  -15.9326 C   0  0  0  0  0  0  0  0  0  0  0  0
   35.6163    9.9299  -16.8933 Cl  0  0  0  0  0  0  0  0  0  0  0  0
   36.1880   12.0648  -15.2227 C   0  0  0  0  0  0  0  0  0  0  0  0
   35.7893   13.1267  -14.5196 N   0  0  0  0  0  0  0  0  0  0  0  0
   37.5085   11.5998  -15.3191 N   0  0  0  0  0  0  0  0  0  0  0  0
   37.8218   10.9823  -14.4996 H   0  0  0  0  0  0  0  0  0  0  0  0
   38.4965   11.7960  -16.2958 C   0  0  0  0  0  0  0  0  0  0  0  0
   38.4570   11.0764  -17.4713 C   0  0  0  0  0  0  0  0  0  0  0  0
   39.4370   11.2594  -18.4555 C   0  0  0  0  0  0  0  0  0  0  0  0
   40.4347   12.1612  -18.2365 C   0  0  0  0  0  0  0  0  0  0  0  0
   40.4713   12.8782  -17.0620 C   0  0  0  0  0  0  0  0  0  0  0  0
   39.5259   12.7194  -16.0827 C   0  0  0  0  0  0  0  0  0  0  0  0
   39.5851   13.6212  -14.6255 S   0  0  0  0  0  0  0  0  0  0  0  0
   38.7670   12.9326  -13.5622 O   0  0  0  0  0  0  0  0  0  0  0  0
   39.0906   15.0359  -14.7422 O   0  0  0  0  0  0  0  0  0  0  0  0
   41.2356   13.7406  -13.9622 C   0  0  0  0  0  0  0  0  0  0  0  0
   42.2464   13.2904  -14.9664 C   0  0  0  0  0  0  0  0  0  0  0  0
   41.5209   15.0520  -13.3098 C   0  0  0  0  0  0  0  0  0  0  0  0
   34.1775   15.3806  -11.3410 C   0  0  0  0  0  0  0  0  0  0  0  0
   34.7643   15.8055  -10.1631 C   0  0  0  0  0  0  0  0  0  0  0  0
   36.1222   16.0106  -10.0606 C   0  0  0  0  0  0  0  0  0  0  0  0
   36.8608   15.7693  -11.1935 C   0  0  0  0  0  0  0  0  0  0  0  0
   36.2996   15.3394  -12.4000 C   0  0  0  0  0  0  0  0  0  0  0  0
   34.9458   15.1369  -12.4961 C   0  0  0  0  0  0  0  0  0  0  0  0
   36.7155   16.4431   -8.8333 N   0  0  0  0  0  0  0  0  0  0  0  0
   35.9625   16.3083   -7.6337 C   0  0  0  0  0  0  0  0  0  0  0  0
   36.7366   16.4386   -6.3520 C   0  0  0  0  0  0  0  0  0  0  0  0
   37.7381   17.5440   -6.3459 C   0  0  0  0  0  0  0  0  0  0  0  0
   38.0491   18.0689   -7.7333 C   0  0  0  0  0  0  0  0  0  0  0  0
   38.0413   17.0113   -8.7843 C   0  0  0  0  0  0  0  0  0  0  0  0
   38.9457   17.3247   -5.6550 N   0  0  0  0  0  0  0  0  0  0  0  0
   39.2981   16.0204   -5.2758 C   0  0  0  0  0  0  0  0  0  0  0  0
   40.4145   16.0740   -4.2291 C   0  0  0  0  0  0  0  0  0  0  0  0
   41.3938   17.0451   -4.6769 N   0  0  0  0  0  0  0  0  0  0  0  0
   42.1642   16.6248   -5.8034 C   0  0  0  0  0  0  0  0  0  0  0  0
   40.8822   18.3761   -4.7395 C   0  0  0  0  0  0  0  0  0  0  0  0
   39.3559   18.3233   -4.7207 C   0  0  0  0  0  0  0  0  0  0  0  0
   32.0015   15.8692  -10.4331 C   0  0  0  0  0  0  0  0  0  0  0  0
   32.8042   15.1941  -11.3744 O   0  0  0  0  0  0  0  0  0  0  0  0
 43 44  1  0  0  0
 44 24  1  0  0  0
 24 25  2  0  0  0
 25 26  1  0  0  0
 26 27  2  0  0  0
 27 28  1  0  0  0
 28 29  2  0  0  0
 29  1  1  0  0  0
  1  3  1  0  0  0
  3  4  2  0  0  0
  4  5  1  0  0  0
  5  6  2  0  0  0
  6  7  1  0  0  0
  6  8  1  0  0  0
  8 10  1  0  0  0
 10 12  1  0  0  0
 12 13  2  0  0  0
 13 14  1  0  0  0
 14 15  2  0  0  0
 15 16  1  0  0  0
 16 17  2  0  0  0
 17 18  1  0  0  0
 18 19  2  0  0  0
 18 20  2  0  0  0
 18 21  1  0  0  0
 21 22  1  0  0  0
 21 23  1  0  0  0
  8  9  2  0  0  0
 26 30  1  0  0  0
 30 31  1  0  0  0
 31 32  1  0  0  0
 32 33  1  0  0  0
 33 34  1  0  0  0
 34 35  1  0  0  0
 33 36  1  0  0  0
 36 37  1  0  0  0
 37 38  1  0  0  0
 38 39  1  0  0  0
 39 40  1  0  0  0
 39 41  1  0  0  0
 41 42  1  0  0  0
 29 24  1  0  0  0
  9  3  1  0  0  0
 35 30  1  0  0  0
 42 36  1  0  0  0
 17 12  1  0  0  0
  1  2  1  0  0  0
 10 11  1  0  0  0
M  END
> <minimizedAffinity>
-8.79163

> <CNNscore>
0.3268491030

> <CNNaffinity>
7.5633416176

> <CNN_VS>
2.4720714092

> <CNNaffinity_variance>
0.2782112062

$$$$
[H]c1nc(N([H])c2c([H])c([H])c(N3C([H])([H])C([H])([H])C([H])(N4C([H])([H])C([H])([H])N(C([H])([H])[H])C([H])([H])C4([H])[H])C([H])([H])C3([H])[H])c([H])c2OC([H])([H])[H])nc(N([H])c2c([H])c([H])c([H])c([H])c2S(=O)(=O)C([H])(C([H])([H])[H])C([H])([H])[H])c1Cl


 44 48  0  0  0  0  0  0  0  0999 V2000
   33.9668   14.2228  -13.6945 N   0  0  0  0  0  0  0  0  0  0  0  0
   33.1768   14.8732  -14.0466 H   0  0  0  0  0  0  0  0  0  0  0  0
   34.3169   13.1445  -14.5496 C   0  0  0  0  0  0  0  0  0  0  0  0
   33.4794   12.4411  -15.3158 N   0  0  0  0  0  0  0  0  0  0  0  0
   33.8782   11.4338  -16.1025 C   0  0  0  0  0  0  0  0  0  0  0  0
   35.2072   11.0830  -16.1455 C   0  0  0  0  0  0  0  0  0  0  0  0
   35.7501    9.7612  -17.1744 Cl  0  0  0  0  0  0  0  0  0  0  0  0
   36.1126   11.8105  -15.3456 C   0  0  0  0  0  0  0  0  0  0  0  0
   35.6174   12.7969  -14.5954 N   0  0  0  0  0  0  0  0  0  0  0  0
   37.4629   11.4338  -15.4093 N   0  0  0  0  0  0  0  0  0  0  0  0
   37.7672   10.7444  -14.6456 H   0  0  0  0  0  0  0  0  0  0  0  0
   38.4905   11.7958  -16.2933 C   0  0  0  0  0  0  0  0  0  0  0  0
   38.6627   11.1019  -17.4723 C   0  0  0  0  0  0  0  0  0  0  0  0
   39.6850   11.4498  -18.3646 C   0  0  0  0  0  0  0  0  0  0  0  0
   40.5115   12.4872  -18.0523 C   0  0  0  0  0  0  0  0  0  0  0  0
   40.3370   13.1782  -16.8746 C   0  0  0  0  0  0  0  0  0  0  0  0
   39.3455   12.8594  -15.9840 C   0  0  0  0  0  0  0  0  0  0  0  0
   39.1406   13.7309  -14.5216 S   0  0  0  0  0  0  0  0  0  0  0  0
   38.8245   12.7780  -13.3962 O   0  0  0  0  0  0  0  0  0  0  0  0
   38.0590   14.7740  -14.5586 O   0  0  0  0  0  0  0  0  0  0  0  0
   40.6218   14.5896  -14.0245 C   0  0  0  0  0  0  0  0  0  0  0  0
   40.3404   15.5250  -12.8939 C   0  0  0  0  0  0  0  0  0  0  0  0
   41.7958   13.6885  -13.8333 C   0  0  0  0  0  0  0  0  0  0  0  0
   33.7219   15.3568  -11.5906 C   0  0  0  0  0  0  0  0  0  0  0  0
   34.1809   15.7379  -10.3431 C   0  0  0  0  0  0  0  0  0  0  0  0
   35.4221   15.3624   -9.8797 C   0  0  0  0  0  0  0  0  0  0  0  0
   36.1784   14.5883  -10.7258 C   0  0  0  0  0  0  0  0  0  0  0  0
   35.7451   14.1857  -11.9929 C   0  0  0  0  0  0  0  0  0  0  0  0
   34.5072   14.5631  -12.4493 C   0  0  0  0  0  0  0  0  0  0  0  0
   35.8800   15.7582   -8.5839 N   0  0  0  0  0  0  0  0  0  0  0  0
   35.5144   17.0458   -8.1015 C   0  0  0  0  0  0  0  0  0  0  0  0
   35.7096   17.2775   -6.6294 C   0  0  0  0  0  0  0  0  0  0  0  0
   36.9910   16.7417   -6.0852 C   0  0  0  0  0  0  0  0  0  0  0  0
   37.6616   15.7515   -7.0162 C   0  0  0  0  0  0  0  0  0  0  0  0
   36.6987   14.8953   -7.7665 C   0  0  0  0  0  0  0  0  0  0  0  0
   36.9724   16.2085   -4.7817 N   0  0  0  0  0  0  0  0  0  0  0  0
   36.1177   16.7665   -3.8188 C   0  0  0  0  0  0  0  0  0  0  0  0
   36.5424   16.3001   -2.4234 C   0  0  0  0  0  0  0  0  0  0  0  0
   36.8089   14.8766   -2.4953 N   0  0  0  0  0  0  0  0  0  0  0  0
   35.6423   14.0687   -2.6551 C   0  0  0  0  0  0  0  0  0  0  0  0
   37.9086   14.5498   -3.3445 C   0  0  0  0  0  0  0  0  0  0  0  0
   38.2121   15.7440   -4.2468 C   0  0  0  0  0  0  0  0  0  0  0  0
   31.3294   15.2350  -11.3484 C   0  0  0  0  0  0  0  0  0  0  0  0
   32.4618   15.7702  -11.9944 O   0  0  0  0  0  0  0  0  0  0  0  0
 43 44  1  0  0  0
 44 24  1  0  0  0
 24 25  2  0  0  0
 25 26  1  0  0  0
 26 27  2  0  0  0
 27 28  1  0  0  0
 28 29  2  0  0  0
 29  1  1  0  0  0
  1  3  1  0  0  0
  3  4  2  0  0  0
  4  5  1  0  0  0
  5  6  2  0  0  0
  6  7  1  0  0  0
  6  8  1  0  0  0
  8 10  1  0  0  0
 10 12  1  0  0  0
 12 13  2  0  0  0
 13 14  1  0  0  0
 14 15  2  0  0  0
 15 16  1  0  0  0
 16 17  2  0  0  0
 17 18  1  0  0  0
 18 19  2  0  0  0
 18 20  2  0  0  0
 18 21  1  0  0  0
 21 22  1  0  0  0
 21 23  1  0  0  0
  8  9  2  0  0  0
 26 30  1  0  0  0
 30 31  1  0  0  0
 31 32  1  0  0  0
 32 33  1  0  0  0
 33 34  1  0  0  0
 34 35  1  0  0  0
 33 36  1  0  0  0
 36 37  1  0  0  0
 37 38  1  0  0  0
 38 39  1  0  0  0
 39 40  1  0  0  0
 39 41  1  0  0  0
 41 42  1  0  0  0
 29 24  1  0  0  0
  9  3  1  0  0  0
 35 30  1  0  0  0
 42 36  1  0  0  0
 17 12  1  0  0  0
  1  2  1  0  0  0
 10 11  1  0  0  0
M  END
> <minimizedAffinity>
-8.79259

> <CNNscore>
0.2879383564

> <CNNaffinity>
7.4586319923

> <CNN_VS>
2.1476261616

> <CNNaffinity_variance>
0.1995829791

$$$$
[H]c1nc(N([H])c2c([H])c([H])c(N3C([H])([H])C([H])([H])C([H])(N4C([H])([H])C([H])([H])N(C([H])([H])[H])C([H])([H])C4([H])[H])C([H])([H])C3([H])[H])c([H])c2OC([H])([H])[H])nc(N([H])c2c([H])c([H])c([H])c([H])c2S(=O)(=O)C([H])(C([H])([H])[H])C([H])([H])[H])c1Cl


 44 48  0  0  0  0  0  0  0  0999 V2000
   34.1341   14.9393  -13.8405 N   0  0  0  0  0  0  0  0  0  0  0  0
   34.2674   15.8298  -14.4409 H   0  0  0  0  0  0  0  0  0  0  0  0
   34.3319   13.7007  -14.5062 C   0  0  0  0  0  0  0  0  0  0  0  0
   33.3839   12.9480  -15.0702 N   0  0  0  0  0  0  0  0  0  0  0  0
   33.6409   11.7869  -15.6853 C   0  0  0  0  0  0  0  0  0  0  0  0
   34.9326   11.3205  -15.7563 C   0  0  0  0  0  0  0  0  0  0  0  0
   35.2896    9.7957  -16.5615 Cl  0  0  0  0  0  0  0  0  0  0  0  0
   35.9526   12.0969  -15.1684 C   0  0  0  0  0  0  0  0  0  0  0  0
   35.5952   13.2394  -14.5786 N   0  0  0  0  0  0  0  0  0  0  0  0
   37.2619   11.5996  -15.2566 N   0  0  0  0  0  0  0  0  0  0  0  0
   37.5314   10.9193  -14.4720 H   0  0  0  0  0  0  0  0  0  0  0  0
   38.2857   11.8310  -16.1876 C   0  0  0  0  0  0  0  0  0  0  0  0
   38.3421   11.0905  -17.3494 C   0  0  0  0  0  0  0  0  0  0  0  0
   39.3590   11.3082  -18.2880 C   0  0  0  0  0  0  0  0  0  0  0  0
   40.2965   12.2649  -18.0383 C   0  0  0  0  0  0  0  0  0  0  0  0
   40.2375   13.0027  -16.8776 C   0  0  0  0  0  0  0  0  0  0  0  0
   39.2541   12.8108  -15.9427 C   0  0  0  0  0  0  0  0  0  0  0  0
   39.1940   13.7392  -14.5023 S   0  0  0  0  0  0  0  0  0  0  0  0
   38.8447   12.8519  -13.3340 O   0  0  0  0  0  0  0  0  0  0  0  0
   38.2095   14.8747  -14.5278 O   0  0  0  0  0  0  0  0  0  0  0  0
   40.7669   14.4738  -14.0965 C   0  0  0  0  0  0  0  0  0  0  0  0
   40.6411   15.3827  -12.9172 C   0  0  0  0  0  0  0  0  0  0  0  0
   41.8842   13.4869  -14.0283 C   0  0  0  0  0  0  0  0  0  0  0  0
   34.8338   15.3984  -11.5884 C   0  0  0  0  0  0  0  0  0  0  0  0
   34.5789   15.6334  -10.2497 C   0  0  0  0  0  0  0  0  0  0  0  0
   33.2970   15.6548   -9.7470 C   0  0  0  0  0  0  0  0  0  0  0  0
   32.2861   15.4300  -10.6496 C   0  0  0  0  0  0  0  0  0  0  0  0
   32.5087   15.1892  -12.0090 C   0  0  0  0  0  0  0  0  0  0  0  0
   33.7884   15.1689  -12.5040 C   0  0  0  0  0  0  0  0  0  0  0  0
   33.0489   15.9066   -8.3612 N   0  0  0  0  0  0  0  0  0  0  0  0
   32.0384   15.1486   -7.7064 C   0  0  0  0  0  0  0  0  0  0  0  0
   32.0532   15.1901   -6.2042 C   0  0  0  0  0  0  0  0  0  0  0  0
   32.2987   16.5435   -5.6269 C   0  0  0  0  0  0  0  0  0  0  0  0
   32.8557   17.5262   -6.6374 C   0  0  0  0  0  0  0  0  0  0  0  0
   33.7861   16.9029   -7.6218 C   0  0  0  0  0  0  0  0  0  0  0  0
   33.0593   16.6186   -4.4439 N   0  0  0  0  0  0  0  0  0  0  0  0
   33.6144   15.4485   -3.9036 C   0  0  0  0  0  0  0  0  0  0  0  0
   34.0480   15.7062   -2.4577 C   0  0  0  0  0  0  0  0  0  0  0  0
   34.7370   16.9815   -2.4235 N   0  0  0  0  0  0  0  0  0  0  0  0
   36.0234   16.9701   -3.0435 C   0  0  0  0  0  0  0  0  0  0  0  0
   33.8982   18.0863   -2.7599 C   0  0  0  0  0  0  0  0  0  0  0  0
   32.6440   17.5638   -3.4576 C   0  0  0  0  0  0  0  0  0  0  0  0
   37.1849   15.3212  -11.0746 C   0  0  0  0  0  0  0  0  0  0  0  0
   36.1487   15.3907  -12.0273 O   0  0  0  0  0  0  0  0  0  0  0  0
 43 44  1  0  0  0
 44 24  1  0  0  0
 24 25  2  0  0  0
 25 26  1  0  0  0
 26 27  2  0  0  0
 27 28  1  0  0  0
 28 29  2  0  0  0
 29  1  1  0  0  0
  1  3  1  0  0  0
  3  4  2  0  0  0
  4  5  1  0  0  0
  5  6  2  0  0  0
  6  7  1  0  0  0
  6  8  1  0  0  0
  8 10  1  0  0  0
 10 12  1  0  0  0
 12 13  2  0  0  0
 13 14  1  0  0  0
 14 15  2  0  0  0
 15 16  1  0  0  0
 16 17  2  0  0  0
 17 18  1  0  0  0
 18 19  2  0  0  0
 18 20  2  0  0  0
 18 21  1  0  0  0
 21 22  1  0  0  0
 21 23  1  0  0  0
  8  9  2  0  0  0
 26 30  1  0  0  0
 30 31  1  0  0  0
 31 32  1  0  0  0
 32 33  1  0  0  0
 33 34  1  0  0  0
 34 35  1  0  0  0
 33 36  1  0  0  0
 36 37  1  0  0  0
 37 38  1  0  0  0
 38 39  1  0  0  0
 39 40  1  0  0  0
 39 41  1  0  0  0
 41 42  1  0  0  0
 29 24  1  0  0  0
  9  3  1  0  0  0
 35 30  1  0  0  0
 42 36  1  0  0  0
 17 12  1  0  0  0
  1  2  1  0  0  0
 10 11  1  0  0  0
M  END
> <minimizedAffinity>
-8.51894

> <CNNscore>
0.2862206101

> <CNNaffinity>
7.2870736122

> <CNN_VS>
2.0857107639

> <CNNaffinity_variance>
0.1007100344

$$$$
[H]c1nc(N([H])c2c([H])c([H])c(N3C([H])([H])C([H])([H])C([H])(N4C([H])([H])C([H])([H])N(C([H])([H])[H])C([H])([H])C4([H])[H])C([H])([H])C3([H])[H])c([H])c2OC([H])([H])[H])nc(N([H])c2c([H])c([H])c([H])c([H])c2S(=O)(=O)C([H])(C([H])([H])[H])C([H])([H])[H])c1Cl


 44 48  0  0  0  0  0  0  0  0999 V2000
   34.2872   14.9320  -13.4951 N   0  0  0  0  0  0  0  0  0  0  0  0
   33.9951   15.8226  -14.0361 H   0  0  0  0  0  0  0  0  0  0  0  0
   34.4501   13.7540  -14.2712 C   0  0  0  0  0  0  0  0  0  0  0  0
   33.4835   13.0907  -14.9109 N   0  0  0  0  0  0  0  0  0  0  0  0
   33.7076   11.9830  -15.6288 C   0  0  0  0  0  0  0  0  0  0  0  0
   34.9833   11.4797  -15.7315 C   0  0  0  0  0  0  0  0  0  0  0  0
   35.2970   10.0242  -16.6716 Cl  0  0  0  0  0  0  0  0  0  0  0  0
   36.0223   12.1618  -15.0652 C   0  0  0  0  0  0  0  0  0  0  0  0
   35.6975   13.2568  -14.3751 N   0  0  0  0  0  0  0  0  0  0  0  0
   37.3147   11.6286  -15.1877 N   0  0  0  0  0  0  0  0  0  0  0  0
   37.5676   10.9031  -14.4389 H   0  0  0  0  0  0  0  0  0  0  0  0
   38.3392   11.8726  -16.1147 C   0  0  0  0  0  0  0  0  0  0  0  0
   38.4125   11.1290  -17.2736 C   0  0  0  0  0  0  0  0  0  0  0  0
   39.4303   11.3591  -18.2082 C   0  0  0  0  0  0  0  0  0  0  0  0
   40.3518   12.3310  -17.9575 C   0  0  0  0  0  0  0  0  0  0  0  0
   40.2758   13.0718  -16.7998 C   0  0  0  0  0  0  0  0  0  0  0  0
   39.2912   12.8681  -15.8687 C   0  0  0  0  0  0  0  0  0  0  0  0
   39.2099   13.8004  -14.4320 S   0  0  0  0  0  0  0  0  0  0  0  0
   38.9011   12.9068  -13.2571 O   0  0  0  0  0  0  0  0  0  0  0  0
   38.1861   14.9007  -14.4545 O   0  0  0  0  0  0  0  0  0  0  0  0
   40.7592   14.5914  -14.0420 C   0  0  0  0  0  0  0  0  0  0  0  0
   40.5899   15.5730  -12.9282 C   0  0  0  0  0  0  0  0  0  0  0  0
   41.8930   13.6338  -13.8851 C   0  0  0  0  0  0  0  0  0  0  0  0
   33.3099   15.3987  -11.3506 C   0  0  0  0  0  0  0  0  0  0  0  0
   33.3874   15.5814   -9.9821 C   0  0  0  0  0  0  0  0  0  0  0  0
   34.5810   15.4823   -9.3023 C   0  0  0  0  0  0  0  0  0  0  0  0
   35.6897   15.1916  -10.0595 C   0  0  0  0  0  0  0  0  0  0  0  0
   35.6465   15.0011  -11.4442 C   0  0  0  0  0  0  0  0  0  0  0  0
   34.4542   15.1013  -12.1161 C   0  0  0  0  0  0  0  0  0  0  0  0
   34.6440   15.6666   -7.8854 N   0  0  0  0  0  0  0  0  0  0  0  0
   35.1350   14.5973   -7.0855 C   0  0  0  0  0  0  0  0  0  0  0  0
   35.5120   14.9500   -5.6740 C   0  0  0  0  0  0  0  0  0  0  0  0
   34.5496   15.8596   -4.9874 C   0  0  0  0  0  0  0  0  0  0  0  0
   33.5981   16.5474   -5.9458 C   0  0  0  0  0  0  0  0  0  0  0  0
   34.2214   16.8943   -7.2552 C   0  0  0  0  0  0  0  0  0  0  0  0
   35.0782   16.8153   -4.0980 N   0  0  0  0  0  0  0  0  0  0  0  0
   36.4695   16.9609   -3.9868 C   0  0  0  0  0  0  0  0  0  0  0  0
   36.8032   17.7508   -2.7181 C   0  0  0  0  0  0  0  0  0  0  0  0
   35.8950   18.8791   -2.6483 N   0  0  0  0  0  0  0  0  0  0  0  0
   36.1481   19.8967   -3.6176 C   0  0  0  0  0  0  0  0  0  0  0  0
   34.5285   18.4961   -2.4961 C   0  0  0  0  0  0  0  0  0  0  0  0
   34.3807   17.0226   -2.8696 C   0  0  0  0  0  0  0  0  0  0  0  0
   30.9172   15.1453  -11.2581 C   0  0  0  0  0  0  0  0  0  0  0  0
   32.0757   15.5129  -11.9715 O   0  0  0  0  0  0  0  0  0  0  0  0
 43 44  1  0  0  0
 44 24  1  0  0  0
 24 25  2  0  0  0
 25 26  1  0  0  0
 26 27  2  0  0  0
 27 28  1  0  0  0
 28 29  2  0  0  0
 29  1  1  0  0  0
  1  3  1  0  0  0
  3  4  2  0  0  0
  4  5  1  0  0  0
  5  6  2  0  0  0
  6  7  1  0  0  0
  6  8  1  0  0  0
  8 10  1  0  0  0
 10 12  1  0  0  0
 12 13  2  0  0  0
 13 14  1  0  0  0
 14 15  2  0  0  0
 15 16  1  0  0  0
 16 17  2  0  0  0
 17 18  1  0  0  0
 18 19  2  0  0  0
 18 20  2  0  0  0
 18 21  1  0  0  0
 21 22  1  0  0  0
 21 23  1  0  0  0
  8  9  2  0  0  0
 26 30  1  0  0  0
 30 31  1  0  0  0
 31 32  1  0  0  0
 32 33  1  0  0  0
 33 34  1  0  0  0
 34 35  1  0  0  0
 33 36  1  0  0  0
 36 37  1  0  0  0
 37 38  1  0  0  0
 38 39  1  0  0  0
 39 40  1  0  0  0
 39 41  1  0  0  0
 41 42  1  0  0  0
 29 24  1  0  0  0
  9  3  1  0  0  0
 35 30  1  0  0  0
 42 36  1  0  0  0
 17 12  1  0  0  0
  1  2  1  0  0  0
 10 11  1  0  0  0
M  END
> <minimizedAffinity>
-8.26115

> <CNNscore>
0.2427086681

> <CNNaffinity>
7.2720870972

> <CNN_VS>
1.7649985552

> <CNNaffinity_variance>
0.1347934604

$$$$
[H]c1nc(N([H])c2c([H])c([H])c(N3C([H])([H])C([H])([H])C([H])(N4C([H])([H])C([H])([H])N(C([H])([H])[H])C([H])([H])C4([H])[H])C([H])([H])C3([H])[H])c([H])c2OC([H])([H])[H])nc(N([H])c2c([H])c([H])c([H])c([H])c2S(=O)(=O)C([H])(C([H])([H])[H])C([H])([H])[H])c1Cl


 44 48  0  0  0  0  0  0  0  0999 V2000
   33.4102   14.8433  -13.1698 N   0  0  0  0  0  0  0  0  0  0  0  0
   32.5513   15.2956  -13.6483 H   0  0  0  0  0  0  0  0  0  0  0  0
   34.1497   13.9200  -13.9554 C   0  0  0  0  0  0  0  0  0  0  0  0
   33.6484   12.8939  -14.6475 N   0  0  0  0  0  0  0  0  0  0  0  0
   34.4054   12.0598  -15.3712 C   0  0  0  0  0  0  0  0  0  0  0  0
   35.7674   12.2423  -15.4241 C   0  0  0  0  0  0  0  0  0  0  0  0
   36.7789   11.1554  -16.3708 Cl  0  0  0  0  0  0  0  0  0  0  0  0
   36.3221   13.3190  -14.7018 C   0  0  0  0  0  0  0  0  0  0  0  0
   35.4842   14.0943  -14.0106 N   0  0  0  0  0  0  0  0  0  0  0  0
   37.7138   13.4842  -14.7741 N   0  0  0  0  0  0  0  0  0  0  0  0
   38.1791   12.9707  -15.5931 H   0  0  0  0  0  0  0  0  0  0  0  0
   38.6100   14.2017  -13.9675 C   0  0  0  0  0  0  0  0  0  0  0  0
   38.1461   14.8994  -12.8725 C   0  0  0  0  0  0  0  0  0  0  0  0
   39.0277   15.6221  -12.0584 C   0  0  0  0  0  0  0  0  0  0  0  0
   40.3559   15.6277  -12.3628 C   0  0  0  0  0  0  0  0  0  0  0  0
   40.8161   14.9300  -13.4566 C   0  0  0  0  0  0  0  0  0  0  0  0
   39.9762   14.2149  -14.2697 C   0  0  0  0  0  0  0  0  0  0  0  0
   40.5656   13.3501  -15.6279 S   0  0  0  0  0  0  0  0  0  0  0  0
   40.5721   14.2442  -16.8423 O   0  0  0  0  0  0  0  0  0  0  0  0
   39.7842   12.1129  -15.9718 O   0  0  0  0  0  0  0  0  0  0  0  0
   42.2519   12.8119  -15.4163 C   0  0  0  0  0  0  0  0  0  0  0  0
   42.7821   12.2141  -16.6789 C   0  0  0  0  0  0  0  0  0  0  0  0
   43.1273   13.8370  -14.7760 C   0  0  0  0  0  0  0  0  0  0  0  0
   32.5194   15.5498  -11.0533 C   0  0  0  0  0  0  0  0  0  0  0  0
   32.6594   15.9611   -9.7405 C   0  0  0  0  0  0  0  0  0  0  0  0
   33.8960   16.0999   -9.1506 C   0  0  0  0  0  0  0  0  0  0  0  0
   34.9821   15.8069   -9.9389 C   0  0  0  0  0  0  0  0  0  0  0  0
   34.8761   15.3889  -11.2692 C   0  0  0  0  0  0  0  0  0  0  0  0
   33.6411   15.2525  -11.8517 C   0  0  0  0  0  0  0  0  0  0  0  0
   34.0245   16.5191   -7.7893 N   0  0  0  0  0  0  0  0  0  0  0  0
   33.2277   15.8718   -6.8041 C   0  0  0  0  0  0  0  0  0  0  0  0
   33.6416   16.0886   -5.3757 C   0  0  0  0  0  0  0  0  0  0  0  0
   34.0263   17.4928   -5.0512 C   0  0  0  0  0  0  0  0  0  0  0  0
   34.2903   18.3343   -6.2838 C   0  0  0  0  0  0  0  0  0  0  0  0
   34.9278   17.5741   -7.3969 C   0  0  0  0  0  0  0  0  0  0  0  0
   35.0739   17.6846   -4.1296 N   0  0  0  0  0  0  0  0  0  0  0  0
   35.9681   16.6344   -3.8713 C   0  0  0  0  0  0  0  0  0  0  0  0
   36.7528   16.9317   -2.5904 C   0  0  0  0  0  0  0  0  0  0  0  0
   37.1754   18.3178   -2.6426 N   0  0  0  0  0  0  0  0  0  0  0  0
   38.2017   18.5825   -3.5995 C   0  0  0  0  0  0  0  0  0  0  0  0
   36.0870   19.2412   -2.6316 C   0  0  0  0  0  0  0  0  0  0  0  0
   34.8012   18.4983   -2.9886 C   0  0  0  0  0  0  0  0  0  0  0  0
   30.3425   14.5223  -10.9954 C   0  0  0  0  0  0  0  0  0  0  0  0
   31.2444   15.4311  -11.5844 O   0  0  0  0  0  0  0  0  0  0  0  0
 43 44  1  0  0  0
 44 24  1  0  0  0
 24 25  2  0  0  0
 25 26  1  0  0  0
 26 27  2  0  0  0
 27 28  1  0  0  0
 28 29  2  0  0  0
 29  1  1  0  0  0
  1  3  1  0  0  0
  3  4  2  0  0  0
  4  5  1  0  0  0
  5  6  2  0  0  0
  6  7  1  0  0  0
  6  8  1  0  0  0
  8 10  1  0  0  0
 10 12  1  0  0  0
 12 13  2  0  0  0
 13 14  1  0  0  0
 14 15  2  0  0  0
 15 16  1  0  0  0
 16 17  2  0  0  0
 17 18  1  0  0  0
 18 19  2  0  0  0
 18 20  2  0  0  0
 18 21  1  0  0  0
 21 22  1  0  0  0
 21 23  1  0  0  0
  8  9  2  0  0  0
 26 30  1  0  0  0
 30 31  1  0  0  0
 31 32  1  0  0  0
 32 33  1  0  0  0
 33 34  1  0  0  0
 34 35  1  0  0  0
 33 36  1  0  0  0
 36 37  1  0  0  0
 37 38  1  0  0  0
 38 39  1  0  0  0
 39 40  1  0  0  0
 39 41  1  0  0  0
 41 42  1  0  0  0
 29 24  1  0  0  0
  9  3  1  0  0  0
 35 30  1  0  0  0
 42 36  1  0  0  0
 17 12  1  0  0  0
  1  2  1  0  0  0
 10 11  1  0  0  0
M  END
> <minimizedAffinity>
-8.85239

> <CNNscore>
0.1740900129

> <CNNaffinity>
7.2376556396

> <CNN_VS>
1.2600035667

> <CNNaffinity_variance>
0.0992006809

$$$$
[H]c1nc(N([H])c2c([H])c([H])c(N3C([H])([H])C([H])([H])C([H])(N4C([H])([H])C([H])([H])N(C([H])([H])[H])C([H])([H])C4([H])[H])C([H])([H])C3([H])[H])c([H])c2OC([H])([H])[H])nc(N([H])c2c([H])c([H])c([H])c([H])c2S(=O)(=O)C([H])(C([H])([H])[H])C([H])([H])[H])c1Cl


 44 48  0  0  0  0  0  0  0  0999 V2000
   41.1395   12.8688  -15.8758 N   0  0  0  0  0  0  0  0  0  0  0  0
   40.6746   12.3778  -16.7208 H   0  0  0  0  0  0  0  0  0  0  0  0
   42.5582   12.8275  -15.8312 C   0  0  0  0  0  0  0  0  0  0  0  0
   43.3554   12.1699  -16.6770 N   0  0  0  0  0  0  0  0  0  0  0  0
   44.6905   12.1746  -16.5778 C   0  0  0  0  0  0  0  0  0  0  0  0
   45.2999   12.8810  -15.5674 C   0  0  0  0  0  0  0  0  0  0  0  0
   47.0546   12.8989  -15.4213 Cl  0  0  0  0  0  0  0  0  0  0  0  0
   44.4803   13.5843  -14.6605 C   0  0  0  0  0  0  0  0  0  0  0  0
   43.1601   13.5177  -14.8435 N   0  0  0  0  0  0  0  0  0  0  0  0
   45.1270   14.2986  -13.6402 N   0  0  0  0  0  0  0  0  0  0  0  0
   45.5631   13.6838  -12.8768 H   0  0  0  0  0  0  0  0  0  0  0  0
   45.3077   15.6749  -13.4369 C   0  0  0  0  0  0  0  0  0  0  0  0
   45.9839   16.4279  -14.3735 C   0  0  0  0  0  0  0  0  0  0  0  0
   46.1742   17.8027  -14.1842 C   0  0  0  0  0  0  0  0  0  0  0  0
   45.6811   18.3904  -13.0581 C   0  0  0  0  0  0  0  0  0  0  0  0
   45.0063   17.6362  -12.1250 C   0  0  0  0  0  0  0  0  0  0  0  0
   44.8058   16.2900  -12.2846 C   0  0  0  0  0  0  0  0  0  0  0  0
   43.9620   15.3647  -11.1133 S   0  0  0  0  0  0  0  0  0  0  0  0
   44.9354   14.5276  -10.3220 O   0  0  0  0  0  0  0  0  0  0  0  0
   42.9150   14.4443  -11.6754 O   0  0  0  0  0  0  0  0  0  0  0  0
   43.1178   16.3821   -9.9173 C   0  0  0  0  0  0  0  0  0  0  0  0
   41.6574   16.0673   -9.8873 C   0  0  0  0  0  0  0  0  0  0  0  0
   43.7923   16.4198   -8.5867 C   0  0  0  0  0  0  0  0  0  0  0  0
   38.9849   12.8686  -14.8129 C   0  0  0  0  0  0  0  0  0  0  0  0
   38.0492   13.3916  -13.9392 C   0  0  0  0  0  0  0  0  0  0  0  0
   38.3084   14.5130  -13.1831 C   0  0  0  0  0  0  0  0  0  0  0  0
   39.5480   15.0826  -13.3451 C   0  0  0  0  0  0  0  0  0  0  0  0
   40.5166   14.5798  -14.2195 C   0  0  0  0  0  0  0  0  0  0  0  0
   40.2525   13.4620  -14.9704 C   0  0  0  0  0  0  0  0  0  0  0  0
   37.3332   15.0379  -12.2781 N   0  0  0  0  0  0  0  0  0  0  0  0
   35.9565   14.8740  -12.5977 C   0  0  0  0  0  0  0  0  0  0  0  0
   34.9865   15.1165  -11.4757 C   0  0  0  0  0  0  0  0  0  0  0  0
   35.3003   16.3086  -10.6357 C   0  0  0  0  0  0  0  0  0  0  0  0
   36.7158   16.8141  -10.8304 C   0  0  0  0  0  0  0  0  0  0  0  0
   37.7080   15.7264  -11.0663 C   0  0  0  0  0  0  0  0  0  0  0  0
   35.0273   16.2235   -9.2566 N   0  0  0  0  0  0  0  0  0  0  0  0
   33.7376   15.8744   -8.8275 C   0  0  0  0  0  0  0  0  0  0  0  0
   33.5790   16.2199   -7.3442 C   0  0  0  0  0  0  0  0  0  0  0  0
   34.7749   15.7738   -6.6561 N   0  0  0  0  0  0  0  0  0  0  0  0
   34.8921   14.3551   -6.5434 C   0  0  0  0  0  0  0  0  0  0  0  0
   35.9552   16.4608   -7.0712 C   0  0  0  0  0  0  0  0  0  0  0  0
   35.6815   17.1606   -8.4008 C   0  0  0  0  0  0  0  0  0  0  0  0
   37.4847   11.7452  -16.3246 C   0  0  0  0  0  0  0  0  0  0  0  0
   38.6579   11.7369  -15.5437 O   0  0  0  0  0  0  0  0  0  0  0  0
 43 44  1  0  0  0
 44 24  1  0  0  0
 24 25  2  0  0  0
 25 26  1  0  0  0
 26 27  2  0  0  0
 27 28  1  0  0  0
 28 29  2  0  0  0
 29  1  1  0  0  0
  1  3  1  0  0  0
  3  4  2  0  0  0
  4  5  1  0  0  0
  5  6  2  0  0  0
  6  7  1  0  0  0
  6  8  1  0  0  0
  8 10  1  0  0  0
 10 12  1  0  0  0
 12 13  2  0  0  0
 13 14  1  0  0  0
 14 15  2  0  0  0
 15 16  1  0  0  0
 16 17  2  0  0  0
 17 18  1  0  0  0
 18 19  2  0  0  0
 18 20  2  0  0  0
 18 21  1  0  0  0
 21 22  1  0  0  0
 21 23  1  0  0  0
  8  9  2  0  0  0
 26 30  1  0  0  0
 30 31  1  0  0  0
 31 32  1  0  0  0
 32 33  1  0  0  0
 33 34  1  0  0  0
 34 35  1  0  0  0
 33 36  1  0  0  0
 36 37  1  0  0  0
 37 38  1  0  0  0
 38 39  1  0  0  0
 39 40  1  0  0  0
 39 41  1  0  0  0
 41 42  1  0  0  0
 29 24  1  0  0  0
  9  3  1  0  0  0
 35 30  1  0  0  0
 42 36  1  0  0  0
 17 12  1  0  0  0
  1  2  1  0  0  0
 10 11  1  0  0  0
M  END
> <minimizedAffinity>
-8.25288

> <CNNscore>
0.0631211177

> <CNNaffinity>
6.6328330040

> <CNN_VS>
0.4186718464

> <CNNaffinity_variance>
0.7367760539

$$$$
[H]c1nc(N([H])c2c([H])c([H])c(N3C([H])([H])C([H])([H])C([H])(N4C([H])([H])C([H])([H])N(C([H])([H])[H])C([H])([H])C4([H])[H])C([H])([H])C3([H])[H])c([H])c2OC([H])([H])[H])nc(N([H])c2c([H])c([H])c([H])c([H])c2S(=O)(=O)C([H])(C([H])([H])[H])C([H])([H])[H])c1Cl


 44 48  0  0  0  0  0  0  0  0999 V2000
   41.2889   12.9865  -15.7756 N   0  0  0  0  0  0  0  0  0  0  0  0
   40.8311   12.5185  -16.6374 H   0  0  0  0  0  0  0  0  0  0  0  0
   42.7070   12.9412  -15.7190 C   0  0  0  0  0  0  0  0  0  0  0  0
   43.5191   12.4537  -16.6603 N   0  0  0  0  0  0  0  0  0  0  0  0
   44.8528   12.4432  -16.5426 C   0  0  0  0  0  0  0  0  0  0  0  0
   45.4445   12.9518  -15.4102 C   0  0  0  0  0  0  0  0  0  0  0  0
   47.1969   12.9466  -15.2380 Cl  0  0  0  0  0  0  0  0  0  0  0  0
   44.6089   13.4728  -14.4007 C   0  0  0  0  0  0  0  0  0  0  0  0
   43.2917   13.4380  -14.6119 N   0  0  0  0  0  0  0  0  0  0  0  0
   45.2378   13.9872  -13.2565 N   0  0  0  0  0  0  0  0  0  0  0  0
   46.3053   13.8800  -13.2514 H   0  0  0  0  0  0  0  0  0  0  0  0
   44.7225   14.6187  -12.1145 C   0  0  0  0  0  0  0  0  0  0  0  0
   43.9847   13.8966  -11.2005 C   0  0  0  0  0  0  0  0  0  0  0  0
   43.4618   14.5129  -10.0563 C   0  0  0  0  0  0  0  0  0  0  0  0
   43.6919   15.8409   -9.8560 C   0  0  0  0  0  0  0  0  0  0  0  0
   44.4291   16.5591  -10.7702 C   0  0  0  0  0  0  0  0  0  0  0  0
   44.9522   15.9818  -11.8976 C   0  0  0  0  0  0  0  0  0  0  0  0
   45.8694   16.8902  -13.0262 S   0  0  0  0  0  0  0  0  0  0  0  0
   45.1887   16.8747  -14.3717 O   0  0  0  0  0  0  0  0  0  0  0  0
   47.2808   16.4105  -13.2192 O   0  0  0  0  0  0  0  0  0  0  0  0
   46.0023   18.6093  -12.5728 C   0  0  0  0  0  0  0  0  0  0  0  0
   47.4009   19.1016  -12.7573 C   0  0  0  0  0  0  0  0  0  0  0  0
   44.9374   19.4662  -13.1717 C   0  0  0  0  0  0  0  0  0  0  0  0
   39.0982   13.0119  -14.7894 C   0  0  0  0  0  0  0  0  0  0  0  0
   38.1536   13.5175  -13.9152 C   0  0  0  0  0  0  0  0  0  0  0  0
   38.4311   14.5745  -13.0774 C   0  0  0  0  0  0  0  0  0  0  0  0
   39.6985   15.0982  -13.1585 C   0  0  0  0  0  0  0  0  0  0  0  0
   40.6770   14.6114  -14.0309 C   0  0  0  0  0  0  0  0  0  0  0  0
   40.3945   13.5578  -14.8635 C   0  0  0  0  0  0  0  0  0  0  0  0
   37.4459   15.0817  -12.1732 N   0  0  0  0  0  0  0  0  0  0  0  0
   36.0747   14.8262  -12.4542 C   0  0  0  0  0  0  0  0  0  0  0  0
   35.1153   15.0613  -11.3215 C   0  0  0  0  0  0  0  0  0  0  0  0
   35.3768   16.3044  -10.5395 C   0  0  0  0  0  0  0  0  0  0  0  0
   36.7565   16.8807  -10.7875 C   0  0  0  0  0  0  0  0  0  0  0  0
   37.8049   15.8420  -11.0001 C   0  0  0  0  0  0  0  0  0  0  0  0
   35.1373   16.2635   -9.1522 N   0  0  0  0  0  0  0  0  0  0  0  0
   35.5426   17.3403   -8.3488 C   0  0  0  0  0  0  0  0  0  0  0  0
   35.5358   16.9143   -6.8779 C   0  0  0  0  0  0  0  0  0  0  0  0
   34.3080   16.1820   -6.6355 N   0  0  0  0  0  0  0  0  0  0  0  0
   33.1317   16.9918   -6.6388 C   0  0  0  0  0  0  0  0  0  0  0  0
   34.2218   14.9633   -7.3733 C   0  0  0  0  0  0  0  0  0  0  0  0
   35.2452   14.9947   -8.5065 C   0  0  0  0  0  0  0  0  0  0  0  0
   37.4116   11.8136  -16.0212 C   0  0  0  0  0  0  0  0  0  0  0  0
   38.7516   11.9459  -15.6050 O   0  0  0  0  0  0  0  0  0  0  0  0
 43 44  1  0  0  0
 44 24  1  0  0  0
 24 25  2  0  0  0
 25 26  1  0  0  0
 26 27  2  0  0  0
 27 28  1  0  0  0
 28 29  2  0  0  0
 29  1  1  0  0  0
  1  3  1  0  0  0
  3  4  2  0  0  0
  4  5  1  0  0  0
  5  6  2  0  0  0
  6  7  1  0  0  0
  6  8  1  0  0  0
  8 10  1  0  0  0
 10 12  1  0  0  0
 12 13  2  0  0  0
 13 14  1  0  0  0
 14 15  2  0  0  0
 15 16  1  0  0  0
 16 17  2  0  0  0
 17 18  1  0  0  0
 18 19  2  0  0  0
 18 20  2  0  0  0
 18 21  1  0  0  0
 21 22  1  0  0  0
 21 23  1  0  0  0
  8  9  2  0  0  0
 26 30  1  0  0  0
 30 31  1  0  0  0
 31 32  1  0  0  0
 32 33  1  0  0  0
 33 34  1  0  0  0
 34 35  1  0  0  0
 33 36  1  0  0  0
 36 37  1  0  0  0
 37 38  1  0  0  0
 38 39  1  0  0  0
 39 40  1  0  0  0
 39 41  1  0  0  0
 41 42  1  0  0  0
 29 24  1  0  0  0
  9  3  1  0  0  0
 35 30  1  0  0  0
 42 36  1  0  0  0
 17 12  1  0  0  0
  1  2  1  0  0  0
 10 11  1  0  0  0
M  END
> <minimizedAffinity>
-8.07955

> <CNNscore>
0.0602416173

> <CNNaffinity>
6.6210656166

> <CNN_VS>
0.3988637030

> <CNNaffinity_variance>
0.6141880155

$$$$
[H]c1nc(N([H])c2c([H])c([H])c(N3C([H])([H])C([H])([H])C([H])(N4C([H])([H])C([H])([H])N(C([H])([H])[H])C([H])([H])C4([H])[H])C([H])([H])C3([H])[H])c([H])c2OC([H])([H])[H])nc(N([H])c2c([H])c([H])c([H])c([H])c2S(=O)(=O)C([H])(C([H])([H])[H])C([H])([H])[H])c1Cl


 44 48  0  0  0  0  0  0  0  0999 V2000
   41.3463   16.2571  -11.7127 N   0  0  0  0  0  0  0  0  0  0  0  0
   41.7263   17.2586  -11.8671 H   0  0  0  0  0  0  0  0  0  0  0  0
   41.6712   15.3036  -12.7136 C   0  0  0  0  0  0  0  0  0  0  0  0
   42.7723   14.5492  -12.7569 N   0  0  0  0  0  0  0  0  0  0  0  0
   43.0160   13.6655  -13.7326 C   0  0  0  0  0  0  0  0  0  0  0  0
   42.1083   13.5039  -14.7530 C   0  0  0  0  0  0  0  0  0  0  0  0
   42.4119   12.3463  -16.0447 Cl  0  0  0  0  0  0  0  0  0  0  0  0
   40.9369   14.2888  -14.7307 C   0  0  0  0  0  0  0  0  0  0  0  0
   40.7855   15.1414  -13.7152 N   0  0  0  0  0  0  0  0  0  0  0  0
   40.0263   14.1033  -15.7822 N   0  0  0  0  0  0  0  0  0  0  0  0
   39.7371   15.0071  -16.2827 H   0  0  0  0  0  0  0  0  0  0  0  0
   39.4238   12.9467  -16.2997 C   0  0  0  0  0  0  0  0  0  0  0  0
   40.0027   12.2828  -17.3605 C   0  0  0  0  0  0  0  0  0  0  0  0
   39.4125   11.1278  -17.8898 C   0  0  0  0  0  0  0  0  0  0  0  0
   38.2539   10.6657  -17.3414 C   0  0  0  0  0  0  0  0  0  0  0  0
   37.6784   11.3306  -16.2823 C   0  0  0  0  0  0  0  0  0  0  0  0
   38.2340   12.4622  -15.7450 C   0  0  0  0  0  0  0  0  0  0  0  0
   37.5052   13.2781  -14.4247 S   0  0  0  0  0  0  0  0  0  0  0  0
   37.4415   14.7580  -14.7079 O   0  0  0  0  0  0  0  0  0  0  0  0
   38.2050   13.0915  -13.1076 O   0  0  0  0  0  0  0  0  0  0  0  0
   35.8194   12.7665  -14.1516 C   0  0  0  0  0  0  0  0  0  0  0  0
   35.6979   11.9917  -12.8798 C   0  0  0  0  0  0  0  0  0  0  0  0
   34.8277   13.8677  -14.3280 C   0  0  0  0  0  0  0  0  0  0  0  0
   41.2988   15.8403   -9.3471 C   0  0  0  0  0  0  0  0  0  0  0  0
   40.6346   15.6530   -8.1487 C   0  0  0  0  0  0  0  0  0  0  0  0
   39.2605   15.6900   -8.0662 C   0  0  0  0  0  0  0  0  0  0  0  0
   38.5868   15.9235   -9.2404 C   0  0  0  0  0  0  0  0  0  0  0  0
   39.2270   16.1167  -10.4686 C   0  0  0  0  0  0  0  0  0  0  0  0
   40.5966   16.0786  -10.5446 C   0  0  0  0  0  0  0  0  0  0  0  0
   38.5879   15.5019   -6.8181 N   0  0  0  0  0  0  0  0  0  0  0  0
   39.3611   15.5194   -5.6239 C   0  0  0  0  0  0  0  0  0  0  0  0
   38.5906   15.6721   -4.3426 C   0  0  0  0  0  0  0  0  0  0  0  0
   37.3423   14.8586   -4.2726 C   0  0  0  0  0  0  0  0  0  0  0  0
   36.8965   14.3407   -5.6254 C   0  0  0  0  0  0  0  0  0  0  0  0
   37.1621   15.2917   -6.7427 C   0  0  0  0  0  0  0  0  0  0  0  0
   36.2354   15.4202   -3.6069 N   0  0  0  0  0  0  0  0  0  0  0  0
   36.1236   16.8155   -3.5077 C   0  0  0  0  0  0  0  0  0  0  0  0
   35.0869   17.1726   -2.4387 C   0  0  0  0  0  0  0  0  0  0  0  0
   33.9363   16.3121   -2.6338 N   0  0  0  0  0  0  0  0  0  0  0  0
   33.1684   16.6147   -3.7992 C   0  0  0  0  0  0  0  0  0  0  0  0
   34.2224   14.9297   -2.4235 C   0  0  0  0  0  0  0  0  0  0  0  0
   35.7351   14.7230   -2.4659 C   0  0  0  0  0  0  0  0  0  0  0  0
   43.3521   15.1557   -8.2921 C   0  0  0  0  0  0  0  0  0  0  0  0
   42.6841   15.7903   -9.3585 O   0  0  0  0  0  0  0  0  0  0  0  0
 43 44  1  0  0  0
 44 24  1  0  0  0
 24 25  2  0  0  0
 25 26  1  0  0  0
 26 27  2  0  0  0
 27 28  1  0  0  0
 28 29  2  0  0  0
 29  1  1  0  0  0
  1  3  1  0  0  0
  3  4  2  0  0  0
  4  5  1  0  0  0
  5  6  2  0  0  0
  6  7  1  0  0  0
  6  8  1  0  0  0
  8 10  1  0  0  0
 10 12  1  0  0  0
 12 13  2  0  0  0
 13 14  1  0  0  0
 14 15  2  0  0  0
 15 16  1  0  0  0
 16 17  2  0  0  0
 17 18  1  0  0  0
 18 19  2  0  0  0
 18 20  2  0  0  0
 18 21  1  0  0  0
 21 22  1  0  0  0
 21 23  1  0  0  0
  8  9  2  0  0  0
 26 30  1  0  0  0
 30 31  1  0  0  0
 31 32  1  0  0  0
 32 33  1  0  0  0
 33 34  1  0  0  0
 34 35  1  0  0  0
 33 36  1  0  0  0
 36 37  1  0  0  0
 37 38  1  0  0  0
 38 39  1  0  0  0
 39 40  1  0  0  0
 39 41  1  0  0  0
 41 42  1  0  0  0
 29 24  1  0  0  0
  9  3  1  0  0  0
 35 30  1  0  0  0
 42 36  1  0  0  0
 17 12  1  0  0  0
  1  2  1  0  0  0
 10 11  1  0  0  0
M  END
> <minimizedAffinity>
-8.20799

> <CNNscore>
0.0589180030

> <CNNaffinity>
6.6056222916

> <CNN_VS>
0.3891900778

> <CNNaffinity_variance>
0.2352221757

$$$$
[H]c1nc(N([H])c2c([H])c([H])c(N3C([H])([H])C([H])([H])C([H])(N4C([H])([H])C([H])([H])N(C([H])([H])[H])C([H])([H])C4([H])[H])C([H])([H])C3([H])[H])c([H])c2OC([H])([H])[H])nc(N([H])c2c([H])c([H])c([H])c([H])c2S(=O)(=O)C([H])(C([H])([H])[H])C([H])([H])[H])c1Cl


 44 48  0  0  0  0  0  0  0  0999 V2000
   39.1047   13.5743  -14.9151 N   0  0  0  0  0  0  0  0  0  0  0  0
   38.4179   13.4014  -15.7334 H   0  0  0  0  0  0  0  0  0  0  0  0
   40.4736   13.3053  -15.1799 C   0  0  0  0  0  0  0  0  0  0  0  0
   40.9563   12.6197  -16.2192 N   0  0  0  0  0  0  0  0  0  0  0  0
   42.2638   12.4036  -16.4097 C   0  0  0  0  0  0  0  0  0  0  0  0
   43.1782   12.8985  -15.5097 C   0  0  0  0  0  0  0  0  0  0  0  0
   44.9017   12.6244  -15.7440 Cl  0  0  0  0  0  0  0  0  0  0  0  0
   42.6942   13.6264  -14.4030 C   0  0  0  0  0  0  0  0  0  0  0  0
   41.3734   13.7879  -14.3014 N   0  0  0  0  0  0  0  0  0  0  0  0
   43.6480   14.1221  -13.5008 N   0  0  0  0  0  0  0  0  0  0  0  0
   44.1324   15.0247  -13.8195 H   0  0  0  0  0  0  0  0  0  0  0  0
   44.0842   13.6503  -12.2536 C   0  0  0  0  0  0  0  0  0  0  0  0
   44.4871   12.3390  -12.1143 C   0  0  0  0  0  0  0  0  0  0  0  0
   44.9235   11.8523  -10.8753 C   0  0  0  0  0  0  0  0  0  0  0  0
   44.9453   12.6939   -9.8039 C   0  0  0  0  0  0  0  0  0  0  0  0
   44.5426   14.0026   -9.9462 C   0  0  0  0  0  0  0  0  0  0  0  0
   44.1113   14.5050  -11.1460 C   0  0  0  0  0  0  0  0  0  0  0  0
   43.6141   16.1381  -11.3067 S   0  0  0  0  0  0  0  0  0  0  0  0
   43.3747   16.7382   -9.9441 O   0  0  0  0  0  0  0  0  0  0  0  0
   42.3675   16.3375  -12.1226 O   0  0  0  0  0  0  0  0  0  0  0  0
   44.8593   17.1595  -12.0714 C   0  0  0  0  0  0  0  0  0  0  0  0
   44.2608   18.0212  -13.1353 C   0  0  0  0  0  0  0  0  0  0  0  0
   45.7330   17.8670  -11.0901 C   0  0  0  0  0  0  0  0  0  0  0  0
   37.3432   13.3937  -13.2913 C   0  0  0  0  0  0  0  0  0  0  0  0
   36.6990   13.7881  -12.1329 C   0  0  0  0  0  0  0  0  0  0  0  0
   37.1698   14.8232  -11.3562 C   0  0  0  0  0  0  0  0  0  0  0  0
   38.3148   15.4416  -11.7963 C   0  0  0  0  0  0  0  0  0  0  0  0
   38.9906   15.0683  -12.9622 C   0  0  0  0  0  0  0  0  0  0  0  0
   38.5166   14.0361  -13.7322 C   0  0  0  0  0  0  0  0  0  0  0  0
   36.4966   15.2148  -10.1566 N   0  0  0  0  0  0  0  0  0  0  0  0
   35.1821   15.7487  -10.2623 C   0  0  0  0  0  0  0  0  0  0  0  0
   34.3926   15.8126   -8.9850 C   0  0  0  0  0  0  0  0  0  0  0  0
   35.1701   16.2830   -7.8021 C   0  0  0  0  0  0  0  0  0  0  0  0
   36.6688   16.2408   -8.0237 C   0  0  0  0  0  0  0  0  0  0  0  0
   37.1138   15.0881   -8.8582 C   0  0  0  0  0  0  0  0  0  0  0  0
   34.8725   15.7017   -6.5542 N   0  0  0  0  0  0  0  0  0  0  0  0
   33.9863   14.6154   -6.4914 C   0  0  0  0  0  0  0  0  0  0  0  0
   33.5245   14.4126   -5.0456 C   0  0  0  0  0  0  0  0  0  0  0  0
   34.6911   14.5150   -4.1905 N   0  0  0  0  0  0  0  0  0  0  0  0
   35.5926   13.4122   -4.2936 C   0  0  0  0  0  0  0  0  0  0  0  0
   35.2927   15.8092   -4.2079 C   0  0  0  0  0  0  0  0  0  0  0  0
   34.7877   16.5758   -5.4285 C   0  0  0  0  0  0  0  0  0  0  0  0
   35.4251   12.3062  -14.2588 C   0  0  0  0  0  0  0  0  0  0  0  0
   36.8145   12.3436  -14.0259 O   0  0  0  0  0  0  0  0  0  0  0  0
 43 44  1  0  0  0
 44 24  1  0  0  0
 24 25  2  0  0  0
 25 26  1  0  0  0
 26 27  2  0  0  0
 27 28  1  0  0  0
 28 29  2  0  0  0
 29  1  1  0  0  0
  1  3  1  0  0  0
  3  4  2  0  0  0
  4  5  1  0  0  0
  5  6  2  0  0  0
  6  7  1  0  0  0
  6  8  1  0  0  0
  8 10  1  0  0  0
 10 12  1  0  0  0
 12 13  2  0  0  0
 13 14  1  0  0  0
 14 15  2  0  0  0
 15 16  1  0  0  0
 16 17  2  0  0  0
 17 18  1  0  0  0
 18 19  2  0  0  0
 18 20  2  0  0  0
 18 21  1  0  0  0
 21 22  1  0  0  0
 21 23  1  0  0  0
  8  9  2  0  0  0
 26 30  1  0  0  0
 30 31  1  0  0  0
 31 32  1  0  0  0
 32 33  1  0  0  0
 33 34  1  0  0  0
 34 35  1  0  0  0
 33 36  1  0  0  0
 36 37  1  0  0  0
 37 38  1  0  0  0
 38 39  1  0  0  0
 39 40  1  0  0  0
 39 41  1  0  0  0
 41 42  1  0  0  0
 29 24  1  0  0  0
  9  3  1  0  0  0
 35 30  1  0  0  0
 42 36  1  0  0  0
 17 12  1  0  0  0
  1  2  1  0  0  0
 10 11  1  0  0  0
M  END
> <minimizedAffinity>
-7.52253

> <CNNscore>
0.0425379388

> <CNNaffinity>
6.6400060654

> <CNN_VS>
0.2824521661

> <CNNaffinity_variance>
0.3389868438

$$$$
[H]c1c([H])c(-c2c(C(=O)N([H])[H])c([H])n3nc(N([H])C([H])([H])C(=O)N4C([H])([H])C([H])([H])C([H])(N(C([H])([H])[H])C([H])([H])[H])C([H])([H])C4([H])[H])nc3c2[H])c(F)c([H])c1F


 36 39  0  0  0  0  0  0  0  0999 V2000
   42.1095   12.5162  -16.5435 C   0  0  0  0  0  0  0  0  0  0  0  0
   41.3852   13.0996  -15.5802 N   0  0  0  0  0  0  0  0  0  0  0  0
   40.0681   12.7767  -15.7445 C   0  0  0  0  0  0  0  0  0  0  0  0
   38.8985   13.0671  -15.0803 C   0  0  0  0  0  0  0  0  0  0  0  0
   37.6647   12.5718  -15.4873 C   0  0  0  0  0  0  0  0  0  0  0  0
   37.5989   11.7616  -16.5917 C   0  0  0  0  0  0  0  0  0  0  0  0
   38.8186   11.5001  -17.2286 C   0  0  0  0  0  0  0  0  0  0  0  0
   40.0008   11.9827  -16.8289 N   0  0  0  0  0  0  0  0  0  0  0  0
   41.2375   11.8334  -17.3022 N   0  0  0  0  0  0  0  0  0  0  0  0
   36.4781   12.8815  -14.7004 C   0  0  0  0  0  0  0  0  0  0  0  0
   35.5288   13.7647  -15.2373 C   0  0  0  0  0  0  0  0  0  0  0  0
   34.3725   14.0753  -14.5768 C   0  0  0  0  0  0  0  0  0  0  0  0
   34.1296   13.4933  -13.3288 C   0  0  0  0  0  0  0  0  0  0  0  0
   32.9694   13.8250  -12.7108 F   0  0  0  0  0  0  0  0  0  0  0  0
   35.0384   12.6282  -12.7820 C   0  0  0  0  0  0  0  0  0  0  0  0
   36.2133   12.3336  -13.4867 C   0  0  0  0  0  0  0  0  0  0  0  0
   37.0976   11.4824  -12.9163 F   0  0  0  0  0  0  0  0  0  0  0  0
   36.3962   11.1804  -17.1460 C   0  0  0  0  0  0  0  0  0  0  0  0
   35.6007   10.2242  -16.5412 N   0  0  0  0  0  0  0  0  0  0  0  0
   36.0246   11.5796  -18.3042 O   0  0  0  0  0  0  0  0  0  0  0  0
   34.7845   10.4692  -15.9296 H   0  0  0  0  0  0  0  0  0  0  0  0
   35.7410    9.1708  -16.6642 H   0  0  0  0  0  0  0  0  0  0  0  0
   43.5219   12.5634  -16.7590 N   0  0  0  0  0  0  0  0  0  0  0  0
   43.9624   11.8626  -17.3929 H   0  0  0  0  0  0  0  0  0  0  0  0
   44.3779   13.5482  -16.1304 C   0  0  0  0  0  0  0  0  0  0  0  0
   43.9708   13.1761  -11.1794 C   0  0  0  0  0  0  0  0  0  0  0  0
   44.2010   14.5101  -11.8537 C   0  0  0  0  0  0  0  0  0  0  0  0
   44.0831   14.2872  -13.3559 C   0  0  0  0  0  0  0  0  0  0  0  0
   45.0722   13.3164  -13.7399 N   0  0  0  0  0  0  0  0  0  0  0  0
   45.9352   12.7908  -12.6877 C   0  0  0  0  0  0  0  0  0  0  0  0
   45.1029   12.2539  -11.5384 C   0  0  0  0  0  0  0  0  0  0  0  0
   45.2029   12.9192  -15.0793 C   0  0  0  0  0  0  0  0  0  0  0  0
   46.0218   12.0344  -15.3870 O   0  0  0  0  0  0  0  0  0  0  0  0
   44.7336   12.7590   -8.9083 C   0  0  0  0  0  0  0  0  0  0  0  0
   43.7479   13.2489   -9.7884 N   0  0  0  0  0  0  0  0  0  0  0  0
   42.8928   14.2847   -9.3519 C   0  0  0  0  0  0  0  0  0  0  0  0
 34 35  1  0  0  0
 35 36  1  0  0  0
 35 26  1  0  0  0
 26 27  1  0  0  0
 27 28  1  0  0  0
 28 29  1  0  0  0
 29 30  1  0  0  0
 30 31  1  0  0  0
 29 32  1  0  0  0
 32 33  2  0  0  0
 32 25  1  0  0  0
 25 23  1  0  0  0
 23  1  1  0  0  0
  1  2  1  0  0  0
  2  3  2  0  0  0
  3  4  1  0  0  0
  4  5  2  0  0  0
  5  6  1  0  0  0
  6  7  2  0  0  0
  7  8  1  0  0  0
  8  9  1  0  0  0
  6 18  1  0  0  0
 18 19  1  0  0  0
 18 20  2  0  0  0
  5 10  1  0  0  0
 10 11  2  0  0  0
 11 12  1  0  0  0
 12 13  2  0  0  0
 13 14  1  0  0  0
 13 15  1  0  0  0
 15 16  2  0  0  0
 16 17  1  0  0  0
 31 26  1  0  0  0
  9  1  2  0  0  0
 16 10  1  0  0  0
  8  3  1  0  0  0
 23 24  1  0  0  0
 19 21  1  0  0  0
 19 22  1  0  0  0
M  END
> <minimizedAffinity>
-8.67144

> <CNNscore>
0.7091724873

> <CNNaffinity>
7.4233751297

> <CNN_VS>
5.2644534111

> <CNNaffinity_variance>
0.0567451492

$$$$
[H]c1c([H])c(-c2c(C(=O)N([H])[H])c([H])n3nc(N([H])C([H])([H])C(=O)N4C([H])([H])C([H])([H])C([H])(N(C([H])([H])[H])C([H])([H])[H])C([H])([H])C4([H])[H])nc3c2[H])c(F)c([H])c1F


 36 39  0  0  0  0  0  0  0  0999 V2000
   39.7024   12.4989  -16.3838 C   0  0  0  0  0  0  0  0  0  0  0  0
   39.8659   13.1139  -15.2058 N   0  0  0  0  0  0  0  0  0  0  0  0
   41.1996   13.2819  -14.9629 C   0  0  0  0  0  0  0  0  0  0  0  0
   41.9484   13.8369  -13.9506 C   0  0  0  0  0  0  0  0  0  0  0  0
   43.3379   13.8737  -13.9821 C   0  0  0  0  0  0  0  0  0  0  0  0
   43.9983   13.3395  -15.0586 C   0  0  0  0  0  0  0  0  0  0  0  0
   43.1870   12.7879  -16.0583 C   0  0  0  0  0  0  0  0  0  0  0  0
   41.8501   12.7569  -16.0176 N   0  0  0  0  0  0  0  0  0  0  0  0
   40.9370   12.2875  -16.8671 N   0  0  0  0  0  0  0  0  0  0  0  0
   44.0580   14.5263  -12.8963 C   0  0  0  0  0  0  0  0  0  0  0  0
   44.1191   15.9283  -12.8793 C   0  0  0  0  0  0  0  0  0  0  0  0
   44.7434   16.6144  -11.8747 C   0  0  0  0  0  0  0  0  0  0  0  0
   45.3376   15.8957  -10.8328 C   0  0  0  0  0  0  0  0  0  0  0  0
   45.9415   16.6153   -9.8554 F   0  0  0  0  0  0  0  0  0  0  0  0
   45.2925   14.5278  -10.8244 C   0  0  0  0  0  0  0  0  0  0  0  0
   44.6450   13.8575  -11.8710 C   0  0  0  0  0  0  0  0  0  0  0  0
   44.6252   12.5045  -11.8404 F   0  0  0  0  0  0  0  0  0  0  0  0
   45.4331   13.2896  -15.2332 C   0  0  0  0  0  0  0  0  0  0  0  0
   46.2795   14.3789  -15.3326 N   0  0  0  0  0  0  0  0  0  0  0  0
   45.9814   12.1349  -15.3052 O   0  0  0  0  0  0  0  0  0  0  0  0
   46.7447   14.8139  -14.4992 H   0  0  0  0  0  0  0  0  0  0  0  0
   46.5397   14.8461  -16.2591 H   0  0  0  0  0  0  0  0  0  0  0  0
   38.4894   12.1326  -17.0455 N   0  0  0  0  0  0  0  0  0  0  0  0
   38.1977   12.6571  -17.8980 H   0  0  0  0  0  0  0  0  0  0  0  0
   37.6376   11.0572  -16.5810 C   0  0  0  0  0  0  0  0  0  0  0  0
   35.2110   13.9555  -13.3362 C   0  0  0  0  0  0  0  0  0  0  0  0
   35.7719   12.6118  -12.9274 C   0  0  0  0  0  0  0  0  0  0  0  0
   36.6034   12.0919  -14.0928 C   0  0  0  0  0  0  0  0  0  0  0  0
   35.7426   11.9852  -15.2399 N   0  0  0  0  0  0  0  0  0  0  0  0
   34.3435   12.3574  -15.0614 C   0  0  0  0  0  0  0  0  0  0  0  0
   34.2372   13.7475  -14.4629 C   0  0  0  0  0  0  0  0  0  0  0  0
   36.2394   11.5190  -16.4666 C   0  0  0  0  0  0  0  0  0  0  0  0
   35.4979   11.4893  -17.4654 O   0  0  0  0  0  0  0  0  0  0  0  0
   35.4772   15.6655  -11.6278 C   0  0  0  0  0  0  0  0  0  0  0  0
   34.6666   14.7139  -12.2788 N   0  0  0  0  0  0  0  0  0  0  0  0
   33.2692   14.9147  -12.3165 C   0  0  0  0  0  0  0  0  0  0  0  0
 34 35  1  0  0  0
 35 36  1  0  0  0
 35 26  1  0  0  0
 26 27  1  0  0  0
 27 28  1  0  0  0
 28 29  1  0  0  0
 29 30  1  0  0  0
 30 31  1  0  0  0
 29 32  1  0  0  0
 32 33  2  0  0  0
 32 25  1  0  0  0
 25 23  1  0  0  0
 23  1  1  0  0  0
  1  2  1  0  0  0
  2  3  2  0  0  0
  3  4  1  0  0  0
  4  5  2  0  0  0
  5  6  1  0  0  0
  6  7  2  0  0  0
  7  8  1  0  0  0
  8  9  1  0  0  0
  6 18  1  0  0  0
 18 19  1  0  0  0
 18 20  2  0  0  0
  5 10  1  0  0  0
 10 11  2  0  0  0
 11 12  1  0  0  0
 12 13  2  0  0  0
 13 14  1  0  0  0
 13 15  1  0  0  0
 15 16  2  0  0  0
 16 17  1  0  0  0
 31 26  1  0  0  0
  9  1  2  0  0  0
 16 10  1  0  0  0
  8  3  1  0  0  0
 23 24  1  0  0  0
 19 21  1  0  0  0
 19 22  1  0  0  0
M  END
> <minimizedAffinity>
-8.52307

> <CNNscore>
0.4695490599

> <CNNaffinity>
7.1761579514

> <CNN_VS>
3.3695583344

> <CNNaffinity_variance>
0.2799552381

$$$$
[H]c1c([H])c(-c2c(C(=O)N([H])[H])c([H])n3nc(N([H])C([H])([H])C(=O)N4C([H])([H])C([H])([H])C([H])(N(C([H])([H])[H])C([H])([H])[H])C([H])([H])C4([H])[H])nc3c2[H])c(F)c([H])c1F


 36 39  0  0  0  0  0  0  0  0999 V2000
   39.9988   12.4189  -16.6234 C   0  0  0  0  0  0  0  0  0  0  0  0
   41.3079   12.3253  -16.8882 N   0  0  0  0  0  0  0  0  0  0  0  0
   42.0188   12.8865  -15.8656 C   0  0  0  0  0  0  0  0  0  0  0  0
   43.3536   13.0717  -15.5870 C   0  0  0  0  0  0  0  0  0  0  0  0
   43.7957   13.6891  -14.4223 C   0  0  0  0  0  0  0  0  0  0  0  0
   42.8751   14.1343  -13.5087 C   0  0  0  0  0  0  0  0  0  0  0  0
   41.5321   13.9205  -13.8438 C   0  0  0  0  0  0  0  0  0  0  0  0
   41.1172   13.3257  -14.9682 N   0  0  0  0  0  0  0  0  0  0  0  0
   39.9031   13.0387  -15.4364 N   0  0  0  0  0  0  0  0  0  0  0  0
   45.2273   13.8008  -14.1746 C   0  0  0  0  0  0  0  0  0  0  0  0
   45.9128   12.6784  -13.6846 C   0  0  0  0  0  0  0  0  0  0  0  0
   47.2620   12.6930  -13.4629 C   0  0  0  0  0  0  0  0  0  0  0  0
   47.9792   13.8623  -13.7341 C   0  0  0  0  0  0  0  0  0  0  0  0
   49.3150   13.8318  -13.5044 F   0  0  0  0  0  0  0  0  0  0  0  0
   47.3356   14.9713  -14.2129 C   0  0  0  0  0  0  0  0  0  0  0  0
   45.9517   14.9209  -14.4273 C   0  0  0  0  0  0  0  0  0  0  0  0
   45.3415   16.0360  -14.8920 F   0  0  0  0  0  0  0  0  0  0  0  0
   43.1737   14.8039  -12.2620 C   0  0  0  0  0  0  0  0  0  0  0  0
   43.3374   14.1961  -11.0305 N   0  0  0  0  0  0  0  0  0  0  0  0
   43.2989   16.0777  -12.2888 O   0  0  0  0  0  0  0  0  0  0  0  0
   44.2700   13.8707  -10.6778 H   0  0  0  0  0  0  0  0  0  0  0  0
   42.5379   14.0301  -10.3393 H   0  0  0  0  0  0  0  0  0  0  0  0
   38.8900   11.9586  -17.3994 N   0  0  0  0  0  0  0  0  0  0  0  0
   38.7087   12.3896  -18.3313 H   0  0  0  0  0  0  0  0  0  0  0  0
   37.9970   10.9123  -16.9462 C   0  0  0  0  0  0  0  0  0  0  0  0
   35.8891   13.7756  -13.4569 C   0  0  0  0  0  0  0  0  0  0  0  0
   36.3860   12.3828  -13.1398 C   0  0  0  0  0  0  0  0  0  0  0  0
   37.1342   11.8762  -14.3660 C   0  0  0  0  0  0  0  0  0  0  0  0
   36.2201   11.8777  -15.4762 N   0  0  0  0  0  0  0  0  0  0  0  0
   34.8545   12.3200  -15.2158 C   0  0  0  0  0  0  0  0  0  0  0  0
   34.8571   13.6816  -14.5464 C   0  0  0  0  0  0  0  0  0  0  0  0
   36.6351   11.4471  -16.7455 C   0  0  0  0  0  0  0  0  0  0  0  0
   35.8509   11.5109  -17.7094 O   0  0  0  0  0  0  0  0  0  0  0  0
   34.0693   14.8349  -12.2405 C   0  0  0  0  0  0  0  0  0  0  0  0
   35.4368   14.5090  -12.3401 N   0  0  0  0  0  0  0  0  0  0  0  0
   36.1956   14.3667  -11.1575 C   0  0  0  0  0  0  0  0  0  0  0  0
 34 35  1  0  0  0
 35 36  1  0  0  0
 35 26  1  0  0  0
 26 27  1  0  0  0
 27 28  1  0  0  0
 28 29  1  0  0  0
 29 30  1  0  0  0
 30 31  1  0  0  0
 29 32  1  0  0  0
 32 33  2  0  0  0
 32 25  1  0  0  0
 25 23  1  0  0  0
 23  1  1  0  0  0
  1  2  1  0  0  0
  2  3  2  0  0  0
  3  4  1  0  0  0
  4  5  2  0  0  0
  5  6  1  0  0  0
  6  7  2  0  0  0
  7  8  1  0  0  0
  8  9  1  0  0  0
  6 18  1  0  0  0
 18 19  1  0  0  0
 18 20  2  0  0  0
  5 10  1  0  0  0
 10 11  2  0  0  0
 11 12  1  0  0  0
 12 13  2  0  0  0
 13 14  1  0  0  0
 13 15  1  0  0  0
 15 16  2  0  0  0
 16 17  1  0  0  0
 31 26  1  0  0  0
  9  1  2  0  0  0
 16 10  1  0  0  0
  8  3  1  0  0  0
 23 24  1  0  0  0
 19 21  1  0  0  0
 19 22  1  0  0  0
M  END
> <minimizedAffinity>
-8.22423

> <CNNscore>
0.3294033408

> <CNNaffinity>
7.1368589401

> <CNN_VS>
2.3509051800

> <CNNaffinity_variance>
0.3728791773

$$$$
[H]c1c([H])c(-c2c(C(=O)N([H])[H])c([H])n3nc(N([H])C([H])([H])C(=O)N4C([H])([H])C([H])([H])C([H])(N(C([H])([H])[H])C([H])([H])[H])C([H])([H])C4([H])[H])nc3c2[H])c(F)c([H])c1F


 36 39  0  0  0  0  0  0  0  0999 V2000
   40.3140   15.2498  -12.9031 C   0  0  0  0  0  0  0  0  0  0  0  0
   40.0816   14.2159  -13.7216 N   0  0  0  0  0  0  0  0  0  0  0  0
   38.7342   14.0251  -13.8402 C   0  0  0  0  0  0  0  0  0  0  0  0
   37.9259   13.1486  -14.5272 C   0  0  0  0  0  0  0  0  0  0  0  0
   36.5382   13.2019  -14.4605 C   0  0  0  0  0  0  0  0  0  0  0  0
   35.9410   14.1611  -13.6835 C   0  0  0  0  0  0  0  0  0  0  0  0
   36.8110   15.0251  -13.0066 C   0  0  0  0  0  0  0  0  0  0  0  0
   38.1457   14.9645  -13.0771 N   0  0  0  0  0  0  0  0  0  0  0  0
   39.1082   15.6962  -12.5169 N   0  0  0  0  0  0  0  0  0  0  0  0
   35.7503   12.2721  -15.2591 C   0  0  0  0  0  0  0  0  0  0  0  0
   34.5213   11.8250  -14.7499 C   0  0  0  0  0  0  0  0  0  0  0  0
   33.7079   10.9821  -15.4554 C   0  0  0  0  0  0  0  0  0  0  0  0
   34.1142   10.5545  -16.7232 C   0  0  0  0  0  0  0  0  0  0  0  0
   33.2759    9.7233  -17.3898 F   0  0  0  0  0  0  0  0  0  0  0  0
   35.3079   10.9754  -17.2440 C   0  0  0  0  0  0  0  0  0  0  0  0
   36.1167   11.8384  -16.4924 C   0  0  0  0  0  0  0  0  0  0  0  0
   37.2958   12.2297  -17.0293 F   0  0  0  0  0  0  0  0  0  0  0  0
   34.5172   14.3384  -13.5010 C   0  0  0  0  0  0  0  0  0  0  0  0
   33.6052   14.6691  -14.4867 N   0  0  0  0  0  0  0  0  0  0  0  0
   34.0466   14.1782  -12.3212 O   0  0  0  0  0  0  0  0  0  0  0  0
   33.0919   13.9483  -15.0498 H   0  0  0  0  0  0  0  0  0  0  0  0
   33.3390   15.6748  -14.7362 H   0  0  0  0  0  0  0  0  0  0  0  0
   41.5643   15.8140  -12.5010 N   0  0  0  0  0  0  0  0  0  0  0  0
   41.5953   16.4353  -11.6643 H   0  0  0  0  0  0  0  0  0  0  0  0
   42.8019   15.5614  -13.2096 C   0  0  0  0  0  0  0  0  0  0  0  0
   46.0158   12.2221  -11.3830 C   0  0  0  0  0  0  0  0  0  0  0  0
   44.5477   12.1831  -11.0221 C   0  0  0  0  0  0  0  0  0  0  0  0
   43.8371   13.2102  -11.8938 C   0  0  0  0  0  0  0  0  0  0  0  0
   44.4191   14.4980  -11.6271 N   0  0  0  0  0  0  0  0  0  0  0  0
   45.4869   14.5552  -10.6349 C   0  0  0  0  0  0  0  0  0  0  0  0
   46.5770   13.5550  -10.9714 C   0  0  0  0  0  0  0  0  0  0  0  0
   43.9516   15.6450  -12.2864 C   0  0  0  0  0  0  0  0  0  0  0  0
   44.5049   16.7422  -12.0903 O   0  0  0  0  0  0  0  0  0  0  0  0
   48.1796   11.1992  -10.9525 C   0  0  0  0  0  0  0  0  0  0  0  0
   46.7729   11.1376  -10.8927 N   0  0  0  0  0  0  0  0  0  0  0  0
   46.1629   10.3643   -9.8804 C   0  0  0  0  0  0  0  0  0  0  0  0
 34 35  1  0  0  0
 35 36  1  0  0  0
 35 26  1  0  0  0
 26 27  1  0  0  0
 27 28  1  0  0  0
 28 29  1  0  0  0
 29 30  1  0  0  0
 30 31  1  0  0  0
 29 32  1  0  0  0
 32 33  2  0  0  0
 32 25  1  0  0  0
 25 23  1  0  0  0
 23  1  1  0  0  0
  1  2  1  0  0  0
  2  3  2  0  0  0
  3  4  1  0  0  0
  4  5  2  0  0  0
  5  6  1  0  0  0
  6  7  2  0  0  0
  7  8  1  0  0  0
  8  9  1  0  0  0
  6 18  1  0  0  0
 18 19  1  0  0  0
 18 20  2  0  0  0
  5 10  1  0  0  0
 10 11  2  0  0  0
 11 12  1  0  0  0
 12 13  2  0  0  0
 13 14  1  0  0  0
 13 15  1  0  0  0
 15 16  2  0  0  0
 16 17  1  0  0  0
 31 26  1  0  0  0
  9  1  2  0  0  0
 16 10  1  0  0  0
  8  3  1  0  0  0
 23 24  1  0  0  0
 19 21  1  0  0  0
 19 22  1  0  0  0
M  END
> <minimizedAffinity>
-8.38013

> <CNNscore>
0.2071985900

> <CNNaffinity>
6.2267947197

> <CNN_VS>
1.2901830673

> <CNNaffinity_variance>
0.1394927800

$$$$
[H]c1c([H])c(-c2c(C(=O)N([H])[H])c([H])n3nc(N([H])C([H])([H])C(=O)N4C([H])([H])C([H])([H])C([H])(N(C([H])([H])[H])C([H])([H])[H])C([H])([H])C4([H])[H])nc3c2[H])c(F)c([H])c1F


 36 39  0  0  0  0  0  0  0  0999 V2000
   40.4117   15.4418  -13.0808 C   0  0  0  0  0  0  0  0  0  0  0  0
   40.1812   14.4312  -13.9283 N   0  0  0  0  0  0  0  0  0  0  0  0
   38.8401   14.1758  -13.9757 C   0  0  0  0  0  0  0  0  0  0  0  0
   38.0357   13.2871  -14.6514 C   0  0  0  0  0  0  0  0  0  0  0  0
   36.6536   13.2658  -14.5010 C   0  0  0  0  0  0  0  0  0  0  0  0
   36.0583   14.1605  -13.6493 C   0  0  0  0  0  0  0  0  0  0  0  0
   36.9243   15.0404  -12.9878 C   0  0  0  0  0  0  0  0  0  0  0  0
   38.2536   15.0519  -13.1393 N   0  0  0  0  0  0  0  0  0  0  0  0
   39.2112   15.8092  -12.6053 N   0  0  0  0  0  0  0  0  0  0  0  0
   35.8654   12.3293  -15.2916 C   0  0  0  0  0  0  0  0  0  0  0  0
   34.6089   11.9344  -14.8072 C   0  0  0  0  0  0  0  0  0  0  0  0
   33.7946   11.0889  -15.5086 C   0  0  0  0  0  0  0  0  0  0  0  0
   34.2284   10.6050  -16.7468 C   0  0  0  0  0  0  0  0  0  0  0  0
   33.3884    9.7733  -17.4106 F   0  0  0  0  0  0  0  0  0  0  0  0
   35.4493   10.9744  -17.2430 C   0  0  0  0  0  0  0  0  0  0  0  0
   36.2581   11.8417  -16.4963 C   0  0  0  0  0  0  0  0  0  0  0  0
   37.4640   12.1814  -17.0082 F   0  0  0  0  0  0  0  0  0  0  0  0
   34.6413   14.2563  -13.3760 C   0  0  0  0  0  0  0  0  0  0  0  0
   33.6751   14.7308  -14.2443 N   0  0  0  0  0  0  0  0  0  0  0  0
   34.2324   13.8701  -12.2259 O   0  0  0  0  0  0  0  0  0  0  0  0
   33.1521   14.1079  -14.9066 H   0  0  0  0  0  0  0  0  0  0  0  0
   33.3736   15.7560  -14.2943 H   0  0  0  0  0  0  0  0  0  0  0  0
   41.6549   16.0533  -12.7287 N   0  0  0  0  0  0  0  0  0  0  0  0
   41.8306   17.0428  -13.0063 H   0  0  0  0  0  0  0  0  0  0  0  0
   42.6925   15.3549  -11.9984 C   0  0  0  0  0  0  0  0  0  0  0  0
   47.1566   15.7180  -14.1793 C   0  0  0  0  0  0  0  0  0  0  0  0
   46.0227   16.6500  -14.5437 C   0  0  0  0  0  0  0  0  0  0  0  0
   44.8857   16.3883  -13.5646 C   0  0  0  0  0  0  0  0  0  0  0  0
   44.5030   15.0074  -13.6871 N   0  0  0  0  0  0  0  0  0  0  0  0
   45.2225   14.1998  -14.6660 C   0  0  0  0  0  0  0  0  0  0  0  0
   46.7193   14.3033  -14.4409 C   0  0  0  0  0  0  0  0  0  0  0  0
   43.4633   14.4809  -12.9057 C   0  0  0  0  0  0  0  0  0  0  0  0
   43.1837   13.2707  -12.9790 O   0  0  0  0  0  0  0  0  0  0  0  0
   49.2455   14.9769  -15.1797 C   0  0  0  0  0  0  0  0  0  0  0  0
   48.3922   16.0270  -14.7856 N   0  0  0  0  0  0  0  0  0  0  0  0
   48.4510   17.2554  -15.4800 C   0  0  0  0  0  0  0  0  0  0  0  0
 34 35  1  0  0  0
 35 36  1  0  0  0
 35 26  1  0  0  0
 26 27  1  0  0  0
 27 28  1  0  0  0
 28 29  1  0  0  0
 29 30  1  0  0  0
 30 31  1  0  0  0
 29 32  1  0  0  0
 32 33  2  0  0  0
 32 25  1  0  0  0
 25 23  1  0  0  0
 23  1  1  0  0  0
  1  2  1  0  0  0
  2  3  2  0  0  0
  3  4  1  0  0  0
  4  5  2  0  0  0
  5  6  1  0  0  0
  6  7  2  0  0  0
  7  8  1  0  0  0
  8  9  1  0  0  0
  6 18  1  0  0  0
 18 19  1  0  0  0
 18 20  2  0  0  0
  5 10  1  0  0  0
 10 11  2  0  0  0
 11 12  1  0  0  0
 12 13  2  0  0  0
 13 14  1  0  0  0
 13 15  1  0  0  0
 15 16  2  0  0  0
 16 17  1  0  0  0
 31 26  1  0  0  0
  9  1  2  0  0  0
 16 10  1  0  0  0
  8  3  1  0  0  0
 23 24  1  0  0  0
 19 21  1  0  0  0
 19 22  1  0  0  0
M  END
> <minimizedAffinity>
-8.86253

> <CNNscore>
0.1825630218

> <CNNaffinity>
6.3674626350

> <CNN_VS>
1.1624631882

> <CNNaffinity_variance>
0.0447195433

$$$$
[H]c1c([H])c(-c2c(C(=O)N([H])[H])c([H])n3nc(N([H])C([H])([H])C(=O)N4C([H])([H])C([H])([H])C([H])(N(C([H])([H])[H])C([H])([H])[H])C([H])([H])C4([H])[H])nc3c2[H])c(F)c([H])c1F


 36 39  0  0  0  0  0  0  0  0999 V2000
   38.4789   16.3803  -11.0128 C   0  0  0  0  0  0  0  0  0  0  0  0
   39.0960   15.7466  -12.0180 N   0  0  0  0  0  0  0  0  0  0  0  0
   38.2053   14.9288  -12.6536 C   0  0  0  0  0  0  0  0  0  0  0  0
   38.2594   14.0661  -13.7242 C   0  0  0  0  0  0  0  0  0  0  0  0
   37.1516   13.3505  -14.1647 C   0  0  0  0  0  0  0  0  0  0  0  0
   35.9538   13.5027  -13.5148 C   0  0  0  0  0  0  0  0  0  0  0  0
   35.9566   14.3919  -12.4327 C   0  0  0  0  0  0  0  0  0  0  0  0
   37.0289   15.0753  -12.0165 N   0  0  0  0  0  0  0  0  0  0  0  0
   37.2066   15.9522  -11.0290 N   0  0  0  0  0  0  0  0  0  0  0  0
   37.2760   12.4966  -15.3388 C   0  0  0  0  0  0  0  0  0  0  0  0
   36.1318   12.2500  -16.1131 C   0  0  0  0  0  0  0  0  0  0  0  0
   36.1753   11.4906  -17.2494 C   0  0  0  0  0  0  0  0  0  0  0  0
   37.3984   10.9447  -17.6513 C   0  0  0  0  0  0  0  0  0  0  0  0
   37.3975   10.2024  -18.7857 F   0  0  0  0  0  0  0  0  0  0  0  0
   38.5299   11.1697  -16.9148 C   0  0  0  0  0  0  0  0  0  0  0  0
   38.4480   11.9520  -15.7551 C   0  0  0  0  0  0  0  0  0  0  0  0
   39.5815   12.1489  -15.0422 F   0  0  0  0  0  0  0  0  0  0  0  0
   34.7197   12.8231  -13.8421 C   0  0  0  0  0  0  0  0  0  0  0  0
   33.6753   13.3445  -14.5837 N   0  0  0  0  0  0  0  0  0  0  0  0
   34.5687   11.6278  -13.4091 O   0  0  0  0  0  0  0  0  0  0  0  0
   33.6072   13.2332  -15.6244 H   0  0  0  0  0  0  0  0  0  0  0  0
   32.8528   13.8793  -14.1568 H   0  0  0  0  0  0  0  0  0  0  0  0
   39.0106   17.3355  -10.0918 N   0  0  0  0  0  0  0  0  0  0  0  0
   39.5982   18.1171  -10.4536 H   0  0  0  0  0  0  0  0  0  0  0  0
   38.7699   17.2666   -8.6653 C   0  0  0  0  0  0  0  0  0  0  0  0
   42.4742   14.5828   -6.6924 C   0  0  0  0  0  0  0  0  0  0  0  0
   42.5306   15.0738   -8.1217 C   0  0  0  0  0  0  0  0  0  0  0  0
   41.3456   16.0079   -8.3293 C   0  0  0  0  0  0  0  0  0  0  0  0
   40.1427   15.2648   -8.0664 N   0  0  0  0  0  0  0  0  0  0  0  0
   40.2926   13.8622   -7.6944 C   0  0  0  0  0  0  0  0  0  0  0  0
   41.2516   13.7232   -6.5269 C   0  0  0  0  0  0  0  0  0  0  0  0
   38.8843   15.8731   -8.1894 C   0  0  0  0  0  0  0  0  0  0  0  0
   37.8558   15.2352   -7.9004 O   0  0  0  0  0  0  0  0  0  0  0  0
   43.6720   13.3827   -4.9492 C   0  0  0  0  0  0  0  0  0  0  0  0
   43.6505   13.9498   -6.2393 N   0  0  0  0  0  0  0  0  0  0  0  0
   44.4869   13.4082   -7.2402 C   0  0  0  0  0  0  0  0  0  0  0  0
 34 35  1  0  0  0
 35 36  1  0  0  0
 35 26  1  0  0  0
 26 27  1  0  0  0
 27 28  1  0  0  0
 28 29  1  0  0  0
 29 30  1  0  0  0
 30 31  1  0  0  0
 29 32  1  0  0  0
 32 33  2  0  0  0
 32 25  1  0  0  0
 25 23  1  0  0  0
 23  1  1  0  0  0
  1  2  1  0  0  0
  2  3  2  0  0  0
  3  4  1  0  0  0
  4  5  2  0  0  0
  5  6  1  0  0  0
  6  7  2  0  0  0
  7  8  1  0  0  0
  8  9  1  0  0  0
  6 18  1  0  0  0
 18 19  1  0  0  0
 18 20  2  0  0  0
  5 10  1  0  0  0
 10 11  2  0  0  0
 11 12  1  0  0  0
 12 13  2  0  0  0
 13 14  1  0  0  0
 13 15  1  0  0  0
 15 16  2  0  0  0
 16 17  1  0  0  0
 31 26  1  0  0  0
  9  1  2  0  0  0
 16 10  1  0  0  0
  8  3  1  0  0  0
 23 24  1  0  0  0
 19 21  1  0  0  0
 19 22  1  0  0  0
M  END
> <minimizedAffinity>
-8.28946

> <CNNscore>
0.1666422337

> <CNNaffinity>
6.0439057350

> <CNN_VS>
1.0071699619

> <CNNaffinity_variance>
0.3113229573

$$$$
[H]c1c([H])c(-c2c(C(=O)N([H])[H])c([H])n3nc(N([H])C([H])([H])C(=O)N4C([H])([H])C([H])([H])C([H])(N(C([H])([H])[H])C([H])([H])[H])C([H])([H])C4([H])[H])nc3c2[H])c(F)c([H])c1F


 36 39  0  0  0  0  0  0  0  0999 V2000
   42.3364   12.6097  -16.3906 C   0  0  0  0  0  0  0  0  0  0  0  0
   43.6449   12.6525  -16.1100 N   0  0  0  0  0  0  0  0  0  0  0  0
   43.8247   13.1837  -14.8645 C   0  0  0  0  0  0  0  0  0  0  0  0
   44.9100   13.4590  -14.0646 C   0  0  0  0  0  0  0  0  0  0  0  0
   44.7823   14.0107  -12.7947 C   0  0  0  0  0  0  0  0  0  0  0  0
   43.5313   14.2953  -12.3104 C   0  0  0  0  0  0  0  0  0  0  0  0
   42.4641   13.9956  -13.1665 C   0  0  0  0  0  0  0  0  0  0  0  0
   42.5982   13.4653  -14.3875 N   0  0  0  0  0  0  0  0  0  0  0  0
   41.7094   13.1155  -15.3167 N   0  0  0  0  0  0  0  0  0  0  0  0
   45.9763   14.2240  -11.9874 C   0  0  0  0  0  0  0  0  0  0  0  0
   46.6550   15.4469  -12.1037 C   0  0  0  0  0  0  0  0  0  0  0  0
   47.7605   15.7367  -11.3529 C   0  0  0  0  0  0  0  0  0  0  0  0
   48.2269   14.7849  -10.4409 C   0  0  0  0  0  0  0  0  0  0  0  0
   49.3225   15.1147   -9.7139 F   0  0  0  0  0  0  0  0  0  0  0  0
   47.5837   13.5841  -10.3070 C   0  0  0  0  0  0  0  0  0  0  0  0
   46.4543   13.3206  -11.0937 C   0  0  0  0  0  0  0  0  0  0  0  0
   45.8453   12.1210  -10.9461 F   0  0  0  0  0  0  0  0  0  0  0  0
   43.2344   14.8794  -11.0211 C   0  0  0  0  0  0  0  0  0  0  0  0
   42.9621   14.1853   -9.8562 N   0  0  0  0  0  0  0  0  0  0  0  0
   43.2181   16.1569  -10.9390 O   0  0  0  0  0  0  0  0  0  0  0  0
   43.7079   13.9104   -9.1719 H   0  0  0  0  0  0  0  0  0  0  0  0
   41.9777   13.8949   -9.5544 H   0  0  0  0  0  0  0  0  0  0  0  0
   41.6849   12.1233  -17.5664 N   0  0  0  0  0  0  0  0  0  0  0  0
   42.1025   11.3193  -18.0824 H   0  0  0  0  0  0  0  0  0  0  0  0
   40.4607   12.7021  -18.0801 C   0  0  0  0  0  0  0  0  0  0  0  0
   35.8943   11.8520  -16.2793 C   0  0  0  0  0  0  0  0  0  0  0  0
   37.1183   11.7734  -15.3944 C   0  0  0  0  0  0  0  0  0  0  0  0
   38.3034   12.2715  -16.2114 C   0  0  0  0  0  0  0  0  0  0  0  0
   38.4278   11.4309  -17.3716 N   0  0  0  0  0  0  0  0  0  0  0  0
   37.4689   10.3405  -17.5117 C   0  0  0  0  0  0  0  0  0  0  0  0
   36.0496   10.8658  -17.4037 C   0  0  0  0  0  0  0  0  0  0  0  0
   39.4489   11.6508  -18.3086 C   0  0  0  0  0  0  0  0  0  0  0  0
   39.5074   10.9538  -19.3377 O   0  0  0  0  0  0  0  0  0  0  0  0
   34.3190   12.6561  -14.6105 C   0  0  0  0  0  0  0  0  0  0  0  0
   34.6657   11.7146  -15.6002 N   0  0  0  0  0  0  0  0  0  0  0  0
   33.6375   11.0541  -16.3081 C   0  0  0  0  0  0  0  0  0  0  0  0
 34 35  1  0  0  0
 35 36  1  0  0  0
 35 26  1  0  0  0
 26 27  1  0  0  0
 27 28  1  0  0  0
 28 29  1  0  0  0
 29 30  1  0  0  0
 30 31  1  0  0  0
 29 32  1  0  0  0
 32 33  2  0  0  0
 32 25  1  0  0  0
 25 23  1  0  0  0
 23  1  1  0  0  0
  1  2  1  0  0  0
  2  3  2  0  0  0
  3  4  1  0  0  0
  4  5  2  0  0  0
  5  6  1  0  0  0
  6  7  2  0  0  0
  7  8  1  0  0  0
  8  9  1  0  0  0
  6 18  1  0  0  0
 18 19  1  0  0  0
 18 20  2  0  0  0
  5 10  1  0  0  0
 10 11  2  0  0  0
 11 12  1  0  0  0
 12 13  2  0  0  0
 13 14  1  0  0  0
 13 15  1  0  0  0
 15 16  2  0  0  0
 16 17  1  0  0  0
 31 26  1  0  0  0
  9  1  2  0  0  0
 16 10  1  0  0  0
  8  3  1  0  0  0
 23 24  1  0  0  0
 19 21  1  0  0  0
 19 22  1  0  0  0
M  END
> <minimizedAffinity>
-7.65657

> <CNNscore>
0.1641252637

> <CNNaffinity>
6.5352797508

> <CNN_VS>
1.0726045370

> <CNNaffinity_variance>
0.0551543832

$$$$
[H]c1c([H])c(-c2c(C(=O)N([H])[H])c([H])n3nc(N([H])C([H])([H])C(=O)N4C([H])([H])C([H])([H])C([H])(N(C([H])([H])[H])C([H])([H])[H])C([H])([H])C4([H])[H])nc3c2[H])c(F)c([H])c1F


 36 39  0  0  0  0  0  0  0  0999 V2000
   42.8035   13.3014  -15.3137 C   0  0  0  0  0  0  0  0  0  0  0  0
   41.8874   13.7707  -14.4573 N   0  0  0  0  0  0  0  0  0  0  0  0
   40.6459   13.3574  -14.8495 C   0  0  0  0  0  0  0  0  0  0  0  0
   39.3647   13.5180  -14.3740 C   0  0  0  0  0  0  0  0  0  0  0  0
   38.2586   12.9536  -14.9994 C   0  0  0  0  0  0  0  0  0  0  0  0
   38.4396   12.2058  -16.1345 C   0  0  0  0  0  0  0  0  0  0  0  0
   39.7632   12.0762  -16.5738 C   0  0  0  0  0  0  0  0  0  0  0  0
   40.8207   12.6244  -15.9646 N   0  0  0  0  0  0  0  0  0  0  0  0
   42.1254   12.5984  -16.2347 N   0  0  0  0  0  0  0  0  0  0  0  0
   36.9394   13.1250  -14.4048 C   0  0  0  0  0  0  0  0  0  0  0  0
   36.4288   12.0968  -13.5976 C   0  0  0  0  0  0  0  0  0  0  0  0
   35.2158   12.1989  -12.9746 C   0  0  0  0  0  0  0  0  0  0  0  0
   34.4631   13.3646  -13.1472 C   0  0  0  0  0  0  0  0  0  0  0  0
   33.2690   13.4260  -12.5083 F   0  0  0  0  0  0  0  0  0  0  0  0
   34.9376   14.3831  -13.9289 C   0  0  0  0  0  0  0  0  0  0  0  0
   36.1844   14.2436  -14.5531 C   0  0  0  0  0  0  0  0  0  0  0  0
   36.6228   15.2632  -15.3277 F   0  0  0  0  0  0  0  0  0  0  0  0
   37.3949   11.5667  -16.9039 C   0  0  0  0  0  0  0  0  0  0  0  0
   37.5275   10.4140  -17.6565 N   0  0  0  0  0  0  0  0  0  0  0  0
   36.2361   12.1107  -16.8960 O   0  0  0  0  0  0  0  0  0  0  0  0
   37.3463    9.4574  -17.2661 H   0  0  0  0  0  0  0  0  0  0  0  0
   37.8026   10.4081  -18.6903 H   0  0  0  0  0  0  0  0  0  0  0  0
   44.2229   13.4695  -15.2923 N   0  0  0  0  0  0  0  0  0  0  0  0
   44.8137   12.8775  -15.9148 H   0  0  0  0  0  0  0  0  0  0  0  0
   44.8850   14.4324  -14.4366 C   0  0  0  0  0  0  0  0  0  0  0  0
   46.2291   11.0274  -11.0578 C   0  0  0  0  0  0  0  0  0  0  0  0
   45.5660   12.3241  -10.6501 C   0  0  0  0  0  0  0  0  0  0  0  0
   45.1233   13.0297  -11.9253 C   0  0  0  0  0  0  0  0  0  0  0  0
   46.2899   13.2573  -12.7349 N   0  0  0  0  0  0  0  0  0  0  0  0
   47.5712   12.8096  -12.2001 C   0  0  0  0  0  0  0  0  0  0  0  0
   47.4969   11.3480  -11.8000 C   0  0  0  0  0  0  0  0  0  0  0  0
   46.1850   13.9048  -13.9753 C   0  0  0  0  0  0  0  0  0  0  0  0
   47.1933   14.0407  -14.6915 O   0  0  0  0  0  0  0  0  0  0  0  0
   47.4520    9.1465  -10.1196 C   0  0  0  0  0  0  0  0  0  0  0  0
   46.4315   10.1116  -10.0042 N   0  0  0  0  0  0  0  0  0  0  0  0
   46.0468   10.5521   -8.7186 C   0  0  0  0  0  0  0  0  0  0  0  0
 34 35  1  0  0  0
 35 36  1  0  0  0
 35 26  1  0  0  0
 26 27  1  0  0  0
 27 28  1  0  0  0
 28 29  1  0  0  0
 29 30  1  0  0  0
 30 31  1  0  0  0
 29 32  1  0  0  0
 32 33  2  0  0  0
 32 25  1  0  0  0
 25 23  1  0  0  0
 23  1  1  0  0  0
  1  2  1  0  0  0
  2  3  2  0  0  0
  3  4  1  0  0  0
  4  5  2  0  0  0
  5  6  1  0  0  0
  6  7  2  0  0  0
  7  8  1  0  0  0
  8  9  1  0  0  0
  6 18  1  0  0  0
 18 19  1  0  0  0
 18 20  2  0  0  0
  5 10  1  0  0  0
 10 11  2  0  0  0
 11 12  1  0  0  0
 12 13  2  0  0  0
 13 14  1  0  0  0
 13 15  1  0  0  0
 15 16  2  0  0  0
 16 17  1  0  0  0
 31 26  1  0  0  0
  9  1  2  0  0  0
 16 10  1  0  0  0
  8  3  1  0  0  0
 23 24  1  0  0  0
 19 21  1  0  0  0
 19 22  1  0  0  0
M  END
> <minimizedAffinity>
-7.56786

> <CNNscore>
0.1515231282

> <CNNaffinity>
6.3594598770

> <CNN_VS>
0.9636052251

> <CNNaffinity_variance>
0.2589465678

$$$$
[H]c1c([H])c(-c2c(C(=O)N([H])[H])c([H])n3nc(N([H])C([H])([H])C(=O)N4C([H])([H])C([H])([H])C([H])(N(C([H])([H])[H])C([H])([H])[H])C([H])([H])C4([H])[H])nc3c2[H])c(F)c([H])c1F


 36 39  0  0  0  0  0  0  0  0999 V2000
   32.5636   15.3801  -11.2994 C   0  0  0  0  0  0  0  0  0  0  0  0
   32.3926   14.5782  -12.3579 N   0  0  0  0  0  0  0  0  0  0  0  0
   33.6109   14.2610  -12.8882 C   0  0  0  0  0  0  0  0  0  0  0  0
   34.0502   13.4937  -13.9426 C   0  0  0  0  0  0  0  0  0  0  0  0
   35.3984   13.3434  -14.2474 C   0  0  0  0  0  0  0  0  0  0  0  0
   36.3353   13.9796  -13.4742 C   0  0  0  0  0  0  0  0  0  0  0  0
   35.8322   14.7470  -12.4160 C   0  0  0  0  0  0  0  0  0  0  0  0
   34.5322   14.8856  -12.1318 N   0  0  0  0  0  0  0  0  0  0  0  0
   33.8887   15.5574  -11.1777 N   0  0  0  0  0  0  0  0  0  0  0  0
   35.7869   12.4712  -15.3481 C   0  0  0  0  0  0  0  0  0  0  0  0
   37.0931   12.5686  -15.8522 C   0  0  0  0  0  0  0  0  0  0  0  0
   37.5442   11.7594  -16.8578 C   0  0  0  0  0  0  0  0  0  0  0  0
   36.6765   10.8053  -17.3985 C   0  0  0  0  0  0  0  0  0  0  0  0
   37.1657   10.0210  -18.3903 F   0  0  0  0  0  0  0  0  0  0  0  0
   35.3975   10.6887  -16.9253 C   0  0  0  0  0  0  0  0  0  0  0  0
   34.9688   11.5356  -15.8945 C   0  0  0  0  0  0  0  0  0  0  0  0
   33.6959   11.4034  -15.4540 F   0  0  0  0  0  0  0  0  0  0  0  0
   37.7677   13.9330  -13.6685 C   0  0  0  0  0  0  0  0  0  0  0  0
   38.5925   12.8584  -13.3896 N   0  0  0  0  0  0  0  0  0  0  0  0
   38.3359   14.9786  -14.1407 O   0  0  0  0  0  0  0  0  0  0  0  0
   38.8216   12.1200  -14.0985 H   0  0  0  0  0  0  0  0  0  0  0  0
   39.0729   12.7078  -12.4457 H   0  0  0  0  0  0  0  0  0  0  0  0
   31.5778   15.9471  -10.4331 N   0  0  0  0  0  0  0  0  0  0  0  0
   31.4038   16.9745  -10.4659 H   0  0  0  0  0  0  0  0  0  0  0  0
   30.8032   15.1530   -9.5019 C   0  0  0  0  0  0  0  0  0  0  0  0
   33.5078   15.9583   -5.3966 C   0  0  0  0  0  0  0  0  0  0  0  0
   32.9993   14.5779   -5.7478 C   0  0  0  0  0  0  0  0  0  0  0  0
   32.3876   14.6588   -7.1404 C   0  0  0  0  0  0  0  0  0  0  0  0
   31.3245   15.6266   -7.1031 N   0  0  0  0  0  0  0  0  0  0  0  0
   31.0588   16.2772   -5.8247 C   0  0  0  0  0  0  0  0  0  0  0  0
   32.3311   16.8852   -5.2649 C   0  0  0  0  0  0  0  0  0  0  0  0
   30.5694   15.9050   -8.2525 C   0  0  0  0  0  0  0  0  0  0  0  0
   29.6931   16.7878   -8.2205 O   0  0  0  0  0  0  0  0  0  0  0  0
   34.6574   17.2496   -3.6865 C   0  0  0  0  0  0  0  0  0  0  0  0
   34.3650   16.0040   -4.2773 N   0  0  0  0  0  0  0  0  0  0  0  0
   34.4013   14.8405   -3.4774 C   0  0  0  0  0  0  0  0  0  0  0  0
 34 35  1  0  0  0
 35 36  1  0  0  0
 35 26  1  0  0  0
 26 27  1  0  0  0
 27 28  1  0  0  0
 28 29  1  0  0  0
 29 30  1  0  0  0
 30 31  1  0  0  0
 29 32  1  0  0  0
 32 33  2  0  0  0
 32 25  1  0  0  0
 25 23  1  0  0  0
 23  1  1  0  0  0
  1  2  1  0  0  0
  2  3  2  0  0  0
  3  4  1  0  0  0
  4  5  2  0  0  0
  5  6  1  0  0  0
  6  7  2  0  0  0
  7  8  1  0  0  0
  8  9  1  0  0  0
  6 18  1  0  0  0
 18 19  1  0  0  0
 18 20  2  0  0  0
  5 10  1  0  0  0
 10 11  2  0  0  0
 11 12  1  0  0  0
 12 13  2  0  0  0
 13 14  1  0  0  0
 13 15  1  0  0  0
 15 16  2  0  0  0
 16 17  1  0  0  0
 31 26  1  0  0  0
  9  1  2  0  0  0
 16 10  1  0  0  0
  8  3  1  0  0  0
 23 24  1  0  0  0
 19 21  1  0  0  0
 19 22  1  0  0  0
M  END
> <minimizedAffinity>
-8.98993

> <CNNscore>
0.0936959237

> <CNNaffinity>
6.0908293724

> <CNN_VS>
0.5706858635

> <CNNaffinity_variance>
0.2756898701

$$$$
[H]c1nc(N2C([H])([H])C([H])([H])N(C(=O)N([H])c3c([H])c([H])c(S(=O)(=O)N([H])[H])c([H])c3[H])C([H])([H])C2([H])[H])c2c([H])c([H])n([H])c2n1


 32 35  0  0  0  0  0  0  0  0999 V2000
   47.4172   16.2086  -12.0743 N   0  0  0  0  0  0  0  0  0  0  0  0
   46.8323   16.7382  -10.9111 C   0  0  0  0  0  0  0  0  0  0  0  0
   46.4191   17.8992  -10.8490 O   0  0  0  0  0  0  0  0  0  0  0  0
   46.7046   15.9212   -9.7578 N   0  0  0  0  0  0  0  0  0  0  0  0
   46.0945   16.4530   -8.5470 C   0  0  0  0  0  0  0  0  0  0  0  0
   45.1525   15.3970   -7.9953 C   0  0  0  0  0  0  0  0  0  0  0  0
   45.7652   14.1157   -7.9281 N   0  0  0  0  0  0  0  0  0  0  0  0
   47.1155   13.9720   -8.4202 C   0  0  0  0  0  0  0  0  0  0  0  0
   47.1824   14.5722   -9.8021 C   0  0  0  0  0  0  0  0  0  0  0  0
   47.7580   15.1749  -12.0542 H   0  0  0  0  0  0  0  0  0  0  0  0
   45.0847   13.0050   -7.3937 C   0  0  0  0  0  0  0  0  0  0  0  0
   45.7600   11.9454   -6.8530 N   0  0  0  0  0  0  0  0  0  0  0  0
   45.1874   10.8655   -6.3491 C   0  0  0  0  0  0  0  0  0  0  0  0
   43.8617   10.7843   -6.3594 N   0  0  0  0  0  0  0  0  0  0  0  0
   43.1206   11.8011   -6.8814 C   0  0  0  0  0  0  0  0  0  0  0  0
   41.7949   11.9625   -7.0034 N   0  0  0  0  0  0  0  0  0  0  0  0
   41.5263   13.1440   -7.5833 C   0  0  0  0  0  0  0  0  0  0  0  0
   42.7184   13.7929   -7.8576 C   0  0  0  0  0  0  0  0  0  0  0  0
   43.7130   12.9367   -7.4114 C   0  0  0  0  0  0  0  0  0  0  0  0
   41.0540   11.2681   -6.6923 H   0  0  0  0  0  0  0  0  0  0  0  0
   48.1987   18.0207  -15.8027 C   0  0  0  0  0  0  0  0  0  0  0  0
   46.9690   18.1097  -15.2047 C   0  0  0  0  0  0  0  0  0  0  0  0
   46.6674   17.5306  -13.9651 C   0  0  0  0  0  0  0  0  0  0  0  0
   47.6446   16.8393  -13.3125 C   0  0  0  0  0  0  0  0  0  0  0  0
   48.9058   16.7316  -13.8950 C   0  0  0  0  0  0  0  0  0  0  0  0
   49.1653   17.3140  -15.1144 C   0  0  0  0  0  0  0  0  0  0  0  0
   47.0964   19.1145  -18.2245 N   0  0  0  0  0  0  0  0  0  0  0  0
   48.5572   18.7501  -17.3512 S   0  0  0  0  0  0  0  0  0  0  0  0
   49.3666   17.7903  -18.1775 O   0  0  0  0  0  0  0  0  0  0  0  0
   49.3674   20.0014  -17.2090 O   0  0  0  0  0  0  0  0  0  0  0  0
   47.1110   20.1091  -18.5351 H   0  0  0  0  0  0  0  0  0  0  0  0
   46.3095   19.0178  -17.5204 H   0  0  0  0  0  0  0  0  0  0  0  0
 27 28  1  0  0  0
 28 29  2  0  0  0
 28 30  2  0  0  0
 28 21  1  0  0  0
 21 22  2  0  0  0
 22 23  1  0  0  0
 23 24  2  0  0  0
 24  1  1  0  0  0
  1  2  1  0  0  0
  2  3  2  0  0  0
  2  4  1  0  0  0
  4  5  1  0  0  0
  5  6  1  0  0  0
  6  7  1  0  0  0
  7  8  1  0  0  0
  8  9  1  0  0  0
  7 11  1  0  0  0
 11 12  2  0  0  0
 12 13  1  0  0  0
 13 14  2  0  0  0
 14 15  1  0  0  0
 15 16  1  0  0  0
 16 17  1  0  0  0
 17 18  2  0  0  0
 18 19  1  0  0  0
 24 25  1  0  0  0
 25 26  2  0  0  0
 26 21  1  0  0  0
  9  4  1  0  0  0
 19 11  1  0  0  0
 19 15  2  0  0  0
 27 31  1  0  0  0
 27 32  1  0  0  0
  1 10  1  0  0  0
 16 20  1  0  0  0
M  END
> <minimizedAffinity>
-3.30778

> <CNNscore>
0.4984306693

> <CNNaffinity>
4.9968986511

> <CNN_VS>
2.4906075001

> <CNNaffinity_variance>
0.5613096952

$$$$
[H]c1nc(N2C([H])([H])C([H])([H])N(C(=O)N([H])c3c([H])c([H])c(S(=O)(=O)N([H])[H])c([H])c3[H])C([H])([H])C2([H])[H])c2c([H])c([H])n([H])c2n1


 32 35  0  0  0  0  0  0  0  0999 V2000
   37.1049   15.1657  -11.3629 N   0  0  0  0  0  0  0  0  0  0  0  0
   36.0820   14.7098  -12.2124 C   0  0  0  0  0  0  0  0  0  0  0  0
   34.9582   15.2189  -12.2258 O   0  0  0  0  0  0  0  0  0  0  0  0
   36.3348   13.6258  -13.0928 N   0  0  0  0  0  0  0  0  0  0  0  0
   35.2877   13.1463  -13.9841 C   0  0  0  0  0  0  0  0  0  0  0  0
   35.9091   12.9059  -15.3490 C   0  0  0  0  0  0  0  0  0  0  0  0
   37.1119   12.1525  -15.2643 N   0  0  0  0  0  0  0  0  0  0  0  0
   37.5991   11.7786  -13.9570 C   0  0  0  0  0  0  0  0  0  0  0  0
   37.6290   13.0134  -13.0917 C   0  0  0  0  0  0  0  0  0  0  0  0
   38.0715   14.6671  -11.4076 H   0  0  0  0  0  0  0  0  0  0  0  0
   37.8201   11.7700  -16.4195 C   0  0  0  0  0  0  0  0  0  0  0  0
   37.2358   11.0147  -17.3989 N   0  0  0  0  0  0  0  0  0  0  0  0
   37.8444   10.6072  -18.4995 C   0  0  0  0  0  0  0  0  0  0  0  0
   39.1153   10.9450  -18.6864 N   0  0  0  0  0  0  0  0  0  0  0  0
   39.7650   11.6967  -17.7545 C   0  0  0  0  0  0  0  0  0  0  0  0
   41.0203   12.1663  -17.7096 N   0  0  0  0  0  0  0  0  0  0  0  0
   41.2079   12.8719  -16.5821 C   0  0  0  0  0  0  0  0  0  0  0  0
   40.0331   12.8714  -15.8492 C   0  0  0  0  0  0  0  0  0  0  0  0
   39.1341   12.1281  -16.5980 C   0  0  0  0  0  0  0  0  0  0  0  0
   41.7673   12.0119  -18.4485 H   0  0  0  0  0  0  0  0  0  0  0  0
   37.0650   18.3630   -8.6115 C   0  0  0  0  0  0  0  0  0  0  0  0
   36.1068   17.3838   -8.5883 C   0  0  0  0  0  0  0  0  0  0  0  0
   36.0852   16.3008   -9.4770 C   0  0  0  0  0  0  0  0  0  0  0  0
   37.0669   16.2095  -10.4186 C   0  0  0  0  0  0  0  0  0  0  0  0
   38.0557   17.1899  -10.4670 C   0  0  0  0  0  0  0  0  0  0  0  0
   38.0445   18.2395   -9.5772 C   0  0  0  0  0  0  0  0  0  0  0  0
   37.8572   21.0970   -8.1939 N   0  0  0  0  0  0  0  0  0  0  0  0
   37.0760   19.7082   -7.4939 S   0  0  0  0  0  0  0  0  0  0  0  0
   37.8364   19.3205   -6.2566 O   0  0  0  0  0  0  0  0  0  0  0  0
   35.6945   20.0903   -7.0607 O   0  0  0  0  0  0  0  0  0  0  0  0
   37.2376   21.9304   -8.1067 H   0  0  0  0  0  0  0  0  0  0  0  0
   37.9502   20.8829   -9.2282 H   0  0  0  0  0  0  0  0  0  0  0  0
 27 28  1  0  0  0
 28 29  2  0  0  0
 28 30  2  0  0  0
 28 21  1  0  0  0
 21 22  2  0  0  0
 22 23  1  0  0  0
 23 24  2  0  0  0
 24  1  1  0  0  0
  1  2  1  0  0  0
  2  3  2  0  0  0
  2  4  1  0  0  0
  4  5  1  0  0  0
  5  6  1  0  0  0
  6  7  1  0  0  0
  7  8  1  0  0  0
  8  9  1  0  0  0
  7 11  1  0  0  0
 11 12  2  0  0  0
 12 13  1  0  0  0
 13 14  2  0  0  0
 14 15  1  0  0  0
 15 16  1  0  0  0
 16 17  1  0  0  0
 17 18  2  0  0  0
 18 19  1  0  0  0
 24 25  1  0  0  0
 25 26  2  0  0  0
 26 21  1  0  0  0
  9  4  1  0  0  0
 19 11  1  0  0  0
 19 15  2  0  0  0
 27 31  1  0  0  0
 27 32  1  0  0  0
  1 10  1  0  0  0
 16 20  1  0  0  0
M  END
> <minimizedAffinity>
-8.90628

> <CNNscore>
0.3887107968

> <CNNaffinity>
6.4136338234

> <CNN_VS>
2.4930486679

> <CNNaffinity_variance>
0.6896113157

$$$$
[H]c1nc(N2C([H])([H])C([H])([H])N(C(=O)N([H])c3c([H])c([H])c(S(=O)(=O)N([H])[H])c([H])c3[H])C([H])([H])C2([H])[H])c2c([H])c([H])n([H])c2n1


 32 35  0  0  0  0  0  0  0  0999 V2000
   35.3300   15.0399  -10.4400 N   0  0  0  0  0  0  0  0  0  0  0  0
   34.7528   14.8581  -11.7087 C   0  0  0  0  0  0  0  0  0  0  0  0
   33.7460   15.4728  -12.0708 O   0  0  0  0  0  0  0  0  0  0  0  0
   35.3368   13.9382  -12.6178 N   0  0  0  0  0  0  0  0  0  0  0  0
   34.7547   13.7436  -13.9386 C   0  0  0  0  0  0  0  0  0  0  0  0
   35.8889   13.7010  -14.9479 C   0  0  0  0  0  0  0  0  0  0  0  0
   36.9338   12.8261  -14.5421 N   0  0  0  0  0  0  0  0  0  0  0  0
   36.8208   12.1663  -13.2624 C   0  0  0  0  0  0  0  0  0  0  0  0
   36.5017   13.2075  -12.2190 C   0  0  0  0  0  0  0  0  0  0  0  0
   36.2187   14.4624  -10.1914 H   0  0  0  0  0  0  0  0  0  0  0  0
   38.0565   12.5965  -15.3601 C   0  0  0  0  0  0  0  0  0  0  0  0
   39.2723   13.1568  -15.0790 N   0  0  0  0  0  0  0  0  0  0  0  0
   40.3621   12.9973  -15.8102 C   0  0  0  0  0  0  0  0  0  0  0  0
   40.2921   12.2421  -16.9007 N   0  0  0  0  0  0  0  0  0  0  0  0
   39.1148   11.6501  -17.2454 C   0  0  0  0  0  0  0  0  0  0  0  0
   38.7888   10.8521  -18.2727 N   0  0  0  0  0  0  0  0  0  0  0  0
   37.4936   10.5049  -18.1932 C   0  0  0  0  0  0  0  0  0  0  0  0
   36.9371   11.0943  -17.0706 C   0  0  0  0  0  0  0  0  0  0  0  0
   37.9677   11.8122  -16.4842 C   0  0  0  0  0  0  0  0  0  0  0  0
   39.4462   10.5329  -19.0433 H   0  0  0  0  0  0  0  0  0  0  0  0
   34.1732   17.6601   -7.3430 C   0  0  0  0  0  0  0  0  0  0  0  0
   33.3244   16.6978   -7.8240 C   0  0  0  0  0  0  0  0  0  0  0  0
   33.6688   15.8023   -8.8450 C   0  0  0  0  0  0  0  0  0  0  0  0
   34.9134   15.8867   -9.3950 C   0  0  0  0  0  0  0  0  0  0  0  0
   35.7993   16.8548   -8.9266 C   0  0  0  0  0  0  0  0  0  0  0  0
   35.4257   17.7175   -7.9218 C   0  0  0  0  0  0  0  0  0  0  0  0
   32.7273   20.0572   -6.6797 N   0  0  0  0  0  0  0  0  0  0  0  0
   33.7260   18.7699   -6.0675 S   0  0  0  0  0  0  0  0  0  0  0  0
   34.9680   19.3820   -5.4828 O   0  0  0  0  0  0  0  0  0  0  0  0
   33.0058   18.0810   -4.9499 O   0  0  0  0  0  0  0  0  0  0  0  0
   31.8635   20.1374   -6.1023 H   0  0  0  0  0  0  0  0  0  0  0  0
   32.4282   19.7517   -7.6499 H   0  0  0  0  0  0  0  0  0  0  0  0
 27 28  1  0  0  0
 28 29  2  0  0  0
 28 30  2  0  0  0
 28 21  1  0  0  0
 21 22  2  0  0  0
 22 23  1  0  0  0
 23 24  2  0  0  0
 24  1  1  0  0  0
  1  2  1  0  0  0
  2  3  2  0  0  0
  2  4  1  0  0  0
  4  5  1  0  0  0
  5  6  1  0  0  0
  6  7  1  0  0  0
  7  8  1  0  0  0
  8  9  1  0  0  0
  7 11  1  0  0  0
 11 12  2  0  0  0
 12 13  1  0  0  0
 13 14  2  0  0  0
 14 15  1  0  0  0
 15 16  1  0  0  0
 16 17  1  0  0  0
 17 18  2  0  0  0
 18 19  1  0  0  0
 24 25  1  0  0  0
 25 26  2  0  0  0
 26 21  1  0  0  0
  9  4  1  0  0  0
 19 11  1  0  0  0
 19 15  2  0  0  0
 27 31  1  0  0  0
 27 32  1  0  0  0
  1 10  1  0  0  0
 16 20  1  0  0  0
M  END
> <minimizedAffinity>
-8.34967

> <CNNscore>
0.2470315844

> <CNNaffinity>
6.1013031006

> <CNN_VS>
1.5072145462

> <CNNaffinity_variance>
1.0569570065

$$$$
[H]c1nc(N2C([H])([H])C([H])([H])N(C(=O)N([H])c3c([H])c([H])c(S(=O)(=O)N([H])[H])c([H])c3[H])C([H])([H])C2([H])[H])c2c([H])c([H])n([H])c2n1


 32 35  0  0  0  0  0  0  0  0999 V2000
   35.5607   15.0249  -10.6022 N   0  0  0  0  0  0  0  0  0  0  0  0
   34.8667   14.8269  -11.8084 C   0  0  0  0  0  0  0  0  0  0  0  0
   33.8665   15.4832  -12.1106 O   0  0  0  0  0  0  0  0  0  0  0  0
   35.3198   13.8407  -12.7227 N   0  0  0  0  0  0  0  0  0  0  0  0
   34.6158   13.6283  -13.9797 C   0  0  0  0  0  0  0  0  0  0  0  0
   35.6543   13.4821  -15.0784 C   0  0  0  0  0  0  0  0  0  0  0  0
   36.6823   12.5658  -14.7247 N   0  0  0  0  0  0  0  0  0  0  0  0
   36.6459   11.9637  -13.4124 C   0  0  0  0  0  0  0  0  0  0  0  0
   36.4744   13.0611  -12.3923 C   0  0  0  0  0  0  0  0  0  0  0  0
   36.4356   14.4080  -10.4046 H   0  0  0  0  0  0  0  0  0  0  0  0
   37.7160   12.2412  -15.6238 C   0  0  0  0  0  0  0  0  0  0  0  0
   37.4982   11.4229  -16.6981 N   0  0  0  0  0  0  0  0  0  0  0  0
   38.4237   11.0643  -17.5715 C   0  0  0  0  0  0  0  0  0  0  0  0
   39.6607   11.5210  -17.4117 N   0  0  0  0  0  0  0  0  0  0  0  0
   39.9545   12.3415  -16.3648 C   0  0  0  0  0  0  0  0  0  0  0  0
   41.1002   12.9303  -15.9916 N   0  0  0  0  0  0  0  0  0  0  0  0
   40.9018   13.6624  -14.8830 C   0  0  0  0  0  0  0  0  0  0  0  0
   39.5741   13.5565  -14.5045 C   0  0  0  0  0  0  0  0  0  0  0  0
   38.9900   12.7223  -15.4449 C   0  0  0  0  0  0  0  0  0  0  0  0
   42.0344   12.8407  -16.4887 H   0  0  0  0  0  0  0  0  0  0  0  0
   34.6425   17.6640   -7.4419 C   0  0  0  0  0  0  0  0  0  0  0  0
   35.8048   17.7789   -8.1587 C   0  0  0  0  0  0  0  0  0  0  0  0
   36.1468   16.9303   -9.2198 C   0  0  0  0  0  0  0  0  0  0  0  0
   35.2820   15.9339   -9.5636 C   0  0  0  0  0  0  0  0  0  0  0  0
   34.0916   15.7920   -8.8535 C   0  0  0  0  0  0  0  0  0  0  0  0
   33.7894   16.6448   -7.8168 C   0  0  0  0  0  0  0  0  0  0  0  0
   33.2119   20.0347   -6.6613 N   0  0  0  0  0  0  0  0  0  0  0  0
   34.2321   18.7327   -6.1198 S   0  0  0  0  0  0  0  0  0  0  0  0
   35.4901   19.3308   -5.5551 O   0  0  0  0  0  0  0  0  0  0  0  0
   33.5484   18.0074   -5.0023 O   0  0  0  0  0  0  0  0  0  0  0  0
   32.3661   20.0942   -6.0554 H   0  0  0  0  0  0  0  0  0  0  0  0
   32.8837   19.7580   -7.6308 H   0  0  0  0  0  0  0  0  0  0  0  0
 27 28  1  0  0  0
 28 29  2  0  0  0
 28 30  2  0  0  0
 28 21  1  0  0  0
 21 22  2  0  0  0
 22 23  1  0  0  0
 23 24  2  0  0  0
 24  1  1  0  0  0
  1  2  1  0  0  0
  2  3  2  0  0  0
  2  4  1  0  0  0
  4  5  1  0  0  0
  5  6  1  0  0  0
  6  7  1  0  0  0
  7  8  1  0  0  0
  8  9  1  0  0  0
  7 11  1  0  0  0
 11 12  2  0  0  0
 12 13  1  0  0  0
 13 14  2  0  0  0
 14 15  1  0  0  0
 15 16  1  0  0  0
 16 17  1  0  0  0
 17 18  2  0  0  0
 18 19  1  0  0  0
 24 25  1  0  0  0
 25 26  2  0  0  0
 26 21  1  0  0  0
  9  4  1  0  0  0
 19 11  1  0  0  0
 19 15  2  0  0  0
 27 31  1  0  0  0
 27 32  1  0  0  0
  1 10  1  0  0  0
 16 20  1  0  0  0
M  END
> <minimizedAffinity>
-8.17873

> <CNNscore>
0.2193438262

> <CNNaffinity>
6.1456160545

> <CNN_VS>
1.3480029106

> <CNNaffinity_variance>
1.1573503017

$$$$
[H]c1nc(N2C([H])([H])C([H])([H])N(C(=O)N([H])c3c([H])c([H])c(S(=O)(=O)N([H])[H])c([H])c3[H])C([H])([H])C2([H])[H])c2c([H])c([H])n([H])c2n1


 32 35  0  0  0  0  0  0  0  0999 V2000
   34.2963   15.3764  -11.0117 N   0  0  0  0  0  0  0  0  0  0  0  0
   35.5535   14.7485  -10.9801 C   0  0  0  0  0  0  0  0  0  0  0  0
   36.1295   14.4757   -9.9235 O   0  0  0  0  0  0  0  0  0  0  0  0
   36.1971   14.4093  -12.1985 N   0  0  0  0  0  0  0  0  0  0  0  0
   37.4967   13.7521  -12.1826 C   0  0  0  0  0  0  0  0  0  0  0  0
   37.4704   12.6388  -13.2153 C   0  0  0  0  0  0  0  0  0  0  0  0
   36.9603   13.0813  -14.4666 N   0  0  0  0  0  0  0  0  0  0  0  0
   36.5005   14.4459  -14.5785 C   0  0  0  0  0  0  0  0  0  0  0  0
   35.5525   14.7213  -13.4384 C   0  0  0  0  0  0  0  0  0  0  0  0
   33.8496   15.5852  -11.9822 H   0  0  0  0  0  0  0  0  0  0  0  0
   36.9019   12.2213  -15.5798 C   0  0  0  0  0  0  0  0  0  0  0  0
   35.7436   11.5836  -15.9304 N   0  0  0  0  0  0  0  0  0  0  0  0
   35.6210   10.7523  -16.9510 C   0  0  0  0  0  0  0  0  0  0  0  0
   36.6879   10.5053  -17.7026 N   0  0  0  0  0  0  0  0  0  0  0  0
   37.8773   11.1040  -17.4156 C   0  0  0  0  0  0  0  0  0  0  0  0
   39.0768   11.0279  -18.0105 N   0  0  0  0  0  0  0  0  0  0  0  0
   39.9596   11.8107  -17.3684 C   0  0  0  0  0  0  0  0  0  0  0  0
   39.3234   12.4308  -16.3064 C   0  0  0  0  0  0  0  0  0  0  0  0
   38.0143   11.9768  -16.3475 C   0  0  0  0  0  0  0  0  0  0  0  0
   39.3100   10.4402  -18.8637 H   0  0  0  0  0  0  0  0  0  0  0  0
   31.7956   16.5855   -7.8369 C   0  0  0  0  0  0  0  0  0  0  0  0
   33.1590   16.5505   -7.7038 C   0  0  0  0  0  0  0  0  0  0  0  0
   34.0274   16.1633   -8.7327 C   0  0  0  0  0  0  0  0  0  0  0  0
   33.4950   15.7999   -9.9341 C   0  0  0  0  0  0  0  0  0  0  0  0
   32.1119   15.8257  -10.1003 C   0  0  0  0  0  0  0  0  0  0  0  0
   31.2900   16.2119   -9.0665 C   0  0  0  0  0  0  0  0  0  0  0  0
   29.6271   15.7892   -6.1223 N   0  0  0  0  0  0  0  0  0  0  0  0
   30.7266   17.0718   -6.5409 S   0  0  0  0  0  0  0  0  0  0  0  0
   29.9138   18.2557   -6.9846 O   0  0  0  0  0  0  0  0  0  0  0  0
   31.4811   17.4888   -5.3165 O   0  0  0  0  0  0  0  0  0  0  0  0
   29.6611   15.6179   -5.0949 H   0  0  0  0  0  0  0  0  0  0  0  0
   30.0057   14.9201   -6.5973 H   0  0  0  0  0  0  0  0  0  0  0  0
 27 28  1  0  0  0
 28 29  2  0  0  0
 28 30  2  0  0  0
 28 21  1  0  0  0
 21 22  2  0  0  0
 22 23  1  0  0  0
 23 24  2  0  0  0
 24  1  1  0  0  0
  1  2  1  0  0  0
  2  3  2  0  0  0
  2  4  1  0  0  0
  4  5  1  0  0  0
  5  6  1  0  0  0
  6  7  1  0  0  0
  7  8  1  0  0  0
  8  9  1  0  0  0
  7 11  1  0  0  0
 11 12  2  0  0  0
 12 13  1  0  0  0
 13 14  2  0  0  0
 14 15  1  0  0  0
 15 16  1  0  0  0
 16 17  1  0  0  0
 17 18  2  0  0  0
 18 19  1  0  0  0
 24 25  1  0  0  0
 25 26  2  0  0  0
 26 21  1  0  0  0
  9  4  1  0  0  0
 19 11  1  0  0  0
 19 15  2  0  0  0
 27 31  1  0  0  0
 27 32  1  0  0  0
  1 10  1  0  0  0
 16 20  1  0  0  0
M  END
> <minimizedAffinity>
-8.85904

> <CNNscore>
0.2126021385

> <CNNaffinity>
6.0175938606

> <CNN_VS>
1.2793533802

> <CNNaffinity_variance>
0.8835946321

$$$$
[H]c1nc(N2C([H])([H])C([H])([H])N(C(=O)N([H])c3c([H])c([H])c(S(=O)(=O)N([H])[H])c([H])c3[H])C([H])([H])C2([H])[H])c2c([H])c([H])n([H])c2n1


 32 35  0  0  0  0  0  0  0  0999 V2000
   35.4875   15.1267   -9.9602 N   0  0  0  0  0  0  0  0  0  0  0  0
   36.7452   14.9029  -10.5467 C   0  0  0  0  0  0  0  0  0  0  0  0
   37.7916   14.9216   -9.8932 O   0  0  0  0  0  0  0  0  0  0  0  0
   36.8318   14.6444  -11.9394 N   0  0  0  0  0  0  0  0  0  0  0  0
   38.1268   14.4037  -12.5608 C   0  0  0  0  0  0  0  0  0  0  0  0
   37.9768   13.2318  -13.5153 C   0  0  0  0  0  0  0  0  0  0  0  0
   36.8444   13.3737  -14.3632 N   0  0  0  0  0  0  0  0  0  0  0  0
   35.9894   14.5237  -14.1829 C   0  0  0  0  0  0  0  0  0  0  0  0
   35.6324   14.6240  -12.7211 C   0  0  0  0  0  0  0  0  0  0  0  0
   34.6078   15.0939  -10.6007 H   0  0  0  0  0  0  0  0  0  0  0  0
   36.5529   12.4248  -15.3618 C   0  0  0  0  0  0  0  0  0  0  0  0
   35.2940   11.9121  -15.5150 N   0  0  0  0  0  0  0  0  0  0  0  0
   34.9536   11.0089  -16.4184 C   0  0  0  0  0  0  0  0  0  0  0  0
   35.8870   10.5537  -17.2465 N   0  0  0  0  0  0  0  0  0  0  0  0
   37.1644   11.0177  -17.1551 C   0  0  0  0  0  0  0  0  0  0  0  0
   38.2673   10.7291  -17.8613 N   0  0  0  0  0  0  0  0  0  0  0  0
   39.3065   11.4490  -17.4071 C   0  0  0  0  0  0  0  0  0  0  0  0
   38.8787   12.2464  -16.3591 C   0  0  0  0  0  0  0  0  0  0  0  0
   37.5295   11.9647  -16.2109 C   0  0  0  0  0  0  0  0  0  0  0  0
   38.3264   10.0362  -18.6640 H   0  0  0  0  0  0  0  0  0  0  0  0
   34.6318   15.8559   -5.8944 C   0  0  0  0  0  0  0  0  0  0  0  0
   34.5224   16.8422   -6.8394 C   0  0  0  0  0  0  0  0  0  0  0  0
   34.7889   16.6432   -8.2004 C   0  0  0  0  0  0  0  0  0  0  0  0
   35.1789   15.4042   -8.6148 C   0  0  0  0  0  0  0  0  0  0  0  0
   35.2988   14.3804   -7.6773 C   0  0  0  0  0  0  0  0  0  0  0  0
   35.0284   14.6134   -6.3484 C   0  0  0  0  0  0  0  0  0  0  0  0
   33.6347   14.6923   -3.4596 N   0  0  0  0  0  0  0  0  0  0  0  0
   34.2949   16.1227   -4.1991 S   0  0  0  0  0  0  0  0  0  0  0  0
   33.2848   17.2271   -4.0608 O   0  0  0  0  0  0  0  0  0  0  0  0
   35.5165   16.5452   -3.4431 O   0  0  0  0  0  0  0  0  0  0  0  0
   34.1761   14.4584   -2.6004 H   0  0  0  0  0  0  0  0  0  0  0  0
   33.7972   13.9086   -4.1551 H   0  0  0  0  0  0  0  0  0  0  0  0
 27 28  1  0  0  0
 28 29  2  0  0  0
 28 30  2  0  0  0
 28 21  1  0  0  0
 21 22  2  0  0  0
 22 23  1  0  0  0
 23 24  2  0  0  0
 24  1  1  0  0  0
  1  2  1  0  0  0
  2  3  2  0  0  0
  2  4  1  0  0  0
  4  5  1  0  0  0
  5  6  1  0  0  0
  6  7  1  0  0  0
  7  8  1  0  0  0
  8  9  1  0  0  0
  7 11  1  0  0  0
 11 12  2  0  0  0
 12 13  1  0  0  0
 13 14  2  0  0  0
 14 15  1  0  0  0
 15 16  1  0  0  0
 16 17  1  0  0  0
 17 18  2  0  0  0
 18 19  1  0  0  0
 24 25  1  0  0  0
 25 26  2  0  0  0
 26 21  1  0  0  0
  9  4  1  0  0  0
 19 11  1  0  0  0
 19 15  2  0  0  0
 27 31  1  0  0  0
 27 32  1  0  0  0
  1 10  1  0  0  0
 16 20  1  0  0  0
M  END
> <minimizedAffinity>
-8.63996

> <CNNscore>
0.1868968457

> <CNNaffinity>
5.9337778091

> <CNN_VS>
1.1090043783

> <CNNaffinity_variance>
0.6013170481

$$$$
[H]c1nc(N2C([H])([H])C([H])([H])N(C(=O)N([H])c3c([H])c([H])c(S(=O)(=O)N([H])[H])c([H])c3[H])C([H])([H])C2([H])[H])c2c([H])c([H])n([H])c2n1


 32 35  0  0  0  0  0  0  0  0999 V2000
   35.4276   14.9693  -10.1529 N   0  0  0  0  0  0  0  0  0  0  0  0
   36.7215   14.8577  -10.6906 C   0  0  0  0  0  0  0  0  0  0  0  0
   37.7365   14.9561   -9.9960 O   0  0  0  0  0  0  0  0  0  0  0  0
   36.8836   14.6230  -12.0807 N   0  0  0  0  0  0  0  0  0  0  0  0
   38.2174   14.4980  -12.6521 C   0  0  0  0  0  0  0  0  0  0  0  0
   38.2033   13.3285  -13.6211 C   0  0  0  0  0  0  0  0  0  0  0  0
   37.0969   13.3851  -14.5123 N   0  0  0  0  0  0  0  0  0  0  0  0
   36.1423   14.4578  -14.3569 C   0  0  0  0  0  0  0  0  0  0  0  0
   35.7215   14.5115  -12.9096 C   0  0  0  0  0  0  0  0  0  0  0  0
   34.5794   14.8706  -10.8280 H   0  0  0  0  0  0  0  0  0  0  0  0
   36.9249   12.4266  -15.5291 C   0  0  0  0  0  0  0  0  0  0  0  0
   37.9619   12.0470  -16.3363 N   0  0  0  0  0  0  0  0  0  0  0  0
   37.8686   11.1668  -17.3183 C   0  0  0  0  0  0  0  0  0  0  0  0
   36.6913   10.5988  -17.5543 N   0  0  0  0  0  0  0  0  0  0  0  0
   35.6114   10.9262  -16.7914 C   0  0  0  0  0  0  0  0  0  0  0  0
   34.3402   10.5000  -16.8214 N   0  0  0  0  0  0  0  0  0  0  0  0
   33.6277   11.1085  -15.8589 C   0  0  0  0  0  0  0  0  0  0  0  0
   34.4562   11.9722  -15.1625 C   0  0  0  0  0  0  0  0  0  0  0  0
   35.7008   11.8479  -15.7599 C   0  0  0  0  0  0  0  0  0  0  0  0
   33.9406    9.7872  -17.4997 H   0  0  0  0  0  0  0  0  0  0  0  0
   34.1803   15.7431   -6.1980 C   0  0  0  0  0  0  0  0  0  0  0  0
   35.0160   14.6988   -6.4961 C   0  0  0  0  0  0  0  0  0  0  0  0
   35.4612   14.4095   -7.7927 C   0  0  0  0  0  0  0  0  0  0  0  0
   35.0447   15.2051   -8.8186 C   0  0  0  0  0  0  0  0  0  0  0  0
   34.1948   16.2753   -8.5469 C   0  0  0  0  0  0  0  0  0  0  0  0
   33.7782   16.5288   -7.2602 C   0  0  0  0  0  0  0  0  0  0  0  0
   33.5797   14.6407   -3.6095 N   0  0  0  0  0  0  0  0  0  0  0  0
   33.6345   16.0891   -4.5729 S   0  0  0  0  0  0  0  0  0  0  0  0
   32.2473   16.6655   -4.6265 O   0  0  0  0  0  0  0  0  0  0  0  0
   34.5052   17.0982   -3.8905 O   0  0  0  0  0  0  0  0  0  0  0  0
   34.1021   14.7897   -2.7201 H   0  0  0  0  0  0  0  0  0  0  0  0
   34.1080   13.9072   -4.1637 H   0  0  0  0  0  0  0  0  0  0  0  0
 27 28  1  0  0  0
 28 29  2  0  0  0
 28 30  2  0  0  0
 28 21  1  0  0  0
 21 22  2  0  0  0
 22 23  1  0  0  0
 23 24  2  0  0  0
 24  1  1  0  0  0
  1  2  1  0  0  0
  2  3  2  0  0  0
  2  4  1  0  0  0
  4  5  1  0  0  0
  5  6  1  0  0  0
  6  7  1  0  0  0
  7  8  1  0  0  0
  8  9  1  0  0  0
  7 11  1  0  0  0
 11 12  2  0  0  0
 12 13  1  0  0  0
 13 14  2  0  0  0
 14 15  1  0  0  0
 15 16  1  0  0  0
 16 17  1  0  0  0
 17 18  2  0  0  0
 18 19  1  0  0  0
 24 25  1  0  0  0
 25 26  2  0  0  0
 26 21  1  0  0  0
  9  4  1  0  0  0
 19 11  1  0  0  0
 19 15  2  0  0  0
 27 31  1  0  0  0
 27 32  1  0  0  0
  1 10  1  0  0  0
 16 20  1  0  0  0
M  END
> <minimizedAffinity>
-8.84795

> <CNNscore>
0.1681370139

> <CNNaffinity>
5.9632225037

> <CNN_VS>
1.0026384592

> <CNNaffinity_variance>
0.5755490661

$$$$
[H]c1nc(N2C([H])([H])C([H])([H])N(C(=O)N([H])c3c([H])c([H])c(S(=O)(=O)N([H])[H])c([H])c3[H])C([H])([H])C2([H])[H])c2c([H])c([H])n([H])c2n1


 32 35  0  0  0  0  0  0  0  0999 V2000
   34.9776   11.2680  -15.6082 N   0  0  0  0  0  0  0  0  0  0  0  0
   36.2127   11.8877  -15.8657 C   0  0  0  0  0  0  0  0  0  0  0  0
   36.7072   11.9316  -16.9953 O   0  0  0  0  0  0  0  0  0  0  0  0
   36.9294   12.4896  -14.7990 N   0  0  0  0  0  0  0  0  0  0  0  0
   38.2071   13.1417  -15.0506 C   0  0  0  0  0  0  0  0  0  0  0  0
   38.2228   14.4519  -14.2825 C   0  0  0  0  0  0  0  0  0  0  0  0
   37.8118   14.2853  -12.9316 N   0  0  0  0  0  0  0  0  0  0  0  0
   37.3968   12.9724  -12.4955 C   0  0  0  0  0  0  0  0  0  0  0  0
   36.3801   12.4464  -13.4774 C   0  0  0  0  0  0  0  0  0  0  0  0
   34.6044   11.2695  -14.5856 H   0  0  0  0  0  0  0  0  0  0  0  0
   37.8075   15.3652  -12.0282 C   0  0  0  0  0  0  0  0  0  0  0  0
   36.6640   16.0646  -11.7557 N   0  0  0  0  0  0  0  0  0  0  0  0
   36.5906   17.0966  -10.9326 C   0  0  0  0  0  0  0  0  0  0  0  0
   37.6962   17.4989  -10.3159 N   0  0  0  0  0  0  0  0  0  0  0  0
   38.8739   16.8512  -10.5367 C   0  0  0  0  0  0  0  0  0  0  0  0
   40.1048   17.0526  -10.0438 N   0  0  0  0  0  0  0  0  0  0  0  0
   40.9583   16.1489  -10.5529 C   0  0  0  0  0  0  0  0  0  0  0  0
   40.2692   15.3150  -11.4172 C   0  0  0  0  0  0  0  0  0  0  0  0
   38.9594   15.7684  -11.3979 C   0  0  0  0  0  0  0  0  0  0  0  0
   40.3799   17.8102   -9.3523 H   0  0  0  0  0  0  0  0  0  0  0  0
   32.4167    9.1948  -18.2423 C   0  0  0  0  0  0  0  0  0  0  0  0
   32.3370   10.5537  -18.0844 C   0  0  0  0  0  0  0  0  0  0  0  0
   33.1713   11.2835  -17.2274 C   0  0  0  0  0  0  0  0  0  0  0  0
   34.1154   10.6127  -16.5081 C   0  0  0  0  0  0  0  0  0  0  0  0
   34.2211    9.2304  -16.6475 C   0  0  0  0  0  0  0  0  0  0  0  0
   33.3840    8.5470  -17.4994 C   0  0  0  0  0  0  0  0  0  0  0  0
   29.8269    9.0930  -19.4910 N   0  0  0  0  0  0  0  0  0  0  0  0
   31.3665    8.3000  -19.3170 S   0  0  0  0  0  0  0  0  0  0  0  0
   31.1231    6.9303  -18.7479 O   0  0  0  0  0  0  0  0  0  0  0  0
   31.9764    8.1128  -20.6717 O   0  0  0  0  0  0  0  0  0  0  0  0
   29.6054    9.2133  -20.5022 H   0  0  0  0  0  0  0  0  0  0  0  0
   29.9555   10.0624  -19.0811 H   0  0  0  0  0  0  0  0  0  0  0  0
 27 28  1  0  0  0
 28 29  2  0  0  0
 28 30  2  0  0  0
 28 21  1  0  0  0
 21 22  2  0  0  0
 22 23  1  0  0  0
 23 24  2  0  0  0
 24  1  1  0  0  0
  1  2  1  0  0  0
  2  3  2  0  0  0
  2  4  1  0  0  0
  4  5  1  0  0  0
  5  6  1  0  0  0
  6  7  1  0  0  0
  7  8  1  0  0  0
  8  9  1  0  0  0
  7 11  1  0  0  0
 11 12  2  0  0  0
 12 13  1  0  0  0
 13 14  2  0  0  0
 14 15  1  0  0  0
 15 16  1  0  0  0
 16 17  1  0  0  0
 17 18  2  0  0  0
 18 19  1  0  0  0
 24 25  1  0  0  0
 25 26  2  0  0  0
 26 21  1  0  0  0
  9  4  1  0  0  0
 19 11  1  0  0  0
 19 15  2  0  0  0
 27 31  1  0  0  0
 27 32  1  0  0  0
  1 10  1  0  0  0
 16 20  1  0  0  0
M  END
> <minimizedAffinity>
-2.21023

> <CNNscore>
0.1457079947

> <CNNaffinity>
5.9302392006

> <CNN_VS>
0.8640832901

> <CNNaffinity_variance>
0.3518404961

$$$$
[H]c1nc(N2C([H])([H])C([H])([H])N(C(=O)N([H])c3c([H])c([H])c(S(=O)(=O)N([H])[H])c([H])c3[H])C([H])([H])C2([H])[H])c2c([H])c([H])n([H])c2n1


 32 35  0  0  0  0  0  0  0  0999 V2000
   42.7574   13.2647  -15.1073 N   0  0  0  0  0  0  0  0  0  0  0  0
   41.9049   12.6848  -16.0627 C   0  0  0  0  0  0  0  0  0  0  0  0
   42.3212   11.9402  -16.9542 O   0  0  0  0  0  0  0  0  0  0  0  0
   40.5127   12.9552  -16.0141 N   0  0  0  0  0  0  0  0  0  0  0  0
   39.6154   12.3565  -16.9926 C   0  0  0  0  0  0  0  0  0  0  0  0
   38.3822   11.8630  -16.2559 C   0  0  0  0  0  0  0  0  0  0  0  0
   37.8529   12.8485  -15.3783 N   0  0  0  0  0  0  0  0  0  0  0  0
   38.5489   14.1084  -15.2584 C   0  0  0  0  0  0  0  0  0  0  0  0
   40.0055   13.8216  -14.9932 C   0  0  0  0  0  0  0  0  0  0  0  0
   42.3174   13.9111  -14.3498 H   0  0  0  0  0  0  0  0  0  0  0  0
   36.6768   12.6166  -14.6398 C   0  0  0  0  0  0  0  0  0  0  0  0
   36.5963   12.9231  -13.3091 N   0  0  0  0  0  0  0  0  0  0  0  0
   35.5319   12.7182  -12.5522 C   0  0  0  0  0  0  0  0  0  0  0  0
   34.4525   12.1764  -13.1051 N   0  0  0  0  0  0  0  0  0  0  0  0
   34.4569   11.8445  -14.4261 C   0  0  0  0  0  0  0  0  0  0  0  0
   33.5132   11.3014  -15.2090 N   0  0  0  0  0  0  0  0  0  0  0  0
   33.9780   11.1624  -16.4616 C   0  0  0  0  0  0  0  0  0  0  0  0
   35.2800   11.6307  -16.5139 C   0  0  0  0  0  0  0  0  0  0  0  0
   35.5686   12.0562  -15.2266 C   0  0  0  0  0  0  0  0  0  0  0  0
   32.5379   11.0176  -14.8992 H   0  0  0  0  0  0  0  0  0  0  0  0
   46.9535   12.9243  -14.8401 C   0  0  0  0  0  0  0  0  0  0  0  0
   46.1659   12.9922  -13.7208 C   0  0  0  0  0  0  0  0  0  0  0  0
   44.7694   13.0981  -13.7623 C   0  0  0  0  0  0  0  0  0  0  0  0
   44.1536   13.1366  -14.9781 C   0  0  0  0  0  0  0  0  0  0  0  0
   44.9278   13.0690  -16.1346 C   0  0  0  0  0  0  0  0  0  0  0  0
   46.2975   12.9653  -16.0546 C   0  0  0  0  0  0  0  0  0  0  0  0
   49.3668   12.5066  -16.3494 N   0  0  0  0  0  0  0  0  0  0  0  0
   48.6960   12.7924  -14.7690 S   0  0  0  0  0  0  0  0  0  0  0  0
   49.0715   11.6345  -13.8874 O   0  0  0  0  0  0  0  0  0  0  0  0
   49.3289   14.0164  -14.1828 O   0  0  0  0  0  0  0  0  0  0  0  0
   50.1224   13.1982  -16.5412 H   0  0  0  0  0  0  0  0  0  0  0  0
   48.5815   12.7028  -17.0343 H   0  0  0  0  0  0  0  0  0  0  0  0
 27 28  1  0  0  0
 28 29  2  0  0  0
 28 30  2  0  0  0
 28 21  1  0  0  0
 21 22  2  0  0  0
 22 23  1  0  0  0
 23 24  2  0  0  0
 24  1  1  0  0  0
  1  2  1  0  0  0
  2  3  2  0  0  0
  2  4  1  0  0  0
  4  5  1  0  0  0
  5  6  1  0  0  0
  6  7  1  0  0  0
  7  8  1  0  0  0
  8  9  1  0  0  0
  7 11  1  0  0  0
 11 12  2  0  0  0
 12 13  1  0  0  0
 13 14  2  0  0  0
 14 15  1  0  0  0
 15 16  1  0  0  0
 16 17  1  0  0  0
 17 18  2  0  0  0
 18 19  1  0  0  0
 24 25  1  0  0  0
 25 26  2  0  0  0
 26 21  1  0  0  0
  9  4  1  0  0  0
 19 11  1  0  0  0
 19 15  2  0  0  0
 27 31  1  0  0  0
 27 32  1  0  0  0
  1 10  1  0  0  0
 16 20  1  0  0  0
M  END
> <minimizedAffinity>
-7.95011

> <CNNscore>
0.1338844895

> <CNNaffinity>
6.2900781631

> <CNN_VS>
0.8421438932

> <CNNaffinity_variance>
0.2735566199

$$$$
[H]c1c([H])c(Cl)c([H])c(N([H])C(=O)Oc2c([H])c([H])c(Cl)c([H])c2OC([H])([H])C2([H])C(=O)N([H])c3c([H])c(Cl)c(OC([H])([H])[H])c([H])c3C([H])([H])C([H])([H])[C@]2([H])N([H])C(=O)c2c([H])c([H])c([H])n2[H])c1[H]


 48 52  0  0  0  0  0  0  0  0999 V2000
   36.2587   12.3154  -14.8007 C   0  0  0  0  0  0  0  0  0  0  0  0
   35.8757   13.0642  -13.7003 C   0  0  0  0  0  0  0  0  0  0  0  0
   36.7575   13.9511  -13.1757 C   0  0  0  0  0  0  0  0  0  0  0  0
   36.1249   14.6359  -12.0061 C   0  0  0  0  0  0  0  0  0  0  0  0
   36.7464   16.0224  -11.7925 C   0  0  0  0  0  0  0  0  0  0  0  0
   37.5968   16.1051  -10.5728 C   0  0  0  0  0  0  0  0  0  0  0  0
   39.0069   15.5833  -10.7691 C   0  0  0  0  0  0  0  0  0  0  0  0
   39.4502   15.6855  -12.2061 C   0  0  0  0  0  0  0  0  0  0  0  0
   40.2617   16.6237  -12.4262 O   0  0  0  0  0  0  0  0  0  0  0  0
   39.1657   14.9610  -13.3957 N   0  0  0  0  0  0  0  0  0  0  0  0
   38.0356   14.1227  -13.7194 C   0  0  0  0  0  0  0  0  0  0  0  0
   38.4376   13.3961  -14.8046 C   0  0  0  0  0  0  0  0  0  0  0  0
   37.5322   12.4872  -15.3416 C   0  0  0  0  0  0  0  0  0  0  0  0
   37.9948   11.5268  -16.7372 Cl  0  0  0  0  0  0  0  0  0  0  0  0
   39.8727   15.0384  -14.1627 H   0  0  0  0  0  0  0  0  0  0  0  0
   37.5756   17.4499  -10.0893 N   0  0  0  0  0  0  0  0  0  0  0  0
   36.7935   17.7828   -8.9547 C   0  0  0  0  0  0  0  0  0  0  0  0
   36.0978   16.8988   -8.3471 O   0  0  0  0  0  0  0  0  0  0  0  0
   38.1215   18.2124  -10.5436 H   0  0  0  0  0  0  0  0  0  0  0  0
   36.7469   19.1417   -8.4303 C   0  0  0  0  0  0  0  0  0  0  0  0
   37.8086   20.0161   -8.4498 C   0  0  0  0  0  0  0  0  0  0  0  0
   37.3777   21.1886   -7.8687 C   0  0  0  0  0  0  0  0  0  0  0  0
   36.0609   21.0319   -7.4966 C   0  0  0  0  0  0  0  0  0  0  0  0
   35.7001   19.7750   -7.8501 N   0  0  0  0  0  0  0  0  0  0  0  0
   34.7747   19.3132   -7.7203 H   0  0  0  0  0  0  0  0  0  0  0  0
   34.0116   11.6638  -15.3645 C   0  0  0  0  0  0  0  0  0  0  0  0
   35.3973   11.3930  -15.3788 O   0  0  0  0  0  0  0  0  0  0  0  0
   39.9925   16.2742   -9.8912 C   0  0  0  0  0  0  0  0  0  0  0  0
   39.7371   16.0734   -8.5622 O   0  0  0  0  0  0  0  0  0  0  0  0
   40.4457   15.6874   -7.5066 C   0  0  0  0  0  0  0  0  0  0  0  0
   41.5011   16.4026   -7.0011 C   0  0  0  0  0  0  0  0  0  0  0  0
   42.1863   15.9268   -5.8877 C   0  0  0  0  0  0  0  0  0  0  0  0
   43.5442   16.8660   -5.2508 Cl  0  0  0  0  0  0  0  0  0  0  0  0
   41.8270   14.7383   -5.2722 C   0  0  0  0  0  0  0  0  0  0  0  0
   40.7497   14.0156   -5.7958 C   0  0  0  0  0  0  0  0  0  0  0  0
   40.0647   14.4731   -6.8927 C   0  0  0  0  0  0  0  0  0  0  0  0
   38.9959   13.8037   -7.4517 O   0  0  0  0  0  0  0  0  0  0  0  0
   37.7782   13.6910   -6.7291 C   0  0  0  0  0  0  0  0  0  0  0  0
   37.3509   12.5155   -6.6608 O   0  0  0  0  0  0  0  0  0  0  0  0
   37.1701   14.8275   -6.1747 N   0  0  0  0  0  0  0  0  0  0  0  0
   37.6998   15.7494   -6.3464 H   0  0  0  0  0  0  0  0  0  0  0  0
   35.9922   14.9480   -5.4402 C   0  0  0  0  0  0  0  0  0  0  0  0
   35.9773   15.5970   -4.2067 C   0  0  0  0  0  0  0  0  0  0  0  0
   34.8374   15.7311   -3.4672 C   0  0  0  0  0  0  0  0  0  0  0  0
   33.6483   15.2260   -3.9153 C   0  0  0  0  0  0  0  0  0  0  0  0
   33.6202   14.5815   -5.1222 C   0  0  0  0  0  0  0  0  0  0  0  0
   32.0987   13.9296   -5.7084 Cl  0  0  0  0  0  0  0  0  0  0  0  0
   34.7945   14.4497   -5.8720 C   0  0  0  0  0  0  0  0  0  0  0  0
 26 27  1  0  0  0
 27  1  1  0  0  0
  1  2  2  0  0  0
  2  3  1  0  0  0
  3  4  1  0  0  0
  4  5  1  0  0  0
  5  6  1  0  0  0
  6 16  1  0  0  0
 16 17  1  0  0  0
 17 18  2  0  0  0
 17 20  1  0  0  0
 20 21  2  0  0  0
 21 22  1  0  0  0
 22 23  2  0  0  0
 23 24  1  0  0  0
  6  7  1  0  0  0
  7 28  1  0  0  0
 28 29  1  0  0  0
 29 30  1  0  0  0
 30 31  2  0  0  0
 31 32  1  0  0  0
 32 33  1  0  0  0
 32 34  2  0  0  0
 34 35  1  0  0  0
 35 36  2  0  0  0
 36 37  1  0  0  0
 37 38  1  0  0  0
 38 39  2  0  0  0
 38 40  1  0  0  0
 40 42  1  0  0  0
 42 43  2  0  0  0
 43 44  1  0  0  0
 44 45  2  0  0  0
 45 46  1  0  0  0
 46 47  1  0  0  0
 46 48  2  0  0  0
  7  8  1  0  0  0
  8  9  2  0  0  0
  8 10  1  0  0  0
 10 11  1  0  0  0
 11 12  1  0  0  0
 12 13  2  0  0  0
 13 14  1  0  0  0
 13  1  1  0  0  0
 11  3  2  0  0  0
 24 20  1  0  0  0
 36 30  1  0  0  0
 48 42  1  0  0  0
 16 19  1  0  0  0
 24 25  1  0  0  0
 40 41  1  0  0  0
 10 15  1  0  0  0
M  END
> <minimizedAffinity>
-9.09268

> <CNNscore>
0.2273370624

> <CNNaffinity>
6.9640693665

> <CNN_VS>
1.5831910372

> <CNNaffinity_variance>
0.1692879200

$$$$
[H]c1c([H])c(Cl)c([H])c(N([H])C(=O)Oc2c([H])c([H])c(Cl)c([H])c2OC([H])([H])C2([H])C(=O)N([H])c3c([H])c(Cl)c(OC([H])([H])[H])c([H])c3C([H])([H])C([H])([H])[C@]2([H])N([H])C(=O)c2c([H])c([H])c([H])n2[H])c1[H]


 48 52  0  0  0  0  0  0  0  0999 V2000
   35.7947   12.3695  -15.7966 C   0  0  0  0  0  0  0  0  0  0  0  0
   36.8664   13.1208  -15.3434 C   0  0  0  0  0  0  0  0  0  0  0  0
   36.8763   13.5294  -14.0502 C   0  0  0  0  0  0  0  0  0  0  0  0
   38.1221   14.3170  -13.7958 C   0  0  0  0  0  0  0  0  0  0  0  0
   38.5135   14.2429  -12.3140 C   0  0  0  0  0  0  0  0  0  0  0  0
   38.3121   15.5268  -11.5869 C   0  0  0  0  0  0  0  0  0  0  0  0
   36.8863   15.7550  -11.1240 C   0  0  0  0  0  0  0  0  0  0  0  0
   36.1464   14.4579  -10.9191 C   0  0  0  0  0  0  0  0  0  0  0  0
   35.9984   14.1384   -9.7094 O   0  0  0  0  0  0  0  0  0  0  0  0
   35.5638   13.4902  -11.7822 N   0  0  0  0  0  0  0  0  0  0  0  0
   35.8339   13.2100  -13.1727 C   0  0  0  0  0  0  0  0  0  0  0  0
   34.7655   12.4704  -13.5952 C   0  0  0  0  0  0  0  0  0  0  0  0
   34.7569   12.0518  -14.9214 C   0  0  0  0  0  0  0  0  0  0  0  0
   33.4091   11.0976  -15.5190 Cl  0  0  0  0  0  0  0  0  0  0  0  0
   34.8268   12.8799  -11.3598 H   0  0  0  0  0  0  0  0  0  0  0  0
   39.2519   15.5975  -10.5123 N   0  0  0  0  0  0  0  0  0  0  0  0
   40.5810   16.0239  -10.7602 C   0  0  0  0  0  0  0  0  0  0  0  0
   40.9639   16.3497  -11.9357 O   0  0  0  0  0  0  0  0  0  0  0  0
   38.9975   15.3442   -9.5341 H   0  0  0  0  0  0  0  0  0  0  0  0
   41.5678   16.1110   -9.6914 C   0  0  0  0  0  0  0  0  0  0  0  0
   41.3030   15.8405   -8.3690 C   0  0  0  0  0  0  0  0  0  0  0  0
   42.4766   16.0334   -7.6737 C   0  0  0  0  0  0  0  0  0  0  0  0
   43.4527   16.4190   -8.5656 C   0  0  0  0  0  0  0  0  0  0  0  0
   42.8728   16.4589   -9.7892 N   0  0  0  0  0  0  0  0  0  0  0  0
   43.3133   16.7111  -10.6995 H   0  0  0  0  0  0  0  0  0  0  0  0
   36.5009   10.7986  -17.4776 C   0  0  0  0  0  0  0  0  0  0  0  0
   35.7320   11.9243  -17.1100 O   0  0  0  0  0  0  0  0  0  0  0  0
   36.8199   16.5708   -9.8793 C   0  0  0  0  0  0  0  0  0  0  0  0
   37.0751   15.8310   -8.7570 O   0  0  0  0  0  0  0  0  0  0  0  0
   37.5733   16.0771   -7.5502 C   0  0  0  0  0  0  0  0  0  0  0  0
   38.4353   17.1100   -7.2836 C   0  0  0  0  0  0  0  0  0  0  0  0
   38.9059   17.2984   -5.9880 C   0  0  0  0  0  0  0  0  0  0  0  0
   40.0162   18.6380   -5.6657 Cl  0  0  0  0  0  0  0  0  0  0  0  0
   38.5234   16.4613   -4.9519 C   0  0  0  0  0  0  0  0  0  0  0  0
   37.6446   15.4101   -5.2341 C   0  0  0  0  0  0  0  0  0  0  0  0
   37.1721   15.2128   -6.5068 C   0  0  0  0  0  0  0  0  0  0  0  0
   36.3047   14.1944   -6.8434 O   0  0  0  0  0  0  0  0  0  0  0  0
   34.9271   14.3037   -6.5145 C   0  0  0  0  0  0  0  0  0  0  0  0
   34.6035   13.6278   -5.5107 O   0  0  0  0  0  0  0  0  0  0  0  0
   34.0719   15.1074   -7.2836 N   0  0  0  0  0  0  0  0  0  0  0  0
   34.5484   15.6088   -8.1090 H   0  0  0  0  0  0  0  0  0  0  0  0
   32.7078   15.3558   -7.1458 C   0  0  0  0  0  0  0  0  0  0  0  0
   32.2192   16.1168   -6.0851 C   0  0  0  0  0  0  0  0  0  0  0  0
   30.8882   16.3773   -5.9272 C   0  0  0  0  0  0  0  0  0  0  0  0
   29.9694   15.8942   -6.8173 C   0  0  0  0  0  0  0  0  0  0  0  0
   30.4085   15.1423   -7.8732 C   0  0  0  0  0  0  0  0  0  0  0  0
   29.2379   14.5174   -9.0233 Cl  0  0  0  0  0  0  0  0  0  0  0  0
   31.7749   14.8814   -8.0255 C   0  0  0  0  0  0  0  0  0  0  0  0
 26 27  1  0  0  0
 27  1  1  0  0  0
  1  2  2  0  0  0
  2  3  1  0  0  0
  3  4  1  0  0  0
  4  5  1  0  0  0
  5  6  1  0  0  0
  6 16  1  0  0  0
 16 17  1  0  0  0
 17 18  2  0  0  0
 17 20  1  0  0  0
 20 21  2  0  0  0
 21 22  1  0  0  0
 22 23  2  0  0  0
 23 24  1  0  0  0
  6  7  1  0  0  0
  7 28  1  0  0  0
 28 29  1  0  0  0
 29 30  1  0  0  0
 30 31  2  0  0  0
 31 32  1  0  0  0
 32 33  1  0  0  0
 32 34  2  0  0  0
 34 35  1  0  0  0
 35 36  2  0  0  0
 36 37  1  0  0  0
 37 38  1  0  0  0
 38 39  2  0  0  0
 38 40  1  0  0  0
 40 42  1  0  0  0
 42 43  2  0  0  0
 43 44  1  0  0  0
 44 45  2  0  0  0
 45 46  1  0  0  0
 46 47  1  0  0  0
 46 48  2  0  0  0
  7  8  1  0  0  0
  8  9  2  0  0  0
  8 10  1  0  0  0
 10 11  1  0  0  0
 11 12  1  0  0  0
 12 13  2  0  0  0
 13 14  1  0  0  0
 13  1  1  0  0  0
 11  3  2  0  0  0
 24 20  1  0  0  0
 36 30  1  0  0  0
 48 42  1  0  0  0
 16 19  1  0  0  0
 24 25  1  0  0  0
 40 41  1  0  0  0
 10 15  1  0  0  0
M  END
> <minimizedAffinity>
-8.45807

> <CNNscore>
0.1511811763

> <CNNaffinity>
6.9983949661

> <CNN_VS>
1.0580255985

> <CNNaffinity_variance>
0.2569161952

$$$$
[H]c1c([H])c(Cl)c([H])c(N([H])C(=O)Oc2c([H])c([H])c(Cl)c([H])c2OC([H])([H])C2([H])C(=O)N([H])c3c([H])c(Cl)c(OC([H])([H])[H])c([H])c3C([H])([H])C([H])([H])[C@]2([H])N([H])C(=O)c2c([H])c([H])c([H])n2[H])c1[H]


 48 52  0  0  0  0  0  0  0  0999 V2000
   37.4999   12.1131  -15.3733 C   0  0  0  0  0  0  0  0  0  0  0  0
   36.9550   12.7565  -14.2744 C   0  0  0  0  0  0  0  0  0  0  0  0
   37.6836   13.7169  -13.6531 C   0  0  0  0  0  0  0  0  0  0  0  0
   36.8951   14.2634  -12.5057 C   0  0  0  0  0  0  0  0  0  0  0  0
   37.3249   15.7028  -12.1931 C   0  0  0  0  0  0  0  0  0  0  0  0
   38.0756   15.8285  -10.9133 C   0  0  0  0  0  0  0  0  0  0  0  0
   39.5493   15.4905  -11.0283 C   0  0  0  0  0  0  0  0  0  0  0  0
   40.0710   15.7144  -12.4245 C   0  0  0  0  0  0  0  0  0  0  0  0
   40.7733   16.7531  -12.5484 O   0  0  0  0  0  0  0  0  0  0  0  0
   39.9580   15.0190  -13.6594 N   0  0  0  0  0  0  0  0  0  0  0  0
   38.9640   14.0672  -14.0964 C   0  0  0  0  0  0  0  0  0  0  0  0
   39.5239   13.4474  -15.1778 C   0  0  0  0  0  0  0  0  0  0  0  0
   38.7754   12.4630  -15.8141 C   0  0  0  0  0  0  0  0  0  0  0  0
   39.4449   11.6336  -17.2099 Cl  0  0  0  0  0  0  0  0  0  0  0  0
   40.6993   15.2179  -14.3699 H   0  0  0  0  0  0  0  0  0  0  0  0
   37.8564   17.1361  -10.3795 N   0  0  0  0  0  0  0  0  0  0  0  0
   37.1389   17.2956   -9.1673 C   0  0  0  0  0  0  0  0  0  0  0  0
   36.6769   16.2861   -8.5331 O   0  0  0  0  0  0  0  0  0  0  0  0
   38.2085   17.9954  -10.8522 H   0  0  0  0  0  0  0  0  0  0  0  0
   36.8961   18.6116   -8.5901 C   0  0  0  0  0  0  0  0  0  0  0  0
   37.8079   19.6415   -8.5995 C   0  0  0  0  0  0  0  0  0  0  0  0
   37.2163   20.7113   -7.9643 C   0  0  0  0  0  0  0  0  0  0  0  0
   35.9507   20.3377   -7.5694 C   0  0  0  0  0  0  0  0  0  0  0  0
   35.7801   19.0528   -7.9629 N   0  0  0  0  0  0  0  0  0  0  0  0
   34.9418   18.4477   -7.8305 H   0  0  0  0  0  0  0  0  0  0  0  0
   35.5309   11.4386  -16.5818 C   0  0  0  0  0  0  0  0  0  0  0  0
   36.7992   11.1226  -16.0479 O   0  0  0  0  0  0  0  0  0  0  0  0
   40.3815   16.2520  -10.0552 C   0  0  0  0  0  0  0  0  0  0  0  0
   41.0752   15.4313   -9.2084 O   0  0  0  0  0  0  0  0  0  0  0  0
   41.9944   15.5994   -8.2638 C   0  0  0  0  0  0  0  0  0  0  0  0
   42.0674   16.7148   -7.4691 C   0  0  0  0  0  0  0  0  0  0  0  0
   43.0610   16.8067   -6.4996 C   0  0  0  0  0  0  0  0  0  0  0  0
   43.1363   18.2539   -5.4840 Cl  0  0  0  0  0  0  0  0  0  0  0  0
   43.9868   15.7920   -6.3159 C   0  0  0  0  0  0  0  0  0  0  0  0
   43.9045   14.6589   -7.1321 C   0  0  0  0  0  0  0  0  0  0  0  0
   42.9298   14.5544   -8.0917 C   0  0  0  0  0  0  0  0  0  0  0  0
   42.8003   13.4622   -8.9241 O   0  0  0  0  0  0  0  0  0  0  0  0
   43.5288   13.4138  -10.1426 C   0  0  0  0  0  0  0  0  0  0  0  0
   44.6296   12.8253  -10.0374 O   0  0  0  0  0  0  0  0  0  0  0  0
   43.0053   13.9903  -11.3099 N   0  0  0  0  0  0  0  0  0  0  0  0
   42.0390   14.4502  -11.1894 H   0  0  0  0  0  0  0  0  0  0  0  0
   43.5397   14.0601  -12.5948 C   0  0  0  0  0  0  0  0  0  0  0  0
   44.6406   14.8687  -12.8726 C   0  0  0  0  0  0  0  0  0  0  0  0
   45.1855   14.9544  -14.1216 C   0  0  0  0  0  0  0  0  0  0  0  0
   44.6640   14.2393  -15.1639 C   0  0  0  0  0  0  0  0  0  0  0  0
   43.5826   13.4330  -14.9328 C   0  0  0  0  0  0  0  0  0  0  0  0
   42.9049   12.5091  -16.2635 Cl  0  0  0  0  0  0  0  0  0  0  0  0
   43.0320   13.3527  -13.6488 C   0  0  0  0  0  0  0  0  0  0  0  0
 26 27  1  0  0  0
 27  1  1  0  0  0
  1  2  2  0  0  0
  2  3  1  0  0  0
  3  4  1  0  0  0
  4  5  1  0  0  0
  5  6  1  0  0  0
  6 16  1  0  0  0
 16 17  1  0  0  0
 17 18  2  0  0  0
 17 20  1  0  0  0
 20 21  2  0  0  0
 21 22  1  0  0  0
 22 23  2  0  0  0
 23 24  1  0  0  0
  6  7  1  0  0  0
  7 28  1  0  0  0
 28 29  1  0  0  0
 29 30  1  0  0  0
 30 31  2  0  0  0
 31 32  1  0  0  0
 32 33  1  0  0  0
 32 34  2  0  0  0
 34 35  1  0  0  0
 35 36  2  0  0  0
 36 37  1  0  0  0
 37 38  1  0  0  0
 38 39  2  0  0  0
 38 40  1  0  0  0
 40 42  1  0  0  0
 42 43  2  0  0  0
 43 44  1  0  0  0
 44 45  2  0  0  0
 45 46  1  0  0  0
 46 47  1  0  0  0
 46 48  2  0  0  0
  7  8  1  0  0  0
  8  9  2  0  0  0
  8 10  1  0  0  0
 10 11  1  0  0  0
 11 12  1  0  0  0
 12 13  2  0  0  0
 13 14  1  0  0  0
 13  1  1  0  0  0
 11  3  2  0  0  0
 24 20  1  0  0  0
 36 30  1  0  0  0
 48 42  1  0  0  0
 16 19  1  0  0  0
 24 25  1  0  0  0
 40 41  1  0  0  0
 10 15  1  0  0  0
M  END
> <minimizedAffinity>
-8.82959

> <CNNscore>
0.1411493421

> <CNNaffinity>
7.1214599609

> <CNN_VS>
1.0051894188

> <CNNaffinity_variance>
0.0941676050

$$$$
[H]c1c([H])c(Cl)c([H])c(N([H])C(=O)Oc2c([H])c([H])c(Cl)c([H])c2OC([H])([H])C2([H])C(=O)N([H])c3c([H])c(Cl)c(OC([H])([H])[H])c([H])c3C([H])([H])C([H])([H])[C@]2([H])N([H])C(=O)c2c([H])c([H])c([H])n2[H])c1[H]


 48 52  0  0  0  0  0  0  0  0999 V2000
   34.7719   12.9832  -14.6586 C   0  0  0  0  0  0  0  0  0  0  0  0
   34.4999   13.7638  -13.5473 C   0  0  0  0  0  0  0  0  0  0  0  0
   35.5180   14.4412  -12.9608 C   0  0  0  0  0  0  0  0  0  0  0  0
   34.9861   15.2072  -11.7915 C   0  0  0  0  0  0  0  0  0  0  0  0
   35.8621   16.4345  -11.5075 C   0  0  0  0  0  0  0  0  0  0  0  0
   36.6596   16.3119  -10.2560 C   0  0  0  0  0  0  0  0  0  0  0  0
   37.9443   15.5232  -10.4195 C   0  0  0  0  0  0  0  0  0  0  0  0
   38.4593   15.5729  -11.8352 C   0  0  0  0  0  0  0  0  0  0  0  0
   39.4503   16.3347  -11.9932 O   0  0  0  0  0  0  0  0  0  0  0  0
   38.0865   14.9526  -13.0588 N   0  0  0  0  0  0  0  0  0  0  0  0
   36.8264   14.3672  -13.4519 C   0  0  0  0  0  0  0  0  0  0  0  0
   37.1208   13.6042  -14.5466 C   0  0  0  0  0  0  0  0  0  0  0  0
   36.0758   12.9104  -15.1471 C   0  0  0  0  0  0  0  0  0  0  0  0
   36.3959   11.9146  -16.5578 Cl  0  0  0  0  0  0  0  0  0  0  0  0
   38.8264   14.9071  -13.7967 H   0  0  0  0  0  0  0  0  0  0  0  0
   36.8868   17.6201   -9.7270 N   0  0  0  0  0  0  0  0  0  0  0  0
   36.3669   17.9705   -8.4555 C   0  0  0  0  0  0  0  0  0  0  0  0
   35.6909   17.1350   -7.7630 O   0  0  0  0  0  0  0  0  0  0  0  0
   37.4295   18.3427  -10.2458 H   0  0  0  0  0  0  0  0  0  0  0  0
   36.5783   19.2931   -7.8812 C   0  0  0  0  0  0  0  0  0  0  0  0
   36.3898   19.6001   -6.5537 C   0  0  0  0  0  0  0  0  0  0  0  0
   36.6877   20.9365   -6.4012 C   0  0  0  0  0  0  0  0  0  0  0  0
   37.0564   21.4431   -7.6278 C   0  0  0  0  0  0  0  0  0  0  0  0
   36.9812   20.4208   -8.5133 N   0  0  0  0  0  0  0  0  0  0  0  0
   37.1891   20.4406   -9.5345 H   0  0  0  0  0  0  0  0  0  0  0  0
   33.5756   10.9149  -14.9467 C   0  0  0  0  0  0  0  0  0  0  0  0
   33.7689   12.2684  -15.2991 O   0  0  0  0  0  0  0  0  0  0  0  0
   39.0100   15.9783   -9.4832 C   0  0  0  0  0  0  0  0  0  0  0  0
   40.0915   15.1403   -9.4778 O   0  0  0  0  0  0  0  0  0  0  0  0
   41.1742   14.9917   -8.7221 C   0  0  0  0  0  0  0  0  0  0  0  0
   41.1963   14.2490   -7.5694 C   0  0  0  0  0  0  0  0  0  0  0  0
   42.3763   14.1427   -6.8402 C   0  0  0  0  0  0  0  0  0  0  0  0
   42.3832   13.1782   -5.3566 Cl  0  0  0  0  0  0  0  0  0  0  0  0
   43.5391   14.7743   -7.2520 C   0  0  0  0  0  0  0  0  0  0  0  0
   43.5061   15.5303   -8.4285 C   0  0  0  0  0  0  0  0  0  0  0  0
   42.3498   15.6434   -9.1579 C   0  0  0  0  0  0  0  0  0  0  0  0
   42.2583   16.3743  -10.3242 O   0  0  0  0  0  0  0  0  0  0  0  0
   42.7132   15.8118  -11.5466 C   0  0  0  0  0  0  0  0  0  0  0  0
   43.8283   16.2528  -11.9090 O   0  0  0  0  0  0  0  0  0  0  0  0
   41.9368   14.8615  -12.2270 N   0  0  0  0  0  0  0  0  0  0  0  0
   41.0050   14.6154  -11.7463 H   0  0  0  0  0  0  0  0  0  0  0  0
   42.1830   14.1901  -13.4228 C   0  0  0  0  0  0  0  0  0  0  0  0
   43.4796   13.8423  -13.7982 C   0  0  0  0  0  0  0  0  0  0  0  0
   43.7492   13.1828  -14.9630 C   0  0  0  0  0  0  0  0  0  0  0  0
   42.7419   12.8328  -15.8190 C   0  0  0  0  0  0  0  0  0  0  0  0
   41.4542   13.1560  -15.4871 C   0  0  0  0  0  0  0  0  0  0  0  0
   40.1524   12.7107  -16.5781 Cl  0  0  0  0  0  0  0  0  0  0  0  0
   41.1892   13.8321  -14.2908 C   0  0  0  0  0  0  0  0  0  0  0  0
 26 27  1  0  0  0
 27  1  1  0  0  0
  1  2  2  0  0  0
  2  3  1  0  0  0
  3  4  1  0  0  0
  4  5  1  0  0  0
  5  6  1  0  0  0
  6 16  1  0  0  0
 16 17  1  0  0  0
 17 18  2  0  0  0
 17 20  1  0  0  0
 20 21  2  0  0  0
 21 22  1  0  0  0
 22 23  2  0  0  0
 23 24  1  0  0  0
  6  7  1  0  0  0
  7 28  1  0  0  0
 28 29  1  0  0  0
 29 30  1  0  0  0
 30 31  2  0  0  0
 31 32  1  0  0  0
 32 33  1  0  0  0
 32 34  2  0  0  0
 34 35  1  0  0  0
 35 36  2  0  0  0
 36 37  1  0  0  0
 37 38  1  0  0  0
 38 39  2  0  0  0
 38 40  1  0  0  0
 40 42  1  0  0  0
 42 43  2  0  0  0
 43 44  1  0  0  0
 44 45  2  0  0  0
 45 46  1  0  0  0
 46 47  1  0  0  0
 46 48  2  0  0  0
  7  8  1  0  0  0
  8  9  2  0  0  0
  8 10  1  0  0  0
 10 11  1  0  0  0
 11 12  1  0  0  0
 12 13  2  0  0  0
 13 14  1  0  0  0
 13  1  1  0  0  0
 11  3  2  0  0  0
 24 20  1  0  0  0
 36 30  1  0  0  0
 48 42  1  0  0  0
 16 19  1  0  0  0
 24 25  1  0  0  0
 40 41  1  0  0  0
 10 15  1  0  0  0
M  END
> <minimizedAffinity>
-9.47275

> <CNNscore>
0.1377841532

> <CNNaffinity>
7.2523560524

> <CNN_VS>
0.9992597103

> <CNNaffinity_variance>
0.1322446167

$$$$
[H]c1c([H])c(Cl)c([H])c(N([H])C(=O)Oc2c([H])c([H])c(Cl)c([H])c2OC([H])([H])C2([H])C(=O)N([H])c3c([H])c(Cl)c(OC([H])([H])[H])c([H])c3C([H])([H])C([H])([H])[C@]2([H])N([H])C(=O)c2c([H])c([H])c([H])n2[H])c1[H]


 48 52  0  0  0  0  0  0  0  0999 V2000
   35.6663   12.6897  -13.6263 C   0  0  0  0  0  0  0  0  0  0  0  0
   35.3290   13.5348  -12.5820 C   0  0  0  0  0  0  0  0  0  0  0  0
   36.2805   14.3580  -12.0756 C   0  0  0  0  0  0  0  0  0  0  0  0
   35.6867   15.1683  -10.9676 C   0  0  0  0  0  0  0  0  0  0  0  0
   36.4392   16.4959  -10.8076 C   0  0  0  0  0  0  0  0  0  0  0  0
   37.2573   16.5631   -9.5652 C   0  0  0  0  0  0  0  0  0  0  0  0
   38.6123   15.8930   -9.6835 C   0  0  0  0  0  0  0  0  0  0  0  0
   39.1057   15.8679  -11.1075 C   0  0  0  0  0  0  0  0  0  0  0  0
   40.0144   16.7064  -11.3494 O   0  0  0  0  0  0  0  0  0  0  0  0
   38.7843   15.1084  -12.2655 N   0  0  0  0  0  0  0  0  0  0  0  0
   37.5849   14.3698  -12.5827 C   0  0  0  0  0  0  0  0  0  0  0  0
   37.9427   13.5457  -13.6123 C   0  0  0  0  0  0  0  0  0  0  0  0
   36.9659   12.7024  -14.1308 C   0  0  0  0  0  0  0  0  0  0  0  0
   37.3695   11.6223  -15.4554 Cl  0  0  0  0  0  0  0  0  0  0  0  0
   39.5177   15.0708  -13.0103 H   0  0  0  0  0  0  0  0  0  0  0  0
   37.3585   17.9289   -9.1561 N   0  0  0  0  0  0  0  0  0  0  0  0
   36.4921   18.4347   -8.1545 C   0  0  0  0  0  0  0  0  0  0  0  0
   35.6113   17.6902   -7.6027 O   0  0  0  0  0  0  0  0  0  0  0  0
   38.0562   18.5827   -9.5703 H   0  0  0  0  0  0  0  0  0  0  0  0
   36.5651   19.8204   -7.7091 C   0  0  0  0  0  0  0  0  0  0  0  0
   36.4973   20.2154   -6.3933 C   0  0  0  0  0  0  0  0  0  0  0  0
   36.6007   21.5891   -6.3775 C   0  0  0  0  0  0  0  0  0  0  0  0
   36.7312   22.0309   -7.6755 C   0  0  0  0  0  0  0  0  0  0  0  0
   36.7065   20.9327   -8.4682 N   0  0  0  0  0  0  0  0  0  0  0  0
   36.7805   20.8901   -9.5071 H   0  0  0  0  0  0  0  0  0  0  0  0
   33.8158   12.3416  -15.1251 C   0  0  0  0  0  0  0  0  0  0  0  0
   34.7329   11.8262  -14.1835 O   0  0  0  0  0  0  0  0  0  0  0  0
   39.6367   16.5313   -8.8103 C   0  0  0  0  0  0  0  0  0  0  0  0
   39.8943   15.7958   -7.6857 O   0  0  0  0  0  0  0  0  0  0  0  0
   39.3723   15.7097   -6.4669 C   0  0  0  0  0  0  0  0  0  0  0  0
   38.0835   15.3095   -6.2223 C   0  0  0  0  0  0  0  0  0  0  0  0
   37.6190   15.2431   -4.9126 C   0  0  0  0  0  0  0  0  0  0  0  0
   35.9533   14.7229   -4.6192 Cl  0  0  0  0  0  0  0  0  0  0  0  0
   38.4319   15.5748   -3.8404 C   0  0  0  0  0  0  0  0  0  0  0  0
   39.7446   15.9827   -4.1003 C   0  0  0  0  0  0  0  0  0  0  0  0
   40.2162   16.0523   -5.3866 C   0  0  0  0  0  0  0  0  0  0  0  0
   41.4996   16.4470   -5.7025 O   0  0  0  0  0  0  0  0  0  0  0  0
   41.8827   17.8040   -5.5303 C   0  0  0  0  0  0  0  0  0  0  0  0
   40.9103   18.5934   -5.5105 O   0  0  0  0  0  0  0  0  0  0  0  0
   43.2359   18.1523   -5.4025 N   0  0  0  0  0  0  0  0  0  0  0  0
   43.9197   17.3214   -5.4459 H   0  0  0  0  0  0  0  0  0  0  0  0
   43.8295   19.4009   -5.2295 C   0  0  0  0  0  0  0  0  0  0  0  0
   43.3165   20.3205   -4.3162 C   0  0  0  0  0  0  0  0  0  0  0  0
   43.8793   21.5497   -4.1252 C   0  0  0  0  0  0  0  0  0  0  0  0
   44.9850   21.9316   -4.8333 C   0  0  0  0  0  0  0  0  0  0  0  0
   45.5198   21.0574   -5.7402 C   0  0  0  0  0  0  0  0  0  0  0  0
   46.9403   21.5364   -6.6547 Cl  0  0  0  0  0  0  0  0  0  0  0  0
   44.9349   19.8000   -5.9281 C   0  0  0  0  0  0  0  0  0  0  0  0
 26 27  1  0  0  0
 27  1  1  0  0  0
  1  2  2  0  0  0
  2  3  1  0  0  0
  3  4  1  0  0  0
  4  5  1  0  0  0
  5  6  1  0  0  0
  6 16  1  0  0  0
 16 17  1  0  0  0
 17 18  2  0  0  0
 17 20  1  0  0  0
 20 21  2  0  0  0
 21 22  1  0  0  0
 22 23  2  0  0  0
 23 24  1  0  0  0
  6  7  1  0  0  0
  7 28  1  0  0  0
 28 29  1  0  0  0
 29 30  1  0  0  0
 30 31  2  0  0  0
 31 32  1  0  0  0
 32 33  1  0  0  0
 32 34  2  0  0  0
 34 35  1  0  0  0
 35 36  2  0  0  0
 36 37  1  0  0  0
 37 38  1  0  0  0
 38 39  2  0  0  0
 38 40  1  0  0  0
 40 42  1  0  0  0
 42 43  2  0  0  0
 43 44  1  0  0  0
 44 45  2  0  0  0
 45 46  1  0  0  0
 46 47  1  0  0  0
 46 48  2  0  0  0
  7  8  1  0  0  0
  8  9  2  0  0  0
  8 10  1  0  0  0
 10 11  1  0  0  0
 11 12  1  0  0  0
 12 13  2  0  0  0
 13 14  1  0  0  0
 13  1  1  0  0  0
 11  3  2  0  0  0
 24 20  1  0  0  0
 36 30  1  0  0  0
 48 42  1  0  0  0
 16 19  1  0  0  0
 24 25  1  0  0  0
 40 41  1  0  0  0
 10 15  1  0  0  0
M  END
> <minimizedAffinity>
-7.77722

> <CNNscore>
0.1365266144

> <CNNaffinity>
6.5145034790

> <CNN_VS>
0.8894031048

> <CNNaffinity_variance>
0.1853056252

$$$$
[H]c1c([H])c(Cl)c([H])c(N([H])C(=O)Oc2c([H])c([H])c(Cl)c([H])c2OC([H])([H])C2([H])C(=O)N([H])c3c([H])c(Cl)c(OC([H])([H])[H])c([H])c3C([H])([H])C([H])([H])[C@]2([H])N([H])C(=O)c2c([H])c([H])c([H])n2[H])c1[H]


 48 52  0  0  0  0  0  0  0  0999 V2000
   35.7271   12.5726  -14.2073 C   0  0  0  0  0  0  0  0  0  0  0  0
   35.3348   13.4012  -13.1690 C   0  0  0  0  0  0  0  0  0  0  0  0
   36.2507   14.2369  -12.6195 C   0  0  0  0  0  0  0  0  0  0  0  0
   35.6003   15.0252  -11.5275 C   0  0  0  0  0  0  0  0  0  0  0  0
   36.3210   16.3650  -11.3272 C   0  0  0  0  0  0  0  0  0  0  0  0
   37.0903   16.4353  -10.0542 C   0  0  0  0  0  0  0  0  0  0  0  0
   38.4613   15.7917  -10.1272 C   0  0  0  0  0  0  0  0  0  0  0  0
   39.0084   15.7896  -11.5316 C   0  0  0  0  0  0  0  0  0  0  0  0
   39.9095   16.6472  -11.7315 O   0  0  0  0  0  0  0  0  0  0  0  0
   38.7452   15.0356  -12.7078 N   0  0  0  0  0  0  0  0  0  0  0  0
   37.5728   14.2779  -13.0768 C   0  0  0  0  0  0  0  0  0  0  0  0
   37.9848   13.4707  -14.0995 C   0  0  0  0  0  0  0  0  0  0  0  0
   37.0443   12.6145  -14.6621 C   0  0  0  0  0  0  0  0  0  0  0  0
   37.5179   11.5549  -15.9802 Cl  0  0  0  0  0  0  0  0  0  0  0  0
   39.5067   15.0189  -13.4246 H   0  0  0  0  0  0  0  0  0  0  0  0
   37.1502   17.7987   -9.6292 N   0  0  0  0  0  0  0  0  0  0  0  0
   36.6495   18.1664   -8.3549 C   0  0  0  0  0  0  0  0  0  0  0  0
   36.1389   17.2978   -7.5678 O   0  0  0  0  0  0  0  0  0  0  0  0
   37.5544   18.5499  -10.2276 H   0  0  0  0  0  0  0  0  0  0  0  0
   36.6940   19.5451   -7.8848 C   0  0  0  0  0  0  0  0  0  0  0  0
   36.5016   19.9238   -6.5765 C   0  0  0  0  0  0  0  0  0  0  0  0
   36.6184   21.2958   -6.5312 C   0  0  0  0  0  0  0  0  0  0  0  0
   36.8808   21.7528   -7.8037 C   0  0  0  0  0  0  0  0  0  0  0  0
   36.9218   20.6654   -8.6105 N   0  0  0  0  0  0  0  0  0  0  0  0
   37.0971   20.6354   -9.6376 H   0  0  0  0  0  0  0  0  0  0  0  0
   33.6234   12.2163  -15.3207 C   0  0  0  0  0  0  0  0  0  0  0  0
   34.8319   11.6974  -14.8072 O   0  0  0  0  0  0  0  0  0  0  0  0
   39.4398   16.4405   -9.2101 C   0  0  0  0  0  0  0  0  0  0  0  0
   40.7075   15.9513   -9.3702 O   0  0  0  0  0  0  0  0  0  0  0  0
   41.4412   15.0066   -8.7918 C   0  0  0  0  0  0  0  0  0  0  0  0
   40.9641   14.1696   -7.8157 C   0  0  0  0  0  0  0  0  0  0  0  0
   41.8010   13.2034   -7.2664 C   0  0  0  0  0  0  0  0  0  0  0  0
   41.1648   12.1328   -6.0092 Cl  0  0  0  0  0  0  0  0  0  0  0  0
   43.1153   13.0650   -7.6833 C   0  0  0  0  0  0  0  0  0  0  0  0
   43.5928   13.9241   -8.6788 C   0  0  0  0  0  0  0  0  0  0  0  0
   42.7787   14.8810   -9.2297 C   0  0  0  0  0  0  0  0  0  0  0  0
   43.1945   15.7544  -10.2131 O   0  0  0  0  0  0  0  0  0  0  0  0
   43.4870   15.2646  -11.5139 C   0  0  0  0  0  0  0  0  0  0  0  0
   44.6380   15.5638  -11.9075 O   0  0  0  0  0  0  0  0  0  0  0  0
   42.5322   14.5262  -12.2294 N   0  0  0  0  0  0  0  0  0  0  0  0
   41.5996   14.3770  -11.7118 H   0  0  0  0  0  0  0  0  0  0  0  0
   42.6030   13.9590  -13.5001 C   0  0  0  0  0  0  0  0  0  0  0  0
   41.4535   13.7564  -14.2620 C   0  0  0  0  0  0  0  0  0  0  0  0
   41.4942   13.2048  -15.5103 C   0  0  0  0  0  0  0  0  0  0  0  0
   42.6826   12.8241  -16.0696 C   0  0  0  0  0  0  0  0  0  0  0  0
   43.8348   13.0063  -15.3539 C   0  0  0  0  0  0  0  0  0  0  0  0
   45.3669   12.5222  -16.0622 Cl  0  0  0  0  0  0  0  0  0  0  0  0
   43.7816   13.5726  -14.0753 C   0  0  0  0  0  0  0  0  0  0  0  0
 26 27  1  0  0  0
 27  1  1  0  0  0
  1  2  2  0  0  0
  2  3  1  0  0  0
  3  4  1  0  0  0
  4  5  1  0  0  0
  5  6  1  0  0  0
  6 16  1  0  0  0
 16 17  1  0  0  0
 17 18  2  0  0  0
 17 20  1  0  0  0
 20 21  2  0  0  0
 21 22  1  0  0  0
 22 23  2  0  0  0
 23 24  1  0  0  0
  6  7  1  0  0  0
  7 28  1  0  0  0
 28 29  1  0  0  0
 29 30  1  0  0  0
 30 31  2  0  0  0
 31 32  1  0  0  0
 32 33  1  0  0  0
 32 34  2  0  0  0
 34 35  1  0  0  0
 35 36  2  0  0  0
 36 37  1  0  0  0
 37 38  1  0  0  0
 38 39  2  0  0  0
 38 40  1  0  0  0
 40 42  1  0  0  0
 42 43  2  0  0  0
 43 44  1  0  0  0
 44 45  2  0  0  0
 45 46  1  0  0  0
 46 47  1  0  0  0
 46 48  2  0  0  0
  7  8  1  0  0  0
  8  9  2  0  0  0
  8 10  1  0  0  0
 10 11  1  0  0  0
 11 12  1  0  0  0
 12 13  2  0  0  0
 13 14  1  0  0  0
 13  1  1  0  0  0
 11  3  2  0  0  0
 24 20  1  0  0  0
 36 30  1  0  0  0
 48 42  1  0  0  0
 16 19  1  0  0  0
 24 25  1  0  0  0
 40 41  1  0  0  0
 10 15  1  0  0  0
M  END
> <minimizedAffinity>
-9.41537

> <CNNscore>
0.1337438822

> <CNNaffinity>
7.0330286026

> <CNN_VS>
0.9406245351

> <CNNaffinity_variance>
0.2734550834

$$$$
[H]c1c([H])c(Cl)c([H])c(N([H])C(=O)Oc2c([H])c([H])c(Cl)c([H])c2OC([H])([H])C2([H])C(=O)N([H])c3c([H])c(Cl)c(OC([H])([H])[H])c([H])c3C([H])([H])C([H])([H])[C@]2([H])N([H])C(=O)c2c([H])c([H])c([H])n2[H])c1[H]


 48 52  0  0  0  0  0  0  0  0999 V2000
   37.2350   11.9921  -15.4075 C   0  0  0  0  0  0  0  0  0  0  0  0
   36.7173   12.6500  -14.3041 C   0  0  0  0  0  0  0  0  0  0  0  0
   37.4536   13.6303  -13.7242 C   0  0  0  0  0  0  0  0  0  0  0  0
   36.6950   14.1895  -12.5628 C   0  0  0  0  0  0  0  0  0  0  0  0
   37.1172   15.6394  -12.2909 C   0  0  0  0  0  0  0  0  0  0  0  0
   37.9063   15.7979  -11.0381 C   0  0  0  0  0  0  0  0  0  0  0  0
   39.3795   15.4747  -11.1934 C   0  0  0  0  0  0  0  0  0  0  0  0
   39.8543   15.6779  -12.6095 C   0  0  0  0  0  0  0  0  0  0  0  0
   40.5398   16.7220  -12.7749 O   0  0  0  0  0  0  0  0  0  0  0  0
   39.7108   14.9579  -13.8269 N   0  0  0  0  0  0  0  0  0  0  0  0
   38.7151   13.9866  -14.2143 C   0  0  0  0  0  0  0  0  0  0  0  0
   39.2480   13.3528  -15.3012 C   0  0  0  0  0  0  0  0  0  0  0  0
   38.4918   12.3480  -15.8950 C   0  0  0  0  0  0  0  0  0  0  0  0
   39.1268   11.4999  -17.2956 Cl  0  0  0  0  0  0  0  0  0  0  0  0
   40.4270   15.1516  -14.5641 H   0  0  0  0  0  0  0  0  0  0  0  0
   37.6883   17.1129  -10.5222 N   0  0  0  0  0  0  0  0  0  0  0  0
   37.2053   17.2845   -9.2004 C   0  0  0  0  0  0  0  0  0  0  0  0
   36.9562   16.2795   -8.4503 O   0  0  0  0  0  0  0  0  0  0  0  0
   37.8729   17.9690  -11.0868 H   0  0  0  0  0  0  0  0  0  0  0  0
   36.9720   18.6084   -8.6376 C   0  0  0  0  0  0  0  0  0  0  0  0
   37.8216   19.6784   -8.7969 C   0  0  0  0  0  0  0  0  0  0  0  0
   37.2626   20.7425   -8.1238 C   0  0  0  0  0  0  0  0  0  0  0  0
   36.0786   20.3257   -7.5569 C   0  0  0  0  0  0  0  0  0  0  0  0
   35.9244   19.0205   -7.8850 N   0  0  0  0  0  0  0  0  0  0  0  0
   35.1417   18.3826   -7.6264 H   0  0  0  0  0  0  0  0  0  0  0  0
   35.6095   11.3341  -17.0558 C   0  0  0  0  0  0  0  0  0  0  0  0
   36.5254   10.9809  -16.0410 O   0  0  0  0  0  0  0  0  0  0  0  0
   40.2327   16.2640  -10.2616 C   0  0  0  0  0  0  0  0  0  0  0  0
   41.5620   15.9691  -10.3958 O   0  0  0  0  0  0  0  0  0  0  0  0
   42.6277   16.0053   -9.6031 C   0  0  0  0  0  0  0  0  0  0  0  0
   42.5949   15.6637   -8.2753 C   0  0  0  0  0  0  0  0  0  0  0  0
   43.7606   15.7260   -7.5183 C   0  0  0  0  0  0  0  0  0  0  0  0
   43.6965   15.2795   -5.8072 Cl  0  0  0  0  0  0  0  0  0  0  0  0
   44.9634   16.1288   -8.0765 C   0  0  0  0  0  0  0  0  0  0  0  0
   44.9863   16.4761   -9.4315 C   0  0  0  0  0  0  0  0  0  0  0  0
   43.8447   16.4188  -10.1900 C   0  0  0  0  0  0  0  0  0  0  0  0
   43.8075   16.7488  -11.5288 O   0  0  0  0  0  0  0  0  0  0  0  0
   44.8520   16.3193  -12.3905 C   0  0  0  0  0  0  0  0  0  0  0  0
   44.7340   15.1262  -12.7536 O   0  0  0  0  0  0  0  0  0  0  0  0
   45.8821   17.1990  -12.7561 N   0  0  0  0  0  0  0  0  0  0  0  0
   45.7999   18.1868  -12.3349 H   0  0  0  0  0  0  0  0  0  0  0  0
   46.9902   16.9936  -13.5754 C   0  0  0  0  0  0  0  0  0  0  0  0
   48.0179   16.1332  -13.1924 C   0  0  0  0  0  0  0  0  0  0  0  0
   49.1136   15.9120  -13.9764 C   0  0  0  0  0  0  0  0  0  0  0  0
   49.2469   16.5356  -15.1861 C   0  0  0  0  0  0  0  0  0  0  0  0
   48.2594   17.3884  -15.5990 C   0  0  0  0  0  0  0  0  0  0  0  0
   48.4191   18.1942  -17.1510 Cl  0  0  0  0  0  0  0  0  0  0  0  0
   47.1406   17.6079  -14.7875 C   0  0  0  0  0  0  0  0  0  0  0  0
 26 27  1  0  0  0
 27  1  1  0  0  0
  1  2  2  0  0  0
  2  3  1  0  0  0
  3  4  1  0  0  0
  4  5  1  0  0  0
  5  6  1  0  0  0
  6 16  1  0  0  0
 16 17  1  0  0  0
 17 18  2  0  0  0
 17 20  1  0  0  0
 20 21  2  0  0  0
 21 22  1  0  0  0
 22 23  2  0  0  0
 23 24  1  0  0  0
  6  7  1  0  0  0
  7 28  1  0  0  0
 28 29  1  0  0  0
 29 30  1  0  0  0
 30 31  2  0  0  0
 31 32  1  0  0  0
 32 33  1  0  0  0
 32 34  2  0  0  0
 34 35  1  0  0  0
 35 36  2  0  0  0
 36 37  1  0  0  0
 37 38  1  0  0  0
 38 39  2  0  0  0
 38 40  1  0  0  0
 40 42  1  0  0  0
 42 43  2  0  0  0
 43 44  1  0  0  0
 44 45  2  0  0  0
 45 46  1  0  0  0
 46 47  1  0  0  0
 46 48  2  0  0  0
  7  8  1  0  0  0
  8  9  2  0  0  0
  8 10  1  0  0  0
 10 11  1  0  0  0
 11 12  1  0  0  0
 12 13  2  0  0  0
 13 14  1  0  0  0
 13  1  1  0  0  0
 11  3  2  0  0  0
 24 20  1  0  0  0
 36 30  1  0  0  0
 48 42  1  0  0  0
 16 19  1  0  0  0
 24 25  1  0  0  0
 40 41  1  0  0  0
 10 15  1  0  0  0
M  END
> <minimizedAffinity>
-8.37027

> <CNNscore>
0.1213610917

> <CNNaffinity>
6.8450188637

> <CNN_VS>
0.8307189345

> <CNNaffinity_variance>
0.0970492065

$$$$
[H]c1c([H])c(Cl)c([H])c(N([H])C(=O)Oc2c([H])c([H])c(Cl)c([H])c2OC([H])([H])C2([H])C(=O)N([H])c3c([H])c(Cl)c(OC([H])([H])[H])c([H])c3C([H])([H])C([H])([H])[C@]2([H])N([H])C(=O)c2c([H])c([H])c([H])n2[H])c1[H]


 48 52  0  0  0  0  0  0  0  0999 V2000
   38.4157   11.9577  -16.0362 C   0  0  0  0  0  0  0  0  0  0  0  0
   37.7373   12.2426  -14.8627 C   0  0  0  0  0  0  0  0  0  0  0  0
   38.1743   13.2670  -14.0887 C   0  0  0  0  0  0  0  0  0  0  0  0
   37.2919   13.3826  -12.8867 C   0  0  0  0  0  0  0  0  0  0  0  0
   37.2967   14.8203  -12.3506 C   0  0  0  0  0  0  0  0  0  0  0  0
   38.0125   14.9624  -11.0526 C   0  0  0  0  0  0  0  0  0  0  0  0
   39.5175   15.0857  -11.1898 C   0  0  0  0  0  0  0  0  0  0  0  0
   39.9160   15.6591  -12.5256 C   0  0  0  0  0  0  0  0  0  0  0  0
   40.2857   16.8625  -12.4767 O   0  0  0  0  0  0  0  0  0  0  0  0
   39.9760   15.1557  -13.8538 N   0  0  0  0  0  0  0  0  0  0  0  0
   39.2874   14.0348  -14.4493 C   0  0  0  0  0  0  0  0  0  0  0  0
   39.9738   13.7740  -15.6017 C   0  0  0  0  0  0  0  0  0  0  0  0
   39.5244   12.7234  -16.3944 C   0  0  0  0  0  0  0  0  0  0  0  0
   40.3677   12.3435  -17.8873 Cl  0  0  0  0  0  0  0  0  0  0  0  0
   40.6098   15.6651  -14.5116 H   0  0  0  0  0  0  0  0  0  0  0  0
   37.4397   16.0548  -10.3303 N   0  0  0  0  0  0  0  0  0  0  0  0
   36.4838   15.8080   -9.3129 C   0  0  0  0  0  0  0  0  0  0  0  0
   36.1167   14.6181   -9.0232 O   0  0  0  0  0  0  0  0  0  0  0  0
   37.6997   17.0453  -10.5227 H   0  0  0  0  0  0  0  0  0  0  0  0
   35.8784   16.8943   -8.5531 C   0  0  0  0  0  0  0  0  0  0  0  0
   34.7180   16.7766   -7.8240 C   0  0  0  0  0  0  0  0  0  0  0  0
   34.4712   18.0067   -7.2550 C   0  0  0  0  0  0  0  0  0  0  0  0
   35.4747   18.8708   -7.6335 C   0  0  0  0  0  0  0  0  0  0  0  0
   36.3201   18.1679   -8.4248 N   0  0  0  0  0  0  0  0  0  0  0  0
   37.1905   18.5031   -8.8902 H   0  0  0  0  0  0  0  0  0  0  0  0
   36.7201   10.9736  -17.4321 C   0  0  0  0  0  0  0  0  0  0  0  0
   38.0128   10.9209  -16.8668 O   0  0  0  0  0  0  0  0  0  0  0  0
   40.1200   15.8989  -10.0966 C   0  0  0  0  0  0  0  0  0  0  0  0
   40.4111   15.1495   -8.9895 O   0  0  0  0  0  0  0  0  0  0  0  0
   39.9353   15.0583   -7.7524 C   0  0  0  0  0  0  0  0  0  0  0  0
   39.1036   15.9931   -7.1907 C   0  0  0  0  0  0  0  0  0  0  0  0
   38.6475   15.8163   -5.8882 C   0  0  0  0  0  0  0  0  0  0  0  0
   37.5741   17.0338   -5.1833 Cl  0  0  0  0  0  0  0  0  0  0  0  0
   39.0163   14.7112   -5.1377 C   0  0  0  0  0  0  0  0  0  0  0  0
   39.8656   13.7639   -5.7192 C   0  0  0  0  0  0  0  0  0  0  0  0
   40.3225   13.9249   -7.0026 C   0  0  0  0  0  0  0  0  0  0  0  0
   41.1607   13.0246   -7.6268 O   0  0  0  0  0  0  0  0  0  0  0  0
   42.5490   13.0279   -7.3259 C   0  0  0  0  0  0  0  0  0  0  0  0
   43.1152   14.1068   -7.6166 O   0  0  0  0  0  0  0  0  0  0  0  0
   43.1588   11.8978   -6.7605 N   0  0  0  0  0  0  0  0  0  0  0  0
   42.4942   11.0684   -6.5866 H   0  0  0  0  0  0  0  0  0  0  0  0
   44.4851   11.6830   -6.3912 C   0  0  0  0  0  0  0  0  0  0  0  0
   45.5352   12.0996   -7.2077 C   0  0  0  0  0  0  0  0  0  0  0  0
   46.8434   11.9038   -6.8695 C   0  0  0  0  0  0  0  0  0  0  0  0
   47.1788   11.2819   -5.6987 C   0  0  0  0  0  0  0  0  0  0  0  0
   46.1769   10.8577   -4.8686 C   0  0  0  0  0  0  0  0  0  0  0  0
   46.5954   10.0588   -3.3619 Cl  0  0  0  0  0  0  0  0  0  0  0  0
   44.8393   11.0635   -5.2251 C   0  0  0  0  0  0  0  0  0  0  0  0
 26 27  1  0  0  0
 27  1  1  0  0  0
  1  2  2  0  0  0
  2  3  1  0  0  0
  3  4  1  0  0  0
  4  5  1  0  0  0
  5  6  1  0  0  0
  6 16  1  0  0  0
 16 17  1  0  0  0
 17 18  2  0  0  0
 17 20  1  0  0  0
 20 21  2  0  0  0
 21 22  1  0  0  0
 22 23  2  0  0  0
 23 24  1  0  0  0
  6  7  1  0  0  0
  7 28  1  0  0  0
 28 29  1  0  0  0
 29 30  1  0  0  0
 30 31  2  0  0  0
 31 32  1  0  0  0
 32 33  1  0  0  0
 32 34  2  0  0  0
 34 35  1  0  0  0
 35 36  2  0  0  0
 36 37  1  0  0  0
 37 38  1  0  0  0
 38 39  2  0  0  0
 38 40  1  0  0  0
 40 42  1  0  0  0
 42 43  2  0  0  0
 43 44  1  0  0  0
 44 45  2  0  0  0
 45 46  1  0  0  0
 46 47  1  0  0  0
 46 48  2  0  0  0
  7  8  1  0  0  0
  8  9  2  0  0  0
  8 10  1  0  0  0
 10 11  1  0  0  0
 11 12  1  0  0  0
 12 13  2  0  0  0
 13 14  1  0  0  0
 13  1  1  0  0  0
 11  3  2  0  0  0
 24 20  1  0  0  0
 36 30  1  0  0  0
 48 42  1  0  0  0
 16 19  1  0  0  0
 24 25  1  0  0  0
 40 41  1  0  0  0
 10 15  1  0  0  0
M  END
> <minimizedAffinity>
-8.02874

> <CNNscore>
0.1116682142

> <CNNaffinity>
6.5958633423

> <CNN_VS>
0.7365483046

> <CNNaffinity_variance>
0.4129912853

$$$$
[H]c1c([H])c(Cl)c([H])c(N([H])C(=O)Oc2c([H])c([H])c(Cl)c([H])c2OC([H])([H])C2([H])C(=O)N([H])c3c([H])c(Cl)c(OC([H])([H])[H])c([H])c3C([H])([H])C([H])([H])[C@]2([H])N([H])C(=O)c2c([H])c([H])c([H])n2[H])c1[H]


 48 52  0  0  0  0  0  0  0  0999 V2000
   36.0182   12.0269  -15.2661 C   0  0  0  0  0  0  0  0  0  0  0  0
   35.5897   12.7800  -14.1855 C   0  0  0  0  0  0  0  0  0  0  0  0
   36.4550   13.6556  -13.6163 C   0  0  0  0  0  0  0  0  0  0  0  0
   35.7732   14.3476  -12.4792 C   0  0  0  0  0  0  0  0  0  0  0  0
   36.4003   15.7262  -12.2331 C   0  0  0  0  0  0  0  0  0  0  0  0
   37.1894   15.7977  -10.9723 C   0  0  0  0  0  0  0  0  0  0  0  0
   38.6010   15.2586  -11.0982 C   0  0  0  0  0  0  0  0  0  0  0  0
   39.1170   15.3559  -12.5110 C   0  0  0  0  0  0  0  0  0  0  0  0
   39.9502   16.2841  -12.6891 O   0  0  0  0  0  0  0  0  0  0  0  0
   38.8837   14.6356  -13.7142 N   0  0  0  0  0  0  0  0  0  0  0  0
   37.7609   13.8115  -14.0951 C   0  0  0  0  0  0  0  0  0  0  0  0
   38.2077   13.0805  -15.1595 C   0  0  0  0  0  0  0  0  0  0  0  0
   37.3193   12.1832  -15.7423 C   0  0  0  0  0  0  0  0  0  0  0  0
   37.8393   11.2178  -17.1140 Cl  0  0  0  0  0  0  0  0  0  0  0  0
   39.6291   14.7045  -14.4447 H   0  0  0  0  0  0  0  0  0  0  0  0
   37.1606   17.1425  -10.4890 N   0  0  0  0  0  0  0  0  0  0  0  0
   36.7177   17.4120   -9.1695 C   0  0  0  0  0  0  0  0  0  0  0  0
   36.3379   16.4701   -8.3928 O   0  0  0  0  0  0  0  0  0  0  0  0
   37.4575   17.9504  -11.0762 H   0  0  0  0  0  0  0  0  0  0  0  0
   36.6754   18.7688   -8.6395 C   0  0  0  0  0  0  0  0  0  0  0  0
   37.6697   19.7020   -8.8198 C   0  0  0  0  0  0  0  0  0  0  0  0
   37.2677   20.8512   -8.1749 C   0  0  0  0  0  0  0  0  0  0  0  0
   36.0353   20.6220   -7.6043 C   0  0  0  0  0  0  0  0  0  0  0  0
   35.6964   19.3447   -7.9021 N   0  0  0  0  0  0  0  0  0  0  0  0
   34.8300   18.8318   -7.6325 H   0  0  0  0  0  0  0  0  0  0  0  0
   33.7829   11.3432  -15.8386 C   0  0  0  0  0  0  0  0  0  0  0  0
   35.1755   11.1156  -15.8877 O   0  0  0  0  0  0  0  0  0  0  0  0
   39.5498   15.9367  -10.1712 C   0  0  0  0  0  0  0  0  0  0  0  0
   40.7651   15.3105  -10.1195 O   0  0  0  0  0  0  0  0  0  0  0  0
   41.8680   15.4360   -9.3894 C   0  0  0  0  0  0  0  0  0  0  0  0
   42.9048   16.2700   -9.7220 C   0  0  0  0  0  0  0  0  0  0  0  0
   44.0224   16.3436   -8.8967 C   0  0  0  0  0  0  0  0  0  0  0  0
   45.3481   17.4272   -9.3437 Cl  0  0  0  0  0  0  0  0  0  0  0  0
   44.1157   15.5887   -7.7383 C   0  0  0  0  0  0  0  0  0  0  0  0
   43.0535   14.7403   -7.4082 C   0  0  0  0  0  0  0  0  0  0  0  0
   41.9451   14.6581   -8.2123 C   0  0  0  0  0  0  0  0  0  0  0  0
   40.8688   13.8403   -7.9373 O   0  0  0  0  0  0  0  0  0  0  0  0
   39.6901   14.3928   -7.3689 C   0  0  0  0  0  0  0  0  0  0  0  0
   38.6413   13.8351   -7.7664 O   0  0  0  0  0  0  0  0  0  0  0  0
   39.7688   15.4582   -6.4591 N   0  0  0  0  0  0  0  0  0  0  0  0
   40.7696   15.7951   -6.2474 H   0  0  0  0  0  0  0  0  0  0  0  0
   38.7575   16.1449   -5.7905 C   0  0  0  0  0  0  0  0  0  0  0  0
   38.6503   17.5319   -5.8790 C   0  0  0  0  0  0  0  0  0  0  0  0
   37.6685   18.2296   -5.2360 C   0  0  0  0  0  0  0  0  0  0  0  0
   36.7382   17.5845   -4.4689 C   0  0  0  0  0  0  0  0  0  0  0  0
   36.8085   16.2225   -4.3563 C   0  0  0  0  0  0  0  0  0  0  0  0
   35.6188   15.3831   -3.3747 Cl  0  0  0  0  0  0  0  0  0  0  0  0
   37.8190   15.5172   -5.0194 C   0  0  0  0  0  0  0  0  0  0  0  0
 26 27  1  0  0  0
 27  1  1  0  0  0
  1  2  2  0  0  0
  2  3  1  0  0  0
  3  4  1  0  0  0
  4  5  1  0  0  0
  5  6  1  0  0  0
  6 16  1  0  0  0
 16 17  1  0  0  0
 17 18  2  0  0  0
 17 20  1  0  0  0
 20 21  2  0  0  0
 21 22  1  0  0  0
 22 23  2  0  0  0
 23 24  1  0  0  0
  6  7  1  0  0  0
  7 28  1  0  0  0
 28 29  1  0  0  0
 29 30  1  0  0  0
 30 31  2  0  0  0
 31 32  1  0  0  0
 32 33  1  0  0  0
 32 34  2  0  0  0
 34 35  1  0  0  0
 35 36  2  0  0  0
 36 37  1  0  0  0
 37 38  1  0  0  0
 38 39  2  0  0  0
 38 40  1  0  0  0
 40 42  1  0  0  0
 42 43  2  0  0  0
 43 44  1  0  0  0
 44 45  2  0  0  0
 45 46  1  0  0  0
 46 47  1  0  0  0
 46 48  2  0  0  0
  7  8  1  0  0  0
  8  9  2  0  0  0
  8 10  1  0  0  0
 10 11  1  0  0  0
 11 12  1  0  0  0
 12 13  2  0  0  0
 13 14  1  0  0  0
 13  1  1  0  0  0
 11  3  2  0  0  0
 24 20  1  0  0  0
 36 30  1  0  0  0
 48 42  1  0  0  0
 16 19  1  0  0  0
 24 25  1  0  0  0
 40 41  1  0  0  0
 10 15  1  0  0  0
M  END
> <minimizedAffinity>
-8.14033

> <CNNscore>
0.1089260429

> <CNNaffinity>
6.8819856644

> <CNN_VS>
0.7496274710

> <CNNaffinity_variance>
0.1495448649

$$$$
[H]c1nc2c(c([H])c1C(=O)N1C([H])([H])C([H])([H])N(S(=O)(=O)c3c([H])c([H])c(OC([H])([H])[H])c([H])c3[H])C([H])([H])C1([H])[H])c([H])c([H])n2[H]


 29 32  0  0  0  0  0  0  0  0999 V2000
   36.2775   14.4737  -12.2640 N   0  0  0  0  0  0  0  0  0  0  0  0
   35.0229   14.2367  -12.8063 C   0  0  0  0  0  0  0  0  0  0  0  0
   34.6424   12.8482  -13.2092 C   0  0  0  0  0  0  0  0  0  0  0  0
   35.8702   12.3534  -13.9567 N   0  0  0  0  0  0  0  0  0  0  0  0
   36.9715   12.2717  -13.0470 C   0  0  0  0  0  0  0  0  0  0  0  0
   37.3954   13.6700  -12.6279 C   0  0  0  0  0  0  0  0  0  0  0  0
   35.7318   12.0429  -15.2988 C   0  0  0  0  0  0  0  0  0  0  0  0
   34.4885   12.1571  -15.7323 O   0  0  0  0  0  0  0  0  0  0  0  0
   36.7022   11.6233  -16.2789 C   0  0  0  0  0  0  0  0  0  0  0  0
   36.4828   10.8288  -17.3649 C   0  0  0  0  0  0  0  0  0  0  0  0
   37.4627   10.5320  -18.2737 N   0  0  0  0  0  0  0  0  0  0  0  0
   38.6984   11.0036  -18.1497 C   0  0  0  0  0  0  0  0  0  0  0  0
   39.8166   10.8446  -18.9171 N   0  0  0  0  0  0  0  0  0  0  0  0
   40.8382   11.5271  -18.3751 C   0  0  0  0  0  0  0  0  0  0  0  0
   40.3455   12.1291  -17.2382 C   0  0  0  0  0  0  0  0  0  0  0  0
   39.0052   11.8108  -17.0826 C   0  0  0  0  0  0  0  0  0  0  0  0
   38.0298   12.1083  -16.1765 C   0  0  0  0  0  0  0  0  0  0  0  0
   39.8261   10.2678  -19.7879 H   0  0  0  0  0  0  0  0  0  0  0  0
   36.4903   15.6438  -11.0946 S   0  0  0  0  0  0  0  0  0  0  0  0
   37.9633   15.7047  -10.7192 O   0  0  0  0  0  0  0  0  0  0  0  0
   36.1840   17.0087  -11.6972 O   0  0  0  0  0  0  0  0  0  0  0  0
   33.8938   15.1285   -7.3535 C   0  0  0  0  0  0  0  0  0  0  0  0
   35.1525   14.5725   -7.4438 C   0  0  0  0  0  0  0  0  0  0  0  0
   35.9335   14.7292   -8.5725 C   0  0  0  0  0  0  0  0  0  0  0  0
   35.4986   15.4487   -9.6692 C   0  0  0  0  0  0  0  0  0  0  0  0
   34.2377   16.0010   -9.5687 C   0  0  0  0  0  0  0  0  0  0  0  0
   33.4523   15.8483   -8.4439 C   0  0  0  0  0  0  0  0  0  0  0  0
   32.1245   13.9481   -6.2141 C   0  0  0  0  0  0  0  0  0  0  0  0
   33.1093   14.9660   -6.2088 O   0  0  0  0  0  0  0  0  0  0  0  0
 28 29  1  0  0  0
 29 22  1  0  0  0
 22 23  2  0  0  0
 23 24  1  0  0  0
 24 25  2  0  0  0
 25 26  1  0  0  0
 26 27  2  0  0  0
 25 19  1  0  0  0
 19 20  2  0  0  0
 19 21  2  0  0  0
 19  1  1  0  0  0
  1  2  1  0  0  0
  2  3  1  0  0  0
  3  4  1  0  0  0
  4  5  1  0  0  0
  5  6  1  0  0  0
  4  7  1  0  0  0
  7  8  2  0  0  0
  7  9  1  0  0  0
  9 10  2  0  0  0
 10 11  1  0  0  0
 11 12  2  0  0  0
 12 13  1  0  0  0
 13 14  1  0  0  0
 14 15  2  0  0  0
 15 16  1  0  0  0
 16 17  2  0  0  0
 27 22  1  0  0  0
  6  1  1  0  0  0
 17  9  1  0  0  0
 16 12  1  0  0  0
 13 18  1  0  0  0
M  END
> <minimizedAffinity>
-9.31052

> <CNNscore>
0.1995010525

> <CNNaffinity>
5.9416589737

> <CNN_VS>
1.1853672266

> <CNNaffinity_variance>
0.3350924850

$$$$
[H]c1nc2c(c([H])c1C(=O)N1C([H])([H])C([H])([H])N(S(=O)(=O)c3c([H])c([H])c(OC([H])([H])[H])c([H])c3[H])C([H])([H])C1([H])[H])c([H])c([H])n2[H]


 29 32  0  0  0  0  0  0  0  0999 V2000
   35.7502   14.4311  -12.3394 N   0  0  0  0  0  0  0  0  0  0  0  0
   34.5602   14.1451  -12.9923 C   0  0  0  0  0  0  0  0  0  0  0  0
   34.2729   12.7430  -13.4244 C   0  0  0  0  0  0  0  0  0  0  0  0
   35.5819   12.2979  -14.0563 N   0  0  0  0  0  0  0  0  0  0  0  0
   36.5987   12.2591  -13.0505 C   0  0  0  0  0  0  0  0  0  0  0  0
   36.9272   13.6726  -12.5984 C   0  0  0  0  0  0  0  0  0  0  0  0
   35.5779   11.9834  -15.4046 C   0  0  0  0  0  0  0  0  0  0  0  0
   34.3755   12.0487  -15.9491 O   0  0  0  0  0  0  0  0  0  0  0  0
   36.6489   11.6035  -16.2918 C   0  0  0  0  0  0  0  0  0  0  0  0
   36.5655   10.7808  -17.3757 C   0  0  0  0  0  0  0  0  0  0  0  0
   37.6333   10.5251  -18.1935 N   0  0  0  0  0  0  0  0  0  0  0  0
   38.8265   11.0672  -17.9768 C   0  0  0  0  0  0  0  0  0  0  0  0
   40.0123   10.9592  -18.6450 N   0  0  0  0  0  0  0  0  0  0  0  0
   40.9458   11.7065  -18.0340 C   0  0  0  0  0  0  0  0  0  0  0  0
   40.3269   12.2978  -16.9547 C   0  0  0  0  0  0  0  0  0  0  0  0
   38.9977   11.9072  -16.9047 C   0  0  0  0  0  0  0  0  0  0  0  0
   37.9347   12.1638  -16.0892 C   0  0  0  0  0  0  0  0  0  0  0  0
   40.1266   10.3700  -19.5000 H   0  0  0  0  0  0  0  0  0  0  0  0
   35.8097   15.6076  -11.1586 S   0  0  0  0  0  0  0  0  0  0  0  0
   36.2858   16.9105  -11.7832 O   0  0  0  0  0  0  0  0  0  0  0  0
   34.3943   15.8994  -10.6774 O   0  0  0  0  0  0  0  0  0  0  0  0
   38.3616   14.5454   -7.5032 C   0  0  0  0  0  0  0  0  0  0  0  0
   38.9215   15.0660   -8.6508 C   0  0  0  0  0  0  0  0  0  0  0  0
   38.1503   15.3856   -9.7515 C   0  0  0  0  0  0  0  0  0  0  0  0
   36.7807   15.2020   -9.7637 C   0  0  0  0  0  0  0  0  0  0  0  0
   36.2303   14.6805   -8.6103 C   0  0  0  0  0  0  0  0  0  0  0  0
   36.9952   14.3592   -7.5071 C   0  0  0  0  0  0  0  0  0  0  0  0
   39.8473   12.9931   -6.4055 C   0  0  0  0  0  0  0  0  0  0  0  0
   39.1477   14.2245   -6.3935 O   0  0  0  0  0  0  0  0  0  0  0  0
 28 29  1  0  0  0
 29 22  1  0  0  0
 22 23  2  0  0  0
 23 24  1  0  0  0
 24 25  2  0  0  0
 25 26  1  0  0  0
 26 27  2  0  0  0
 25 19  1  0  0  0
 19 20  2  0  0  0
 19 21  2  0  0  0
 19  1  1  0  0  0
  1  2  1  0  0  0
  2  3  1  0  0  0
  3  4  1  0  0  0
  4  5  1  0  0  0
  5  6  1  0  0  0
  4  7  1  0  0  0
  7  8  2  0  0  0
  7  9  1  0  0  0
  9 10  2  0  0  0
 10 11  1  0  0  0
 11 12  2  0  0  0
 12 13  1  0  0  0
 13 14  1  0  0  0
 14 15  2  0  0  0
 15 16  1  0  0  0
 16 17  2  0  0  0
 27 22  1  0  0  0
  6  1  1  0  0  0
 17  9  1  0  0  0
 16 12  1  0  0  0
 13 18  1  0  0  0
M  END
> <minimizedAffinity>
-9.33130

> <CNNscore>
0.1977840215

> <CNNaffinity>
6.0994634628

> <CNN_VS>
1.2063764334

> <CNNaffinity_variance>
0.3195868433

$$$$
[H]c1nc2c(c([H])c1C(=O)N1C([H])([H])C([H])([H])N(S(=O)(=O)c3c([H])c([H])c(OC([H])([H])[H])c([H])c3[H])C([H])([H])C1([H])[H])c([H])c([H])n2[H]


 29 32  0  0  0  0  0  0  0  0999 V2000
   36.3989   14.4802  -12.2023 N   0  0  0  0  0  0  0  0  0  0  0  0
   35.1358   14.2812  -12.7400 C   0  0  0  0  0  0  0  0  0  0  0  0
   34.7169   12.9069  -13.1534 C   0  0  0  0  0  0  0  0  0  0  0  0
   35.9274   12.3869  -13.9118 N   0  0  0  0  0  0  0  0  0  0  0  0
   37.0308   12.2680  -13.0087 C   0  0  0  0  0  0  0  0  0  0  0  0
   37.4934   13.6507  -12.5793 C   0  0  0  0  0  0  0  0  0  0  0  0
   35.7741   12.0923  -15.2558 C   0  0  0  0  0  0  0  0  0  0  0  0
   34.5321   12.2431  -15.6817 O   0  0  0  0  0  0  0  0  0  0  0  0
   36.7282   11.6564  -16.2448 C   0  0  0  0  0  0  0  0  0  0  0  0
   36.4889   10.8510  -17.3186 C   0  0  0  0  0  0  0  0  0  0  0  0
   37.4543   10.5386  -18.2378 N   0  0  0  0  0  0  0  0  0  0  0  0
   38.6942   11.0045  -18.1366 C   0  0  0  0  0  0  0  0  0  0  0  0
   39.8004   10.8307  -18.9178 N   0  0  0  0  0  0  0  0  0  0  0  0
   40.8334   11.5134  -18.3980 C   0  0  0  0  0  0  0  0  0  0  0  0
   40.3602   12.1307  -17.2611 C   0  0  0  0  0  0  0  0  0  0  0  0
   39.0205   11.8218  -17.0830 C   0  0  0  0  0  0  0  0  0  0  0  0
   38.0598   12.1349  -16.1666 C   0  0  0  0  0  0  0  0  0  0  0  0
   39.7944   10.2441  -19.7821 H   0  0  0  0  0  0  0  0  0  0  0  0
   36.6483   15.6336  -11.0235 S   0  0  0  0  0  0  0  0  0  0  0  0
   37.9148   16.4096  -11.3521 O   0  0  0  0  0  0  0  0  0  0  0  0
   35.5292   16.6645  -11.0938 O   0  0  0  0  0  0  0  0  0  0  0  0
   36.8049   14.0131   -6.7396 C   0  0  0  0  0  0  0  0  0  0  0  0
   35.6092   14.3146   -7.3567 C   0  0  0  0  0  0  0  0  0  0  0  0
   35.5643   14.8029   -8.6482 C   0  0  0  0  0  0  0  0  0  0  0  0
   36.7104   15.0155   -9.3904 C   0  0  0  0  0  0  0  0  0  0  0  0
   37.9018   14.7107   -8.7637 C   0  0  0  0  0  0  0  0  0  0  0  0
   37.9536   14.2224   -7.4735 C   0  0  0  0  0  0  0  0  0  0  0  0
   35.6120   13.2788   -4.7750 C   0  0  0  0  0  0  0  0  0  0  0  0
   36.8429   13.5195   -5.4330 O   0  0  0  0  0  0  0  0  0  0  0  0
 28 29  1  0  0  0
 29 22  1  0  0  0
 22 23  2  0  0  0
 23 24  1  0  0  0
 24 25  2  0  0  0
 25 26  1  0  0  0
 26 27  2  0  0  0
 25 19  1  0  0  0
 19 20  2  0  0  0
 19 21  2  0  0  0
 19  1  1  0  0  0
  1  2  1  0  0  0
  2  3  1  0  0  0
  3  4  1  0  0  0
  4  5  1  0  0  0
  5  6  1  0  0  0
  4  7  1  0  0  0
  7  8  2  0  0  0
  7  9  1  0  0  0
  9 10  2  0  0  0
 10 11  1  0  0  0
 11 12  2  0  0  0
 12 13  1  0  0  0
 13 14  1  0  0  0
 14 15  2  0  0  0
 15 16  1  0  0  0
 16 17  2  0  0  0
 27 22  1  0  0  0
  6  1  1  0  0  0
 17  9  1  0  0  0
 16 12  1  0  0  0
 13 18  1  0  0  0
M  END
> <minimizedAffinity>
-9.07712

> <CNNscore>
0.1973652840

> <CNNaffinity>
6.1055984497

> <CNN_VS>
1.2050331831

> <CNNaffinity_variance>
0.2687782049

$$$$
[H]c1nc2c(c([H])c1C(=O)N1C([H])([H])C([H])([H])N(S(=O)(=O)c3c([H])c([H])c(OC([H])([H])[H])c([H])c3[H])C([H])([H])C1([H])[H])c([H])c([H])n2[H]


 29 32  0  0  0  0  0  0  0  0999 V2000
   35.8231   14.5597  -11.9955 N   0  0  0  0  0  0  0  0  0  0  0  0
   34.7113   14.1322  -12.7065 C   0  0  0  0  0  0  0  0  0  0  0  0
   34.6362   12.7158  -13.1790 C   0  0  0  0  0  0  0  0  0  0  0  0
   36.0187   12.4687  -13.7607 N   0  0  0  0  0  0  0  0  0  0  0  0
   36.9888   12.5418  -12.7115 C   0  0  0  0  0  0  0  0  0  0  0  0
   37.1023   13.9746  -12.2170 C   0  0  0  0  0  0  0  0  0  0  0  0
   36.1135   12.1916  -15.1139 C   0  0  0  0  0  0  0  0  0  0  0  0
   34.9370   12.1076  -15.7101 O   0  0  0  0  0  0  0  0  0  0  0  0
   37.2622   11.9834  -15.9599 C   0  0  0  0  0  0  0  0  0  0  0  0
   38.5667   12.2301  -15.6498 C   0  0  0  0  0  0  0  0  0  0  0  0
   39.5966   11.9441  -16.5054 N   0  0  0  0  0  0  0  0  0  0  0  0
   39.3843   11.4055  -17.7010 C   0  0  0  0  0  0  0  0  0  0  0  0
   40.2386   11.0413  -18.7020 N   0  0  0  0  0  0  0  0  0  0  0  0
   39.5402   10.5346  -19.7310 C   0  0  0  0  0  0  0  0  0  0  0  0
   38.2136   10.5832  -19.3634 C   0  0  0  0  0  0  0  0  0  0  0  0
   38.0987   11.1267  -18.0932 C   0  0  0  0  0  0  0  0  0  0  0  0
   37.0713   11.4102  -17.2418 C   0  0  0  0  0  0  0  0  0  0  0  0
   41.2740   11.1592  -18.6310 H   0  0  0  0  0  0  0  0  0  0  0  0
   35.6726   15.7024  -10.7899 S   0  0  0  0  0  0  0  0  0  0  0  0
   36.6756   15.3933   -9.6886 O   0  0  0  0  0  0  0  0  0  0  0  0
   36.0983   17.0590  -11.3364 O   0  0  0  0  0  0  0  0  0  0  0  0
   31.4498   16.1358   -9.0630 C   0  0  0  0  0  0  0  0  0  0  0  0
   31.6625   15.8891  -10.4029 C   0  0  0  0  0  0  0  0  0  0  0  0
   32.9364   15.7587  -10.9213 C   0  0  0  0  0  0  0  0  0  0  0  0
   34.0635   15.8679  -10.1293 C   0  0  0  0  0  0  0  0  0  0  0  0
   33.8396   16.1149   -8.7899 C   0  0  0  0  0  0  0  0  0  0  0  0
   32.5695   16.2462   -8.2655 C   0  0  0  0  0  0  0  0  0  0  0  0
   29.7093   15.2935   -7.6196 C   0  0  0  0  0  0  0  0  0  0  0  0
   30.1585   16.2665   -8.5455 O   0  0  0  0  0  0  0  0  0  0  0  0
 28 29  1  0  0  0
 29 22  1  0  0  0
 22 23  2  0  0  0
 23 24  1  0  0  0
 24 25  2  0  0  0
 25 26  1  0  0  0
 26 27  2  0  0  0
 25 19  1  0  0  0
 19 20  2  0  0  0
 19 21  2  0  0  0
 19  1  1  0  0  0
  1  2  1  0  0  0
  2  3  1  0  0  0
  3  4  1  0  0  0
  4  5  1  0  0  0
  5  6  1  0  0  0
  4  7  1  0  0  0
  7  8  2  0  0  0
  7  9  1  0  0  0
  9 10  2  0  0  0
 10 11  1  0  0  0
 11 12  2  0  0  0
 12 13  1  0  0  0
 13 14  1  0  0  0
 14 15  2  0  0  0
 15 16  1  0  0  0
 16 17  2  0  0  0
 27 22  1  0  0  0
  6  1  1  0  0  0
 17  9  1  0  0  0
 16 12  1  0  0  0
 13 18  1  0  0  0
M  END
> <minimizedAffinity>
-7.94420

> <CNNscore>
0.1775147319

> <CNNaffinity>
5.7857031822

> <CNN_VS>
1.0270475149

> <CNNaffinity_variance>
0.4253679812

$$$$
[H]c1nc2c(c([H])c1C(=O)N1C([H])([H])C([H])([H])N(S(=O)(=O)c3c([H])c([H])c(OC([H])([H])[H])c([H])c3[H])C([H])([H])C1([H])[H])c([H])c([H])n2[H]


 29 32  0  0  0  0  0  0  0  0999 V2000
   36.3115   14.5539  -12.2625 N   0  0  0  0  0  0  0  0  0  0  0  0
   35.0521   14.3088  -12.7898 C   0  0  0  0  0  0  0  0  0  0  0  0
   34.6688   12.9147  -13.1702 C   0  0  0  0  0  0  0  0  0  0  0  0
   35.8900   12.4104  -13.9222 N   0  0  0  0  0  0  0  0  0  0  0  0
   36.9997   12.3418  -13.0217 C   0  0  0  0  0  0  0  0  0  0  0  0
   37.4264   13.7459  -12.6257 C   0  0  0  0  0  0  0  0  0  0  0  0
   35.7394   12.0815  -15.2586 C   0  0  0  0  0  0  0  0  0  0  0  0
   34.4921   12.1891  -15.6821 O   0  0  0  0  0  0  0  0  0  0  0  0
   36.7010   11.6491  -16.2418 C   0  0  0  0  0  0  0  0  0  0  0  0
   36.4712   10.8430  -17.3170 C   0  0  0  0  0  0  0  0  0  0  0  0
   37.4432   10.5341  -18.2304 N   0  0  0  0  0  0  0  0  0  0  0  0
   38.6807   11.0046  -18.1217 C   0  0  0  0  0  0  0  0  0  0  0  0
   39.7923   10.8349  -18.8964 N   0  0  0  0  0  0  0  0  0  0  0  0
   40.8196   11.5215  -18.3703 C   0  0  0  0  0  0  0  0  0  0  0  0
   40.3372   12.1370  -17.2363 C   0  0  0  0  0  0  0  0  0  0  0  0
   38.9977   11.8231  -17.0663 C   0  0  0  0  0  0  0  0  0  0  0  0
   38.0303   12.1326  -16.1557 C   0  0  0  0  0  0  0  0  0  0  0  0
   39.7936   10.2484  -19.7607 H   0  0  0  0  0  0  0  0  0  0  0  0
   36.5342   15.7400  -11.1112 S   0  0  0  0  0  0  0  0  0  0  0  0
   36.2754   17.0984  -11.7452 O   0  0  0  0  0  0  0  0  0  0  0  0
   35.4613   15.5984  -10.0393 O   0  0  0  0  0  0  0  0  0  0  0  0
   40.6187   15.6725   -9.0339 C   0  0  0  0  0  0  0  0  0  0  0  0
   39.5230   15.0287   -8.4985 C   0  0  0  0  0  0  0  0  0  0  0  0
   38.2928   15.0503   -9.1264 C   0  0  0  0  0  0  0  0  0  0  0  0
   38.0924   15.7155  -10.3210 C   0  0  0  0  0  0  0  0  0  0  0  0
   39.1952   16.3565  -10.8484 C   0  0  0  0  0  0  0  0  0  0  0  0
   40.4272   16.3388  -10.2261 C   0  0  0  0  0  0  0  0  0  0  0  0
   42.9536   16.2810   -9.0318 C   0  0  0  0  0  0  0  0  0  0  0  0
   41.8601   15.6465   -8.3933 O   0  0  0  0  0  0  0  0  0  0  0  0
 28 29  1  0  0  0
 29 22  1  0  0  0
 22 23  2  0  0  0
 23 24  1  0  0  0
 24 25  2  0  0  0
 25 26  1  0  0  0
 26 27  2  0  0  0
 25 19  1  0  0  0
 19 20  2  0  0  0
 19 21  2  0  0  0
 19  1  1  0  0  0
  1  2  1  0  0  0
  2  3  1  0  0  0
  3  4  1  0  0  0
  4  5  1  0  0  0
  5  6  1  0  0  0
  4  7  1  0  0  0
  7  8  2  0  0  0
  7  9  1  0  0  0
  9 10  2  0  0  0
 10 11  1  0  0  0
 11 12  2  0  0  0
 12 13  1  0  0  0
 13 14  1  0  0  0
 14 15  2  0  0  0
 15 16  1  0  0  0
 16 17  2  0  0  0
 27 22  1  0  0  0
  6  1  1  0  0  0
 17  9  1  0  0  0
 16 12  1  0  0  0
 13 18  1  0  0  0
M  END
> <minimizedAffinity>
-9.17386

> <CNNscore>
0.1377577037

> <CNNaffinity>
5.9341201782

> <CNN_VS>
0.8174707890

> <CNNaffinity_variance>
0.3326596916

$$$$
[H]c1nc2c(c([H])c1C(=O)N1C([H])([H])C([H])([H])N(S(=O)(=O)c3c([H])c([H])c(OC([H])([H])[H])c([H])c3[H])C([H])([H])C1([H])[H])c([H])c([H])n2[H]


 29 32  0  0  0  0  0  0  0  0999 V2000
   42.3335   13.8435  -14.2376 N   0  0  0  0  0  0  0  0  0  0  0  0
   42.5272   12.9018  -15.2375 C   0  0  0  0  0  0  0  0  0  0  0  0
   41.6799   12.9462  -16.4685 C   0  0  0  0  0  0  0  0  0  0  0  0
   40.2780   13.1554  -15.9193 N   0  0  0  0  0  0  0  0  0  0  0  0
   40.2106   14.4341  -15.2807 C   0  0  0  0  0  0  0  0  0  0  0  0
   41.0505   14.4196  -14.0139 C   0  0  0  0  0  0  0  0  0  0  0  0
   39.3389   12.1626  -16.1412 C   0  0  0  0  0  0  0  0  0  0  0  0
   39.7963   11.1736  -16.8890 O   0  0  0  0  0  0  0  0  0  0  0  0
   37.9725   12.0354  -15.6994 C   0  0  0  0  0  0  0  0  0  0  0  0
   37.4617   12.4056  -14.4908 C   0  0  0  0  0  0  0  0  0  0  0  0
   36.1316   12.2958  -14.1855 N   0  0  0  0  0  0  0  0  0  0  0  0
   35.2509   11.8157  -15.0565 C   0  0  0  0  0  0  0  0  0  0  0  0
   33.9023   11.6179  -14.9749 N   0  0  0  0  0  0  0  0  0  0  0  0
   33.4498   11.1027  -16.1295 C   0  0  0  0  0  0  0  0  0  0  0  0
   34.5450   10.9750  -16.9552 C   0  0  0  0  0  0  0  0  0  0  0  0
   35.6822   11.4177  -16.2974 C   0  0  0  0  0  0  0  0  0  0  0  0
   37.0070   11.5272  -16.6037 C   0  0  0  0  0  0  0  0  0  0  0  0
   33.3489   11.8488  -14.1196 H   0  0  0  0  0  0  0  0  0  0  0  0
   43.6205   14.4009  -13.3349 S   0  0  0  0  0  0  0  0  0  0  0  0
   44.5902   15.1281  -14.2541 O   0  0  0  0  0  0  0  0  0  0  0  0
   43.1232   15.4683  -12.3687 O   0  0  0  0  0  0  0  0  0  0  0  0
   45.7984   11.1929  -10.8919 C   0  0  0  0  0  0  0  0  0  0  0  0
   44.6837   11.8421  -10.4045 C   0  0  0  0  0  0  0  0  0  0  0  0
   44.0287   12.8087  -11.1427 C   0  0  0  0  0  0  0  0  0  0  0  0
   44.4523   13.1775  -12.4053 C   0  0  0  0  0  0  0  0  0  0  0  0
   45.5687   12.5219  -12.8838 C   0  0  0  0  0  0  0  0  0  0  0  0
   46.2278   11.5551  -12.1514 C   0  0  0  0  0  0  0  0  0  0  0  0
   47.3404    9.3387  -10.8134 C   0  0  0  0  0  0  0  0  0  0  0  0
   46.4559   10.2161  -10.1397 O   0  0  0  0  0  0  0  0  0  0  0  0
 28 29  1  0  0  0
 29 22  1  0  0  0
 22 23  2  0  0  0
 23 24  1  0  0  0
 24 25  2  0  0  0
 25 26  1  0  0  0
 26 27  2  0  0  0
 25 19  1  0  0  0
 19 20  2  0  0  0
 19 21  2  0  0  0
 19  1  1  0  0  0
  1  2  1  0  0  0
  2  3  1  0  0  0
  3  4  1  0  0  0
  4  5  1  0  0  0
  5  6  1  0  0  0
  4  7  1  0  0  0
  7  8  2  0  0  0
  7  9  1  0  0  0
  9 10  2  0  0  0
 10 11  1  0  0  0
 11 12  2  0  0  0
 12 13  1  0  0  0
 13 14  1  0  0  0
 14 15  2  0  0  0
 15 16  1  0  0  0
 16 17  2  0  0  0
 27 22  1  0  0  0
  6  1  1  0  0  0
 17  9  1  0  0  0
 16 12  1  0  0  0
 13 18  1  0  0  0
M  END
> <minimizedAffinity>
-7.91447

> <CNNscore>
0.1359370202

> <CNNaffinity>
5.7243661880

> <CNN_VS>
0.7781533003

> <CNNaffinity_variance>
0.0382350944

$$$$
[H]c1nc2c(c([H])c1C(=O)N1C([H])([H])C([H])([H])N(S(=O)(=O)c3c([H])c([H])c(OC([H])([H])[H])c([H])c3[H])C([H])([H])C1([H])[H])c([H])c([H])n2[H]


 29 32  0  0  0  0  0  0  0  0999 V2000
   42.4138   13.6907  -14.1842 N   0  0  0  0  0  0  0  0  0  0  0  0
   42.5510   12.8600  -15.2867 C   0  0  0  0  0  0  0  0  0  0  0  0
   41.6738   13.0648  -16.4799 C   0  0  0  0  0  0  0  0  0  0  0  0
   40.2941   13.2527  -15.8700 N   0  0  0  0  0  0  0  0  0  0  0  0
   40.2845   14.4543  -15.0933 C   0  0  0  0  0  0  0  0  0  0  0  0
   41.1562   14.2755  -13.8610 C   0  0  0  0  0  0  0  0  0  0  0  0
   39.3182   12.3181  -16.1716 C   0  0  0  0  0  0  0  0  0  0  0  0
   39.7240   11.4050  -17.0366 O   0  0  0  0  0  0  0  0  0  0  0  0
   37.9604   12.1825  -15.7065 C   0  0  0  0  0  0  0  0  0  0  0  0
   37.4548   12.6041  -14.5126 C   0  0  0  0  0  0  0  0  0  0  0  0
   36.1313   12.4796  -14.1850 N   0  0  0  0  0  0  0  0  0  0  0  0
   35.2524   11.9337  -15.0182 C   0  0  0  0  0  0  0  0  0  0  0  0
   33.9100   11.7091  -14.9092 N   0  0  0  0  0  0  0  0  0  0  0  0
   33.4567   11.1231  -16.0293 C   0  0  0  0  0  0  0  0  0  0  0  0
   34.5451   10.9775  -16.8610 C   0  0  0  0  0  0  0  0  0  0  0  0
   35.6788   11.4808  -16.2419 C   0  0  0  0  0  0  0  0  0  0  0  0
   36.9970   11.6048  -16.5704 C   0  0  0  0  0  0  0  0  0  0  0  0
   33.3610   11.9718  -14.0603 H   0  0  0  0  0  0  0  0  0  0  0  0
   43.7411   14.1073  -13.2641 S   0  0  0  0  0  0  0  0  0  0  0  0
   44.8724   13.1343  -13.5603 O   0  0  0  0  0  0  0  0  0  0  0  0
   44.2600   15.4624  -13.7273 O   0  0  0  0  0  0  0  0  0  0  0  0
   42.9609   14.3628   -8.7554 C   0  0  0  0  0  0  0  0  0  0  0  0
   42.6594   15.4079   -9.6030 C   0  0  0  0  0  0  0  0  0  0  0  0
   42.8953   15.3287  -10.9618 C   0  0  0  0  0  0  0  0  0  0  0  0
   43.4444   14.2025  -11.5448 C   0  0  0  0  0  0  0  0  0  0  0  0
   43.7425   13.1623  -10.6879 C   0  0  0  0  0  0  0  0  0  0  0  0
   43.5092   13.2350   -9.3293 C   0  0  0  0  0  0  0  0  0  0  0  0
   43.0708   13.3427   -6.5715 C   0  0  0  0  0  0  0  0  0  0  0  0
   42.7195   14.4499   -7.3819 O   0  0  0  0  0  0  0  0  0  0  0  0
 28 29  1  0  0  0
 29 22  1  0  0  0
 22 23  2  0  0  0
 23 24  1  0  0  0
 24 25  2  0  0  0
 25 26  1  0  0  0
 26 27  2  0  0  0
 25 19  1  0  0  0
 19 20  2  0  0  0
 19 21  2  0  0  0
 19  1  1  0  0  0
  1  2  1  0  0  0
  2  3  1  0  0  0
  3  4  1  0  0  0
  4  5  1  0  0  0
  5  6  1  0  0  0
  4  7  1  0  0  0
  7  8  2  0  0  0
  7  9  1  0  0  0
  9 10  2  0  0  0
 10 11  1  0  0  0
 11 12  2  0  0  0
 12 13  1  0  0  0
 13 14  1  0  0  0
 14 15  2  0  0  0
 15 16  1  0  0  0
 16 17  2  0  0  0
 27 22  1  0  0  0
  6  1  1  0  0  0
 17  9  1  0  0  0
 16 12  1  0  0  0
 13 18  1  0  0  0
M  END
> <minimizedAffinity>
-7.89413

> <CNNscore>
0.1311070323

> <CNNaffinity>
5.7318720818

> <CNN_VS>
0.7514887452

> <CNNaffinity_variance>
0.0472191423

$$$$
[H]c1nc2c(c([H])c1C(=O)N1C([H])([H])C([H])([H])N(S(=O)(=O)c3c([H])c([H])c(OC([H])([H])[H])c([H])c3[H])C([H])([H])C1([H])[H])c([H])c([H])n2[H]


 29 32  0  0  0  0  0  0  0  0999 V2000
   42.1616   12.7777  -16.4302 N   0  0  0  0  0  0  0  0  0  0  0  0
   43.2758   12.1663  -16.9860 C   0  0  0  0  0  0  0  0  0  0  0  0
   44.3773   11.6876  -16.0956 C   0  0  0  0  0  0  0  0  0  0  0  0
   44.5799   12.8496  -15.1365 N   0  0  0  0  0  0  0  0  0  0  0  0
   43.4002   13.0142  -14.3437 C   0  0  0  0  0  0  0  0  0  0  0  0
   42.2616   13.5161  -15.2167 C   0  0  0  0  0  0  0  0  0  0  0  0
   45.8033   13.4975  -15.1509 C   0  0  0  0  0  0  0  0  0  0  0  0
   46.6741   12.9436  -15.9765 O   0  0  0  0  0  0  0  0  0  0  0  0
   46.2720   14.6526  -14.4267 C   0  0  0  0  0  0  0  0  0  0  0  0
   47.4848   14.8081  -13.8236 C   0  0  0  0  0  0  0  0  0  0  0  0
   47.8594   15.9710  -13.2059 N   0  0  0  0  0  0  0  0  0  0  0  0
   47.0553   17.0272  -13.1552 C   0  0  0  0  0  0  0  0  0  0  0  0
   47.2117   18.2670  -12.6052 N   0  0  0  0  0  0  0  0  0  0  0  0
   46.1051   18.9982  -12.8152 C   0  0  0  0  0  0  0  0  0  0  0  0
   45.2334   18.1938  -13.5155 C   0  0  0  0  0  0  0  0  0  0  0  0
   45.8140   16.9545  -13.7368 C   0  0  0  0  0  0  0  0  0  0  0  0
   45.4393   15.7969  -14.3535 C   0  0  0  0  0  0  0  0  0  0  0  0
   48.0817   18.5568  -12.1050 H   0  0  0  0  0  0  0  0  0  0  0  0
   40.6539   12.5807  -17.1158 S   0  0  0  0  0  0  0  0  0  0  0  0
   40.4248   13.6896  -18.1318 O   0  0  0  0  0  0  0  0  0  0  0  0
   40.6446   11.2949  -17.9323 O   0  0  0  0  0  0  0  0  0  0  0  0
   37.1883   12.3875  -14.1235 C   0  0  0  0  0  0  0  0  0  0  0  0
   38.3401   13.0959  -13.8530 C   0  0  0  0  0  0  0  0  0  0  0  0
   39.3835   13.1528  -14.7566 C   0  0  0  0  0  0  0  0  0  0  0  0
   39.3313   12.5058  -15.9765 C   0  0  0  0  0  0  0  0  0  0  0  0
   38.1744   11.7997  -16.2374 C   0  0  0  0  0  0  0  0  0  0  0  0
   37.1281   11.7388  -15.3389 C   0  0  0  0  0  0  0  0  0  0  0  0
   36.1149   13.2900  -12.1600 C   0  0  0  0  0  0  0  0  0  0  0  0
   36.1368   12.3342  -13.2048 O   0  0  0  0  0  0  0  0  0  0  0  0
 28 29  1  0  0  0
 29 22  1  0  0  0
 22 23  2  0  0  0
 23 24  1  0  0  0
 24 25  2  0  0  0
 25 26  1  0  0  0
 26 27  2  0  0  0
 25 19  1  0  0  0
 19 20  2  0  0  0
 19 21  2  0  0  0
 19  1  1  0  0  0
  1  2  1  0  0  0
  2  3  1  0  0  0
  3  4  1  0  0  0
  4  5  1  0  0  0
  5  6  1  0  0  0
  4  7  1  0  0  0
  7  8  2  0  0  0
  7  9  1  0  0  0
  9 10  2  0  0  0
 10 11  1  0  0  0
 11 12  2  0  0  0
 12 13  1  0  0  0
 13 14  1  0  0  0
 14 15  2  0  0  0
 15 16  1  0  0  0
 16 17  2  0  0  0
 27 22  1  0  0  0
  6  1  1  0  0  0
 17  9  1  0  0  0
 16 12  1  0  0  0
 13 18  1  0  0  0
M  END
> <minimizedAffinity>
-7.04606

> <CNNscore>
0.1221694797

> <CNNaffinity>
5.7465248108

> <CNN_VS>
0.7020499706

> <CNNaffinity_variance>
0.0271634702

$$$$
[H]c1nc2c(c([H])c1C(=O)N1C([H])([H])C([H])([H])N(S(=O)(=O)c3c([H])c([H])c(OC([H])([H])[H])c([H])c3[H])C([H])([H])C1([H])[H])c([H])c([H])n2[H]


 29 32  0  0  0  0  0  0  0  0999 V2000
   41.5773   13.1001  -15.4259 N   0  0  0  0  0  0  0  0  0  0  0  0
   41.2529   13.7151  -14.2255 C   0  0  0  0  0  0  0  0  0  0  0  0
   42.2799   14.5371  -13.5152 C   0  0  0  0  0  0  0  0  0  0  0  0
   43.5270   13.6705  -13.5820 N   0  0  0  0  0  0  0  0  0  0  0  0
   43.9287   13.5315  -14.9482 C   0  0  0  0  0  0  0  0  0  0  0  0
   42.9123   12.6859  -15.6981 C   0  0  0  0  0  0  0  0  0  0  0  0
   44.0655   13.2148  -12.3906 C   0  0  0  0  0  0  0  0  0  0  0  0
   43.4346   13.6776  -11.3255 O   0  0  0  0  0  0  0  0  0  0  0  0
   45.1790   12.3373  -12.1287 C   0  0  0  0  0  0  0  0  0  0  0  0
   46.2896   12.1662  -12.9006 C   0  0  0  0  0  0  0  0  0  0  0  0
   47.3243   11.3472  -12.5357 N   0  0  0  0  0  0  0  0  0  0  0  0
   47.3070   10.6623  -11.3976 C   0  0  0  0  0  0  0  0  0  0  0  0
   48.2069    9.8018  -10.8372 N   0  0  0  0  0  0  0  0  0  0  0  0
   47.7351    9.3559   -9.6616 C   0  0  0  0  0  0  0  0  0  0  0  0
   46.5072    9.9539   -9.4822 C   0  0  0  0  0  0  0  0  0  0  0  0
   46.2240   10.7761  -10.5618 C   0  0  0  0  0  0  0  0  0  0  0  0
   45.1925   11.5923  -10.9233 C   0  0  0  0  0  0  0  0  0  0  0  0
   49.1142    9.5578  -11.2937 H   0  0  0  0  0  0  0  0  0  0  0  0
   40.4316   12.9190  -16.6245 S   0  0  0  0  0  0  0  0  0  0  0  0
   40.4594   14.1459  -17.5235 O   0  0  0  0  0  0  0  0  0  0  0  0
   40.8384   11.7628  -17.5288 O   0  0  0  0  0  0  0  0  0  0  0  0
   36.1767   12.1076  -15.1279 C   0  0  0  0  0  0  0  0  0  0  0  0
   36.6827   11.4808  -16.2472 C   0  0  0  0  0  0  0  0  0  0  0  0
   37.9657   11.7268  -16.6964 C   0  0  0  0  0  0  0  0  0  0  0  0
   38.8098   12.6111  -16.0520 C   0  0  0  0  0  0  0  0  0  0  0  0
   38.2937   13.2331  -14.9331 C   0  0  0  0  0  0  0  0  0  0  0  0
   37.0128   12.9917  -14.4789 C   0  0  0  0  0  0  0  0  0  0  0  0
   33.9251   11.3937  -15.6204 C   0  0  0  0  0  0  0  0  0  0  0  0
   34.8780   11.8539  -14.6792 O   0  0  0  0  0  0  0  0  0  0  0  0
 28 29  1  0  0  0
 29 22  1  0  0  0
 22 23  2  0  0  0
 23 24  1  0  0  0
 24 25  2  0  0  0
 25 26  1  0  0  0
 26 27  2  0  0  0
 25 19  1  0  0  0
 19 20  2  0  0  0
 19 21  2  0  0  0
 19  1  1  0  0  0
  1  2  1  0  0  0
  2  3  1  0  0  0
  3  4  1  0  0  0
  4  5  1  0  0  0
  5  6  1  0  0  0
  4  7  1  0  0  0
  7  8  2  0  0  0
  7  9  1  0  0  0
  9 10  2  0  0  0
 10 11  1  0  0  0
 11 12  2  0  0  0
 12 13  1  0  0  0
 13 14  1  0  0  0
 14 15  2  0  0  0
 15 16  1  0  0  0
 16 17  2  0  0  0
 27 22  1  0  0  0
  6  1  1  0  0  0
 17  9  1  0  0  0
 16 12  1  0  0  0
 13 18  1  0  0  0
M  END
> <minimizedAffinity>
-7.90033

> <CNNscore>
0.1215236187

> <CNNaffinity>
5.4417362213

> <CNN_VS>
0.6612994671

> <CNNaffinity_variance>
0.0443823859

$$$$
[H]OC(=O)c1c([H])c([H])c(Oc2c([H])c([H])c3c(c2[H])OC([H])([H])O3)c([H])c1[H]


 20 22  0  0  0  0  0  0  0  0999 V2000
   36.2089   14.6898  -12.3746 C   0  0  0  0  0  0  0  0  0  0  0  0
   36.1605   15.0264  -13.7311 C   0  0  0  0  0  0  0  0  0  0  0  0
   35.9304   14.0979  -14.7084 C   0  0  0  0  0  0  0  0  0  0  0  0
   35.7392   12.7893  -14.3595 C   0  0  0  0  0  0  0  0  0  0  0  0
   35.7841   12.4435  -13.0292 C   0  0  0  0  0  0  0  0  0  0  0  0
   36.0160   13.3808  -12.0455 C   0  0  0  0  0  0  0  0  0  0  0  0
   36.8288   15.4674  -10.1161 O   0  0  0  0  0  0  0  0  0  0  0  0
   36.4578   15.7396  -11.4142 C   0  0  0  0  0  0  0  0  0  0  0  0
   36.3360   16.9328  -11.7599 O   0  0  0  0  0  0  0  0  0  0  0  0
   37.5189   14.7859   -9.8499 H   0  0  0  0  0  0  0  0  0  0  0  0
   35.5006   11.7979  -15.3126 O   0  0  0  0  0  0  0  0  0  0  0  0
   36.5659   11.5177  -16.1843 C   0  0  0  0  0  0  0  0  0  0  0  0
   36.3539   10.8287  -17.3659 C   0  0  0  0  0  0  0  0  0  0  0  0
   37.4431   10.5743  -18.1987 C   0  0  0  0  0  0  0  0  0  0  0  0
   38.7154   10.9911  -17.8728 C   0  0  0  0  0  0  0  0  0  0  0  0
   39.9447   10.8720  -18.5072 O   0  0  0  0  0  0  0  0  0  0  0  0
   40.8324   11.8580  -17.9595 C   0  0  0  0  0  0  0  0  0  0  0  0
   40.2868   11.9643  -16.6364 O   0  0  0  0  0  0  0  0  0  0  0  0
   38.9281   11.6806  -16.6907 C   0  0  0  0  0  0  0  0  0  0  0  0
   37.8522   11.9280  -15.8750 C   0  0  0  0  0  0  0  0  0  0  0  0
  7  8  1  0  0  0
  8  9  2  0  0  0
  8  1  1  0  0  0
  1  2  2  0  0  0
  2  3  1  0  0  0
  3  4  2  0  0  0
  4 11  1  0  0  0
 11 12  1  0  0  0
 12 13  2  0  0  0
 13 14  1  0  0  0
 14 15  2  0  0  0
 15 16  1  0  0  0
 16 17  1  0  0  0
 17 18  1  0  0  0
 18 19  1  0  0  0
 19 20  2  0  0  0
  4  5  1  0  0  0
  5  6  2  0  0  0
  6  1  1  0  0  0
 20 12  1  0  0  0
 19 15  1  0  0  0
  7 10  1  0  0  0
M  END
> <minimizedAffinity>
-7.45357

> <CNNscore>
0.6972830892

> <CNNaffinity>
5.1341061592

> <CNN_VS>
3.5799252987

> <CNNaffinity_variance>
0.1234039515

$$$$
[H]OC(=O)c1c([H])c([H])c(Oc2c([H])c([H])c3c(c2[H])OC([H])([H])O3)c([H])c1[H]


 20 22  0  0  0  0  0  0  0  0999 V2000
   34.9007   13.8555  -13.0801 C   0  0  0  0  0  0  0  0  0  0  0  0
   35.8106   14.8420  -13.4735 C   0  0  0  0  0  0  0  0  0  0  0  0
   37.1375   14.5775  -13.6718 C   0  0  0  0  0  0  0  0  0  0  0  0
   37.6042   13.3059  -13.4819 C   0  0  0  0  0  0  0  0  0  0  0  0
   36.7210   12.3253  -13.0950 C   0  0  0  0  0  0  0  0  0  0  0  0
   35.3838   12.5939  -12.8956 C   0  0  0  0  0  0  0  0  0  0  0  0
   32.5060   13.6773  -13.6485 O   0  0  0  0  0  0  0  0  0  0  0  0
   33.5179   14.2298  -12.8953 C   0  0  0  0  0  0  0  0  0  0  0  0
   33.2195   15.0786  -12.0300 O   0  0  0  0  0  0  0  0  0  0  0  0
   32.4208   12.6978  -13.8604 H   0  0  0  0  0  0  0  0  0  0  0  0
   38.9476   12.9763  -13.6690 O   0  0  0  0  0  0  0  0  0  0  0  0
   39.3658   12.8463  -15.0036 C   0  0  0  0  0  0  0  0  0  0  0  0
   40.3768   13.6436  -15.5117 C   0  0  0  0  0  0  0  0  0  0  0  0
   40.7572   13.4774  -16.8430 C   0  0  0  0  0  0  0  0  0  0  0  0
   40.1529   12.5439  -17.6565 C   0  0  0  0  0  0  0  0  0  0  0  0
   40.3357   12.1823  -18.9846 O   0  0  0  0  0  0  0  0  0  0  0  0
   39.7676   10.8786  -19.1794 C   0  0  0  0  0  0  0  0  0  0  0  0
   38.7333   10.9159  -18.1853 O   0  0  0  0  0  0  0  0  0  0  0  0
   39.1414   11.7457  -17.1487 C   0  0  0  0  0  0  0  0  0  0  0  0
   38.7712   11.9139  -15.8378 C   0  0  0  0  0  0  0  0  0  0  0  0
  7  8  1  0  0  0
  8  9  2  0  0  0
  8  1  1  0  0  0
  1  2  2  0  0  0
  2  3  1  0  0  0
  3  4  2  0  0  0
  4 11  1  0  0  0
 11 12  1  0  0  0
 12 13  2  0  0  0
 13 14  1  0  0  0
 14 15  2  0  0  0
 15 16  1  0  0  0
 16 17  1  0  0  0
 17 18  1  0  0  0
 18 19  1  0  0  0
 19 20  2  0  0  0
  4  5  1  0  0  0
  5  6  2  0  0  0
  6  1  1  0  0  0
 20 12  1  0  0  0
 19 15  1  0  0  0
  7 10  1  0  0  0
M  END
> <minimizedAffinity>
-7.43343

> <CNNscore>
0.6529104114

> <CNNaffinity>
5.4224314690

> <CNN_VS>
3.5403618813

> <CNNaffinity_variance>
0.2927069068

$$$$
[H]OC(=O)c1c([H])c([H])c(Oc2c([H])c([H])c3c(c2[H])OC([H])([H])O3)c([H])c1[H]


 20 22  0  0  0  0  0  0  0  0999 V2000
   40.8741   12.1623  -16.8186 C   0  0  0  0  0  0  0  0  0  0  0  0
   39.8759   12.2847  -15.8468 C   0  0  0  0  0  0  0  0  0  0  0  0
   38.5897   11.8730  -16.0618 C   0  0  0  0  0  0  0  0  0  0  0  0
   38.2547   11.3197  -17.2670 C   0  0  0  0  0  0  0  0  0  0  0  0
   39.2259   11.1929  -18.2324 C   0  0  0  0  0  0  0  0  0  0  0  0
   40.5218   11.6085  -18.0137 C   0  0  0  0  0  0  0  0  0  0  0  0
   43.3010   12.2680  -17.2527 O   0  0  0  0  0  0  0  0  0  0  0  0
   42.2046   12.6254  -16.4998 C   0  0  0  0  0  0  0  0  0  0  0  0
   42.3777   13.3724  -15.5148 O   0  0  0  0  0  0  0  0  0  0  0  0
   43.3270   12.2634  -18.2581 H   0  0  0  0  0  0  0  0  0  0  0  0
   36.9587   10.8816  -17.5440 O   0  0  0  0  0  0  0  0  0  0  0  0
   35.9530   11.3679  -16.6923 C   0  0  0  0  0  0  0  0  0  0  0  0
   34.7304   10.7257  -16.5984 C   0  0  0  0  0  0  0  0  0  0  0  0
   33.7635   11.2465  -15.7390 C   0  0  0  0  0  0  0  0  0  0  0  0
   33.9977   12.3774  -14.9875 C   0  0  0  0  0  0  0  0  0  0  0  0
   33.2272   13.0880  -14.0768 O   0  0  0  0  0  0  0  0  0  0  0  0
   34.1042   13.8943  -13.2762 C   0  0  0  0  0  0  0  0  0  0  0  0
   35.1625   14.1099  -14.2213 O   0  0  0  0  0  0  0  0  0  0  0  0
   35.2208   13.0203  -15.0810 C   0  0  0  0  0  0  0  0  0  0  0  0
   36.1685   12.5032  -15.9286 C   0  0  0  0  0  0  0  0  0  0  0  0
  7  8  1  0  0  0
  8  9  2  0  0  0
  8  1  1  0  0  0
  1  2  2  0  0  0
  2  3  1  0  0  0
  3  4  2  0  0  0
  4 11  1  0  0  0
 11 12  1  0  0  0
 12 13  2  0  0  0
 13 14  1  0  0  0
 14 15  2  0  0  0
 15 16  1  0  0  0
 16 17  1  0  0  0
 17 18  1  0  0  0
 18 19  1  0  0  0
 19 20  2  0  0  0
  4  5  1  0  0  0
  5  6  2  0  0  0
  6  1  1  0  0  0
 20 12  1  0  0  0
 19 15  1  0  0  0
  7 10  1  0  0  0
M  END
> <minimizedAffinity>
-8.23720

> <CNNscore>
0.3971699774

> <CNNaffinity>
5.2375369072

> <CNN_VS>
2.0801923275

> <CNNaffinity_variance>
0.2562547922

$$$$
[H]OC(=O)c1c([H])c([H])c(Oc2c([H])c([H])c3c(c2[H])OC([H])([H])O3)c([H])c1[H]


 20 22  0  0  0  0  0  0  0  0999 V2000
   37.6074   11.7084  -16.3895 C   0  0  0  0  0  0  0  0  0  0  0  0
   38.4855   12.5380  -15.6849 C   0  0  0  0  0  0  0  0  0  0  0  0
   39.8026   12.6705  -16.0284 C   0  0  0  0  0  0  0  0  0  0  0  0
   40.2909   11.9717  -17.0980 C   0  0  0  0  0  0  0  0  0  0  0  0
   39.4390   11.1519  -17.8004 C   0  0  0  0  0  0  0  0  0  0  0  0
   38.1118   11.0197  -17.4526 C   0  0  0  0  0  0  0  0  0  0  0  0
   35.7327   12.4619  -14.9728 O   0  0  0  0  0  0  0  0  0  0  0  0
   36.2329   11.6328  -15.9522 C   0  0  0  0  0  0  0  0  0  0  0  0
   35.4664   10.7948  -16.4702 O   0  0  0  0  0  0  0  0  0  0  0  0
   35.9050   13.4513  -14.9187 H   0  0  0  0  0  0  0  0  0  0  0  0
   41.6256   12.0667  -17.4954 O   0  0  0  0  0  0  0  0  0  0  0  0
   42.5345   12.4588  -16.4988 C   0  0  0  0  0  0  0  0  0  0  0  0
   43.8806   12.1544  -16.6061 C   0  0  0  0  0  0  0  0  0  0  0  0
   44.7441   12.5650  -15.5910 C   0  0  0  0  0  0  0  0  0  0  0  0
   44.2894   13.2617  -14.4927 C   0  0  0  0  0  0  0  0  0  0  0  0
   44.9198   13.7763  -13.3676 O   0  0  0  0  0  0  0  0  0  0  0  0
   44.0664   14.7752  -12.7896 C   0  0  0  0  0  0  0  0  0  0  0  0
   42.7882   14.2617  -13.1920 O   0  0  0  0  0  0  0  0  0  0  0  0
   42.9428   13.5667  -14.3848 C   0  0  0  0  0  0  0  0  0  0  0  0
   42.0977   13.1598  -15.3869 C   0  0  0  0  0  0  0  0  0  0  0  0
  7  8  1  0  0  0
  8  9  2  0  0  0
  8  1  1  0  0  0
  1  2  2  0  0  0
  2  3  1  0  0  0
  3  4  2  0  0  0
  4 11  1  0  0  0
 11 12  1  0  0  0
 12 13  2  0  0  0
 13 14  1  0  0  0
 14 15  2  0  0  0
 15 16  1  0  0  0
 16 17  1  0  0  0
 17 18  1  0  0  0
 18 19  1  0  0  0
 19 20  2  0  0  0
  4  5  1  0  0  0
  5  6  2  0  0  0
  6  1  1  0  0  0
 20 12  1  0  0  0
 19 15  1  0  0  0
  7 10  1  0  0  0
M  END
> <minimizedAffinity>
-7.09582

> <CNNscore>
0.3848135471

> <CNNaffinity>
4.7370600700

> <CNN_VS>
1.8228849173

> <CNNaffinity_variance>
0.2599383295

$$$$
[H]OC(=O)c1c([H])c([H])c(Oc2c([H])c([H])c3c(c2[H])OC([H])([H])O3)c([H])c1[H]


 20 22  0  0  0  0  0  0  0  0999 V2000
   38.9002   11.4276  -17.6108 C   0  0  0  0  0  0  0  0  0  0  0  0
   38.7727   12.1290  -16.4077 C   0  0  0  0  0  0  0  0  0  0  0  0
   37.6136   12.1339  -15.6819 C   0  0  0  0  0  0  0  0  0  0  0  0
   36.5327   11.4311  -16.1386 C   0  0  0  0  0  0  0  0  0  0  0  0
   36.6434   10.7365  -17.3204 C   0  0  0  0  0  0  0  0  0  0  0  0
   37.8126   10.7328  -18.0505 C   0  0  0  0  0  0  0  0  0  0  0  0
   41.2858   12.0454  -17.7406 O   0  0  0  0  0  0  0  0  0  0  0  0
   40.1644   11.4814  -18.3074 C   0  0  0  0  0  0  0  0  0  0  0  0
   40.2550   11.0058  -19.4579 O   0  0  0  0  0  0  0  0  0  0  0  0
   41.5865   11.8910  -16.7933 H   0  0  0  0  0  0  0  0  0  0  0  0
   35.3240   11.3992  -15.4413 O   0  0  0  0  0  0  0  0  0  0  0  0
   35.1440   12.4094  -14.4820 C   0  0  0  0  0  0  0  0  0  0  0  0
   34.0478   13.2529  -14.5364 C   0  0  0  0  0  0  0  0  0  0  0  0
   33.9126   14.2407  -13.5614 C   0  0  0  0  0  0  0  0  0  0  0  0
   34.8394   14.3934  -12.5533 C   0  0  0  0  0  0  0  0  0  0  0  0
   34.9419   15.2728  -11.4836 O   0  0  0  0  0  0  0  0  0  0  0  0
   35.8394   14.7055  -10.5177 C   0  0  0  0  0  0  0  0  0  0  0  0
   36.6808   13.9392  -11.3921 O   0  0  0  0  0  0  0  0  0  0  0  0
   35.9363   13.5497  -12.4983 C   0  0  0  0  0  0  0  0  0  0  0  0
   36.0642   12.5794  -13.4607 C   0  0  0  0  0  0  0  0  0  0  0  0
  7  8  1  0  0  0
  8  9  2  0  0  0
  8  1  1  0  0  0
  1  2  2  0  0  0
  2  3  1  0  0  0
  3  4  2  0  0  0
  4 11  1  0  0  0
 11 12  1  0  0  0
 12 13  2  0  0  0
 13 14  1  0  0  0
 14 15  2  0  0  0
 15 16  1  0  0  0
 16 17  1  0  0  0
 17 18  1  0  0  0
 18 19  1  0  0  0
 19 20  2  0  0  0
  4  5  1  0  0  0
  5  6  2  0  0  0
  6  1  1  0  0  0
 20 12  1  0  0  0
 19 15  1  0  0  0
  7 10  1  0  0  0
M  END
> <minimizedAffinity>
-7.84276

> <CNNscore>
0.3297838271

> <CNNaffinity>
4.9096941948

> <CNN_VS>
1.6191377640

> <CNNaffinity_variance>
0.2702719271

$$$$
[H]OC(=O)c1c([H])c([H])c(Oc2c([H])c([H])c3c(c2[H])OC([H])([H])O3)c([H])c1[H]


 20 22  0  0  0  0  0  0  0  0999 V2000
   35.7246   13.1187  -13.5993 C   0  0  0  0  0  0  0  0  0  0  0  0
   35.6165   13.3675  -14.9712 C   0  0  0  0  0  0  0  0  0  0  0  0
   36.5482   12.9288  -15.8710 C   0  0  0  0  0  0  0  0  0  0  0  0
   37.6296   12.2197  -15.4256 C   0  0  0  0  0  0  0  0  0  0  0  0
   37.7493   11.9673  -14.0790 C   0  0  0  0  0  0  0  0  0  0  0  0
   36.8091   12.4104  -13.1736 C   0  0  0  0  0  0  0  0  0  0  0  0
   34.9753   14.1391  -11.4811 O   0  0  0  0  0  0  0  0  0  0  0  0
   34.6906   13.6223  -12.7256 C   0  0  0  0  0  0  0  0  0  0  0  0
   33.4999   13.5932  -13.0990 O   0  0  0  0  0  0  0  0  0  0  0  0
   35.7292   14.7754  -11.2854 H   0  0  0  0  0  0  0  0  0  0  0  0
   38.6124   11.7465  -16.2966 O   0  0  0  0  0  0  0  0  0  0  0  0
   39.9061   12.2545  -16.0937 C   0  0  0  0  0  0  0  0  0  0  0  0
   40.1440   13.2323  -15.1433 C   0  0  0  0  0  0  0  0  0  0  0  0
   41.4454   13.7052  -14.9786 C   0  0  0  0  0  0  0  0  0  0  0  0
   42.4910   13.2236  -15.7358 C   0  0  0  0  0  0  0  0  0  0  0  0
   43.8483   13.5142  -15.7733 O   0  0  0  0  0  0  0  0  0  0  0  0
   44.5257   12.4227  -16.4138 C   0  0  0  0  0  0  0  0  0  0  0  0
   43.4777   11.9648  -17.2808 O   0  0  0  0  0  0  0  0  0  0  0  0
   42.2537   12.2453  -16.6869 C   0  0  0  0  0  0  0  0  0  0  0  0
   40.9707   11.7837  -16.8445 C   0  0  0  0  0  0  0  0  0  0  0  0
  7  8  1  0  0  0
  8  9  2  0  0  0
  8  1  1  0  0  0
  1  2  2  0  0  0
  2  3  1  0  0  0
  3  4  2  0  0  0
  4 11  1  0  0  0
 11 12  1  0  0  0
 12 13  2  0  0  0
 13 14  1  0  0  0
 14 15  2  0  0  0
 15 16  1  0  0  0
 16 17  1  0  0  0
 17 18  1  0  0  0
 18 19  1  0  0  0
 19 20  2  0  0  0
  4  5  1  0  0  0
  5  6  2  0  0  0
  6  1  1  0  0  0
 20 12  1  0  0  0
 19 15  1  0  0  0
  7 10  1  0  0  0
M  END
> <minimizedAffinity>
-6.57795

> <CNNscore>
0.2423692197

> <CNNaffinity>
4.7888336182

> <CNN_VS>
1.1606658697

> <CNNaffinity_variance>
0.2635335326

$$$$
[H]OC(=O)c1c([H])c([H])c(Oc2c([H])c([H])c3c(c2[H])OC([H])([H])O3)c([H])c1[H]


 20 22  0  0  0  0  0  0  0  0999 V2000
   35.4538   12.1290  -15.4800 C   0  0  0  0  0  0  0  0  0  0  0  0
   35.3034   13.3585  -14.8308 C   0  0  0  0  0  0  0  0  0  0  0  0
   36.3726   14.1073  -14.4231 C   0  0  0  0  0  0  0  0  0  0  0  0
   37.6403   13.6480  -14.6526 C   0  0  0  0  0  0  0  0  0  0  0  0
   37.8037   12.4403  -15.2900 C   0  0  0  0  0  0  0  0  0  0  0  0
   36.7247   11.6871  -15.7003 C   0  0  0  0  0  0  0  0  0  0  0  0
   33.2188   11.1978  -15.0033 O   0  0  0  0  0  0  0  0  0  0  0  0
   34.2649   11.4094  -15.8737 C   0  0  0  0  0  0  0  0  0  0  0  0
   34.1720   10.9613  -17.0350 O   0  0  0  0  0  0  0  0  0  0  0  0
   32.8350   11.8968  -14.3905 H   0  0  0  0  0  0  0  0  0  0  0  0
   38.7695   14.3681  -14.2593 O   0  0  0  0  0  0  0  0  0  0  0  0
   39.9949   13.9144  -14.7746 C   0  0  0  0  0  0  0  0  0  0  0  0
   40.0926   13.4617  -16.0790 C   0  0  0  0  0  0  0  0  0  0  0  0
   41.3308   13.0213  -16.5452 C   0  0  0  0  0  0  0  0  0  0  0  0
   42.4499   13.0273  -15.7414 C   0  0  0  0  0  0  0  0  0  0  0  0
   43.7705   12.6527  -15.9504 O   0  0  0  0  0  0  0  0  0  0  0  0
   44.5817   13.2801  -14.9461 C   0  0  0  0  0  0  0  0  0  0  0  0
   43.6221   13.3689  -13.8827 O   0  0  0  0  0  0  0  0  0  0  0  0
   42.3529   13.4802  -14.4362 C   0  0  0  0  0  0  0  0  0  0  0  0
   41.1315   13.9124  -13.9829 C   0  0  0  0  0  0  0  0  0  0  0  0
  7  8  1  0  0  0
  8  9  2  0  0  0
  8  1  1  0  0  0
  1  2  2  0  0  0
  2  3  1  0  0  0
  3  4  2  0  0  0
  4 11  1  0  0  0
 11 12  1  0  0  0
 12 13  2  0  0  0
 13 14  1  0  0  0
 14 15  2  0  0  0
 15 16  1  0  0  0
 16 17  1  0  0  0
 17 18  1  0  0  0
 18 19  1  0  0  0
 19 20  2  0  0  0
  4  5  1  0  0  0
  5  6  2  0  0  0
  6  1  1  0  0  0
 20 12  1  0  0  0
 19 15  1  0  0  0
  7 10  1  0  0  0
M  END
> <minimizedAffinity>
-7.23614

> <CNNscore>
0.2379064411

> <CNNaffinity>
4.8064246178

> <CNN_VS>
1.1434793472

> <CNNaffinity_variance>
0.2234012783

$$$$
[H]OC(=O)c1c([H])c([H])c(Oc2c([H])c([H])c3c(c2[H])OC([H])([H])O3)c([H])c1[H]


 20 22  0  0  0  0  0  0  0  0999 V2000
   39.2861   11.5948  -17.3962 C   0  0  0  0  0  0  0  0  0  0  0  0
   37.9911   11.1758  -17.7176 C   0  0  0  0  0  0  0  0  0  0  0  0
   36.9548   11.2519  -16.8287 C   0  0  0  0  0  0  0  0  0  0  0  0
   37.1799   11.7542  -15.5766 C   0  0  0  0  0  0  0  0  0  0  0  0
   38.4485   12.1701  -15.2462 C   0  0  0  0  0  0  0  0  0  0  0  0
   39.4918   12.0926  -16.1437 C   0  0  0  0  0  0  0  0  0  0  0  0
   41.6038   11.9133  -18.1811 O   0  0  0  0  0  0  0  0  0  0  0  0
   40.3166   11.4757  -18.4012 C   0  0  0  0  0  0  0  0  0  0  0  0
   40.0439   10.9626  -19.5060 O   0  0  0  0  0  0  0  0  0  0  0  0
   42.1273   11.7483  -17.3383 H   0  0  0  0  0  0  0  0  0  0  0  0
   36.1616   11.8560  -14.6273 O   0  0  0  0  0  0  0  0  0  0  0  0
   36.1929   13.0028  -13.8168 C   0  0  0  0  0  0  0  0  0  0  0  0
   36.2934   14.2650  -14.3760 C   0  0  0  0  0  0  0  0  0  0  0  0
   36.3208   15.3732  -13.5301 C   0  0  0  0  0  0  0  0  0  0  0  0
   36.2504   15.2394  -12.1605 C   0  0  0  0  0  0  0  0  0  0  0  0
   36.2572   16.1542  -11.1160 O   0  0  0  0  0  0  0  0  0  0  0  0
   35.7158   15.5132   -9.9515 C   0  0  0  0  0  0  0  0  0  0  0  0
   36.0977   14.1569  -10.2239 O   0  0  0  0  0  0  0  0  0  0  0  0
   36.1498   13.9768  -11.6003 C   0  0  0  0  0  0  0  0  0  0  0  0
   36.1234   12.8898  -12.4380 C   0  0  0  0  0  0  0  0  0  0  0  0
  7  8  1  0  0  0
  8  9  2  0  0  0
  8  1  1  0  0  0
  1  2  2  0  0  0
  2  3  1  0  0  0
  3  4  2  0  0  0
  4 11  1  0  0  0
 11 12  1  0  0  0
 12 13  2  0  0  0
 13 14  1  0  0  0
 14 15  2  0  0  0
 15 16  1  0  0  0
 16 17  1  0  0  0
 17 18  1  0  0  0
 18 19  1  0  0  0
 19 20  2  0  0  0
  4  5  1  0  0  0
  5  6  2  0  0  0
  6  1  1  0  0  0
 20 12  1  0  0  0
 19 15  1  0  0  0
  7 10  1  0  0  0
M  END
> <minimizedAffinity>
-7.69345

> <CNNscore>
0.2047314644

> <CNNaffinity>
4.6629385948

> <CNN_VS>
0.9546502233

> <CNNaffinity_variance>
0.3216941059

$$$$
[H]OC(=O)c1c([H])c([H])c(Oc2c([H])c([H])c3c(c2[H])OC([H])([H])O3)c([H])c1[H]


 20 22  0  0  0  0  0  0  0  0999 V2000
   46.3738   11.2117  -11.8088 C   0  0  0  0  0  0  0  0  0  0  0  0
   45.1703   11.5476  -11.1806 C   0  0  0  0  0  0  0  0  0  0  0  0
   44.3830   12.5799  -11.6101 C   0  0  0  0  0  0  0  0  0  0  0  0
   44.7757   13.3183  -12.6925 C   0  0  0  0  0  0  0  0  0  0  0  0
   45.9569   12.9995  -13.3205 C   0  0  0  0  0  0  0  0  0  0  0  0
   46.7491   11.9585  -12.8860 C   0  0  0  0  0  0  0  0  0  0  0  0
   47.5831   10.0790   -9.9801 O   0  0  0  0  0  0  0  0  0  0  0  0
   47.1381   10.1045  -11.2833 C   0  0  0  0  0  0  0  0  0  0  0  0
   47.4094    9.1364  -12.0232 O   0  0  0  0  0  0  0  0  0  0  0  0
   47.0278   10.3349   -9.1816 H   0  0  0  0  0  0  0  0  0  0  0  0
   44.0137   14.3831  -13.1761 O   0  0  0  0  0  0  0  0  0  0  0  0
   42.8606   14.0326  -13.8976 C   0  0  0  0  0  0  0  0  0  0  0  0
   41.6044   14.4102  -13.4555 C   0  0  0  0  0  0  0  0  0  0  0  0
   40.4895   14.0385  -14.2062 C   0  0  0  0  0  0  0  0  0  0  0  0
   40.6110   13.3095  -15.3690 C   0  0  0  0  0  0  0  0  0  0  0  0
   39.6876   12.8208  -16.2836 O   0  0  0  0  0  0  0  0  0  0  0  0
   40.3757   12.5345  -17.5103 C   0  0  0  0  0  0  0  0  0  0  0  0
   41.6753   12.2197  -16.9892 O   0  0  0  0  0  0  0  0  0  0  0  0
   41.8676   12.9315  -15.8119 C   0  0  0  0  0  0  0  0  0  0  0  0
   42.9612   13.3001  -15.0689 C   0  0  0  0  0  0  0  0  0  0  0  0
  7  8  1  0  0  0
  8  9  2  0  0  0
  8  1  1  0  0  0
  1  2  2  0  0  0
  2  3  1  0  0  0
  3  4  2  0  0  0
  4 11  1  0  0  0
 11 12  1  0  0  0
 12 13  2  0  0  0
 13 14  1  0  0  0
 14 15  2  0  0  0
 15 16  1  0  0  0
 16 17  1  0  0  0
 17 18  1  0  0  0
 18 19  1  0  0  0
 19 20  2  0  0  0
  4  5  1  0  0  0
  5  6  2  0  0  0
  6  1  1  0  0  0
 20 12  1  0  0  0
 19 15  1  0  0  0
  7 10  1  0  0  0
M  END
> <minimizedAffinity>
-5.54497

> <CNNscore>
0.1918563992

> <CNNaffinity>
3.9112217426

> <CNN_VS>
0.7503929138

> <CNNaffinity_variance>
0.2812993228

$$$$
[H]Oc1c([H])c([H])c(C(=O)c2c([H])oc3c([H])c(-c4c([H])c([H])c(O[H])c([H])c4[H])c(O[H])c([H])c23)c([H])c1[H]


 29 32  0  0  0  0  0  0  0  0999 V2000
   40.8640   13.5786  -14.3857 O   0  0  0  0  0  0  0  0  0  0  0  0
   40.2908   12.8337  -15.4033 C   0  0  0  0  0  0  0  0  0  0  0  0
   38.9073   12.6344  -15.4180 C   0  0  0  0  0  0  0  0  0  0  0  0
   38.2772   11.9082  -16.3960 C   0  0  0  0  0  0  0  0  0  0  0  0
   36.9633   11.5410  -16.6820 C   0  0  0  0  0  0  0  0  0  0  0  0
   37.0430   10.8025  -17.8277 C   0  0  0  0  0  0  0  0  0  0  0  0
   38.2922   10.7238  -18.2095 O   0  0  0  0  0  0  0  0  0  0  0  0
   39.0758   11.3656  -17.3925 C   0  0  0  0  0  0  0  0  0  0  0  0
   40.4500   11.5579  -17.3864 C   0  0  0  0  0  0  0  0  0  0  0  0
   41.0522   12.2885  -16.3958 C   0  0  0  0  0  0  0  0  0  0  0  0
   40.2754   13.9763  -13.6546 H   0  0  0  0  0  0  0  0  0  0  0  0
   42.4884   12.4752  -16.4046 C   0  0  0  0  0  0  0  0  0  0  0  0
   43.1059   13.4114  -15.5978 C   0  0  0  0  0  0  0  0  0  0  0  0
   44.4752   13.5760  -15.6236 C   0  0  0  0  0  0  0  0  0  0  0  0
   45.2778   12.8247  -16.4433 C   0  0  0  0  0  0  0  0  0  0  0  0
   46.6446   13.0047  -16.4541 O   0  0  0  0  0  0  0  0  0  0  0  0
   44.6485   11.8919  -17.2452 C   0  0  0  0  0  0  0  0  0  0  0  0
   43.2852   11.6937  -17.2522 C   0  0  0  0  0  0  0  0  0  0  0  0
   47.1138   13.6519  -17.0640 H   0  0  0  0  0  0  0  0  0  0  0  0
   35.8140   11.9163  -15.8789 C   0  0  0  0  0  0  0  0  0  0  0  0
   34.6478   11.5178  -16.2149 O   0  0  0  0  0  0  0  0  0  0  0  0
   35.8789   12.7358  -14.6828 C   0  0  0  0  0  0  0  0  0  0  0  0
   35.8932   12.1657  -13.4223 C   0  0  0  0  0  0  0  0  0  0  0  0
   35.9501   12.9344  -12.2741 C   0  0  0  0  0  0  0  0  0  0  0  0
   35.9948   14.3028  -12.3432 C   0  0  0  0  0  0  0  0  0  0  0  0
   36.0527   15.0998  -11.1971 O   0  0  0  0  0  0  0  0  0  0  0  0
   35.9813   14.8920  -13.5966 C   0  0  0  0  0  0  0  0  0  0  0  0
   35.9240   14.1092  -14.7374 C   0  0  0  0  0  0  0  0  0  0  0  0
   36.9468   15.3402  -10.8319 H   0  0  0  0  0  0  0  0  0  0  0  0
  1  2  1  0  0  0
  2  3  2  0  0  0
  3  4  1  0  0  0
  4  5  1  0  0  0
  5  6  2  0  0  0
  6  7  1  0  0  0
  7  8  1  0  0  0
  8  9  1  0  0  0
  9 10  2  0  0  0
 10 12  1  0  0  0
 12 13  2  0  0  0
 13 14  1  0  0  0
 14 15  2  0  0  0
 15 16  1  0  0  0
 15 17  1  0  0  0
 17 18  2  0  0  0
  5 20  1  0  0  0
 20 21  2  0  0  0
 20 22  1  0  0  0
 22 23  2  0  0  0
 23 24  1  0  0  0
 24 25  2  0  0  0
 25 26  1  0  0  0
 25 27  1  0  0  0
 27 28  2  0  0  0
 10  2  1  0  0  0
 18 12  1  0  0  0
 28 22  1  0  0  0
  8  4  2  0  0  0
  1 11  1  0  0  0
 16 19  1  0  0  0
 26 29  1  0  0  0
M  END
> <minimizedAffinity>
-9.94382

> <CNNscore>
0.6602705717

> <CNNaffinity>
6.4348831177

> <CNN_VS>
4.2487640381

> <CNNaffinity_variance>
0.0190297868

$$$$
[H]Oc1c([H])c([H])c(C(=O)c2c([H])oc3c([H])c(-c4c([H])c([H])c(O[H])c([H])c4[H])c(O[H])c([H])c23)c([H])c1[H]


 29 32  0  0  0  0  0  0  0  0999 V2000
   37.9146   13.5141  -13.5436 O   0  0  0  0  0  0  0  0  0  0  0  0
   38.8952   13.1538  -14.4533 C   0  0  0  0  0  0  0  0  0  0  0  0
   40.2245   13.5148  -14.2149 C   0  0  0  0  0  0  0  0  0  0  0  0
   41.2426   13.1893  -15.0742 C   0  0  0  0  0  0  0  0  0  0  0  0
   42.6205   13.3949  -15.1187 C   0  0  0  0  0  0  0  0  0  0  0  0
   43.0310   12.7958  -16.2749 C   0  0  0  0  0  0  0  0  0  0  0  0
   41.9988   12.2707  -16.8841 O   0  0  0  0  0  0  0  0  0  0  0  0
   40.9023   12.4741  -16.2134 C   0  0  0  0  0  0  0  0  0  0  0  0
   39.5856   12.1113  -16.4588 C   0  0  0  0  0  0  0  0  0  0  0  0
   38.5889   12.4507  -15.5819 C   0  0  0  0  0  0  0  0  0  0  0  0
   38.1668   14.0394  -12.7072 H   0  0  0  0  0  0  0  0  0  0  0  0
   37.2199   12.0660  -15.8571 C   0  0  0  0  0  0  0  0  0  0  0  0
   36.1707   12.4923  -15.0659 C   0  0  0  0  0  0  0  0  0  0  0  0
   34.8741   12.1119  -15.3433 C   0  0  0  0  0  0  0  0  0  0  0  0
   34.5709   11.3012  -16.4069 C   0  0  0  0  0  0  0  0  0  0  0  0
   33.2683   10.9325  -16.6671 O   0  0  0  0  0  0  0  0  0  0  0  0
   35.6287   10.8817  -17.1907 C   0  0  0  0  0  0  0  0  0  0  0  0
   36.9382   11.2365  -16.9511 C   0  0  0  0  0  0  0  0  0  0  0  0
   32.8382   10.1086  -16.2834 H   0  0  0  0  0  0  0  0  0  0  0  0
   43.3770   14.1021  -14.1018 C   0  0  0  0  0  0  0  0  0  0  0  0
   42.7638   14.8025  -13.2271 O   0  0  0  0  0  0  0  0  0  0  0  0
   44.8239   14.0808  -13.9898 C   0  0  0  0  0  0  0  0  0  0  0  0
   45.4869   12.9855  -13.4657 C   0  0  0  0  0  0  0  0  0  0  0  0
   46.8645   12.9535  -13.3487 C   0  0  0  0  0  0  0  0  0  0  0  0
   47.6313   14.0161  -13.7515 C   0  0  0  0  0  0  0  0  0  0  0  0
   49.0242   14.0063  -13.6431 O   0  0  0  0  0  0  0  0  0  0  0  0
   46.9854   15.1220  -14.2788 C   0  0  0  0  0  0  0  0  0  0  0  0
   45.6052   15.1396  -14.3897 C   0  0  0  0  0  0  0  0  0  0  0  0
   49.5565   13.6559  -14.4076 H   0  0  0  0  0  0  0  0  0  0  0  0
  1  2  1  0  0  0
  2  3  2  0  0  0
  3  4  1  0  0  0
  4  5  1  0  0  0
  5  6  2  0  0  0
  6  7  1  0  0  0
  7  8  1  0  0  0
  8  9  1  0  0  0
  9 10  2  0  0  0
 10 12  1  0  0  0
 12 13  2  0  0  0
 13 14  1  0  0  0
 14 15  2  0  0  0
 15 16  1  0  0  0
 15 17  1  0  0  0
 17 18  2  0  0  0
  5 20  1  0  0  0
 20 21  2  0  0  0
 20 22  1  0  0  0
 22 23  2  0  0  0
 23 24  1  0  0  0
 24 25  2  0  0  0
 25 26  1  0  0  0
 25 27  1  0  0  0
 27 28  2  0  0  0
 10  2  1  0  0  0
 18 12  1  0  0  0
 28 22  1  0  0  0
  8  4  2  0  0  0
  1 11  1  0  0  0
 16 19  1  0  0  0
 26 29  1  0  0  0
M  END
> <minimizedAffinity>
-8.70184

> <CNNscore>
0.4041053355

> <CNNaffinity>
6.0063714981

> <CNN_VS>
2.4272067547

> <CNNaffinity_variance>
0.2426367253

$$$$
[H]Oc1c([H])c([H])c(C(=O)c2c([H])oc3c([H])c(-c4c([H])c([H])c(O[H])c([H])c4[H])c(O[H])c([H])c23)c([H])c1[H]


 29 32  0  0  0  0  0  0  0  0999 V2000
   39.9675   16.3888  -12.6688 O   0  0  0  0  0  0  0  0  0  0  0  0
   39.3841   15.2200  -13.1300 C   0  0  0  0  0  0  0  0  0  0  0  0
   39.9125   14.5823  -14.2561 C   0  0  0  0  0  0  0  0  0  0  0  0
   39.3833   13.4232  -14.7635 C   0  0  0  0  0  0  0  0  0  0  0  0
   39.6696   12.5744  -15.8313 C   0  0  0  0  0  0  0  0  0  0  0  0
   38.7304   11.5858  -15.7599 C   0  0  0  0  0  0  0  0  0  0  0  0
   37.9400   11.8083  -14.7410 O   0  0  0  0  0  0  0  0  0  0  0  0
   38.2816   12.8927  -14.1078 C   0  0  0  0  0  0  0  0  0  0  0  0
   37.7500   13.5185  -12.9893 C   0  0  0  0  0  0  0  0  0  0  0  0
   38.3000   14.6762  -12.5047 C   0  0  0  0  0  0  0  0  0  0  0  0
   40.7768   16.7768  -13.1520 H   0  0  0  0  0  0  0  0  0  0  0  0
   37.7287   15.3167  -11.3380 C   0  0  0  0  0  0  0  0  0  0  0  0
   38.2778   15.1611  -10.0799 C   0  0  0  0  0  0  0  0  0  0  0  0
   37.7164   15.7772   -8.9808 C   0  0  0  0  0  0  0  0  0  0  0  0
   36.5987   16.5646   -9.0864 C   0  0  0  0  0  0  0  0  0  0  0  0
   36.0530   17.1716   -7.9754 O   0  0  0  0  0  0  0  0  0  0  0  0
   36.0590   16.7125  -10.3497 C   0  0  0  0  0  0  0  0  0  0  0  0
   36.5859   16.1164  -11.4745 C   0  0  0  0  0  0  0  0  0  0  0  0
   35.3481   16.7438   -7.3999 H   0  0  0  0  0  0  0  0  0  0  0  0
   40.7609   12.7737  -16.7672 C   0  0  0  0  0  0  0  0  0  0  0  0
   40.5076   13.0777  -17.9818 O   0  0  0  0  0  0  0  0  0  0  0  0
   42.1670   12.6528  -16.4286 C   0  0  0  0  0  0  0  0  0  0  0  0
   42.7075   13.3357  -15.3536 C   0  0  0  0  0  0  0  0  0  0  0  0
   44.0462   13.2335  -15.0224 C   0  0  0  0  0  0  0  0  0  0  0  0
   44.8954   12.4441  -15.7540 C   0  0  0  0  0  0  0  0  0  0  0  0
   46.2512   12.3254  -15.4382 O   0  0  0  0  0  0  0  0  0  0  0  0
   44.3726   11.7526  -16.8341 C   0  0  0  0  0  0  0  0  0  0  0  0
   43.0299   11.8649  -17.1537 C   0  0  0  0  0  0  0  0  0  0  0  0
   46.5299   11.6064  -14.8090 H   0  0  0  0  0  0  0  0  0  0  0  0
  1  2  1  0  0  0
  2  3  2  0  0  0
  3  4  1  0  0  0
  4  5  1  0  0  0
  5  6  2  0  0  0
  6  7  1  0  0  0
  7  8  1  0  0  0
  8  9  1  0  0  0
  9 10  2  0  0  0
 10 12  1  0  0  0
 12 13  2  0  0  0
 13 14  1  0  0  0
 14 15  2  0  0  0
 15 16  1  0  0  0
 15 17  1  0  0  0
 17 18  2  0  0  0
  5 20  1  0  0  0
 20 21  2  0  0  0
 20 22  1  0  0  0
 22 23  2  0  0  0
 23 24  1  0  0  0
 24 25  2  0  0  0
 25 26  1  0  0  0
 25 27  1  0  0  0
 27 28  2  0  0  0
 10  2  1  0  0  0
 18 12  1  0  0  0
 28 22  1  0  0  0
  8  4  2  0  0  0
  1 11  1  0  0  0
 16 19  1  0  0  0
 26 29  1  0  0  0
M  END
> <minimizedAffinity>
-8.88788

> <CNNscore>
0.2891373634

> <CNNaffinity>
5.4144339561

> <CNN_VS>
1.5655151606

> <CNNaffinity_variance>
0.0967902169

$$$$
[H]Oc1c([H])c([H])c(C(=O)c2c([H])oc3c([H])c(-c4c([H])c([H])c(O[H])c([H])c4[H])c(O[H])c([H])c23)c([H])c1[H]


 29 32  0  0  0  0  0  0  0  0999 V2000
   39.5098   13.7106  -13.7063 O   0  0  0  0  0  0  0  0  0  0  0  0
   40.5813   13.3677  -14.5144 C   0  0  0  0  0  0  0  0  0  0  0  0
   41.8747   13.7476  -14.1442 C   0  0  0  0  0  0  0  0  0  0  0  0
   42.9781   13.4398  -14.8983 C   0  0  0  0  0  0  0  0  0  0  0  0
   44.3503   13.6660  -14.8051 C   0  0  0  0  0  0  0  0  0  0  0  0
   44.8829   13.0765  -15.9156 C   0  0  0  0  0  0  0  0  0  0  0  0
   43.9245   12.5379  -16.6253 O   0  0  0  0  0  0  0  0  0  0  0  0
   42.7637   12.7231  -16.0668 C   0  0  0  0  0  0  0  0  0  0  0  0
   41.4837   12.3415  -16.4427 C   0  0  0  0  0  0  0  0  0  0  0  0
   40.3996   12.6634  -15.6689 C   0  0  0  0  0  0  0  0  0  0  0  0
   39.6695   14.2372  -12.8482 H   0  0  0  0  0  0  0  0  0  0  0  0
   39.0708   12.2593  -16.0797 C   0  0  0  0  0  0  0  0  0  0  0  0
   37.9387   12.7107  -15.4290 C   0  0  0  0  0  0  0  0  0  0  0  0
   36.6820   12.3112  -15.8340 C   0  0  0  0  0  0  0  0  0  0  0  0
   36.5014   11.4562  -16.8908 C   0  0  0  0  0  0  0  0  0  0  0  0
   35.2368   11.0690  -17.2799 O   0  0  0  0  0  0  0  0  0  0  0  0
   37.6411   11.0120  -17.5334 C   0  0  0  0  0  0  0  0  0  0  0  0
   38.9149   11.3844  -17.1634 C   0  0  0  0  0  0  0  0  0  0  0  0
   34.7678   10.2586  -16.9133 H   0  0  0  0  0  0  0  0  0  0  0  0
   44.9911   14.3813  -13.7168 C   0  0  0  0  0  0  0  0  0  0  0  0
   45.5516   13.7294  -12.7721 O   0  0  0  0  0  0  0  0  0  0  0  0
   45.0517   15.8272  -13.6062 C   0  0  0  0  0  0  0  0  0  0  0  0
   44.0618   16.5389  -12.9523 C   0  0  0  0  0  0  0  0  0  0  0  0
   44.1044   17.9169  -12.8435 C   0  0  0  0  0  0  0  0  0  0  0  0
   45.1388   18.6354  -13.3848 C   0  0  0  0  0  0  0  0  0  0  0  0
   45.2030   20.0277  -13.2873 O   0  0  0  0  0  0  0  0  0  0  0  0
   46.1394   17.9403  -14.0435 C   0  0  0  0  0  0  0  0  0  0  0  0
   46.0832   16.5604  -14.1445 C   0  0  0  0  0  0  0  0  0  0  0  0
   45.6685   20.4267  -12.5033 H   0  0  0  0  0  0  0  0  0  0  0  0
  1  2  1  0  0  0
  2  3  2  0  0  0
  3  4  1  0  0  0
  4  5  1  0  0  0
  5  6  2  0  0  0
  6  7  1  0  0  0
  7  8  1  0  0  0
  8  9  1  0  0  0
  9 10  2  0  0  0
 10 12  1  0  0  0
 12 13  2  0  0  0
 13 14  1  0  0  0
 14 15  2  0  0  0
 15 16  1  0  0  0
 15 17  1  0  0  0
 17 18  2  0  0  0
  5 20  1  0  0  0
 20 21  2  0  0  0
 20 22  1  0  0  0
 22 23  2  0  0  0
 23 24  1  0  0  0
 24 25  2  0  0  0
 25 26  1  0  0  0
 25 27  1  0  0  0
 27 28  2  0  0  0
 10  2  1  0  0  0
 18 12  1  0  0  0
 28 22  1  0  0  0
  8  4  2  0  0  0
  1 11  1  0  0  0
 16 19  1  0  0  0
 26 29  1  0  0  0
M  END
> <minimizedAffinity>
-9.46393

> <CNNscore>
0.2848234475

> <CNNaffinity>
5.5450186729

> <CNN_VS>
1.5793513060

> <CNNaffinity_variance>
0.0963400453

$$$$
[H]Oc1c([H])c([H])c(C(=O)c2c([H])oc3c([H])c(-c4c([H])c([H])c(O[H])c([H])c4[H])c(O[H])c([H])c23)c([H])c1[H]


 29 32  0  0  0  0  0  0  0  0999 V2000
   38.7264   10.9013  -16.9897 O   0  0  0  0  0  0  0  0  0  0  0  0
   38.7804   11.9244  -16.0573 C   0  0  0  0  0  0  0  0  0  0  0  0
   40.0214   12.4216  -15.6488 C   0  0  0  0  0  0  0  0  0  0  0  0
   40.1448   13.4328  -14.7306 C   0  0  0  0  0  0  0  0  0  0  0  0
   41.1996   14.1246  -14.1378 C   0  0  0  0  0  0  0  0  0  0  0  0
   40.6066   15.0223  -13.2970 C   0  0  0  0  0  0  0  0  0  0  0  0
   39.3064   14.8927  -13.3678 O   0  0  0  0  0  0  0  0  0  0  0  0
   38.9713   13.9577  -14.2087 C   0  0  0  0  0  0  0  0  0  0  0  0
   37.7348   13.4708  -14.6079 C   0  0  0  0  0  0  0  0  0  0  0  0
   37.6423   12.4592  -15.5276 C   0  0  0  0  0  0  0  0  0  0  0  0
   39.5898   10.5171  -17.3719 H   0  0  0  0  0  0  0  0  0  0  0  0
   36.3426   11.9618  -15.9291 C   0  0  0  0  0  0  0  0  0  0  0  0
   36.1389   11.3671  -17.1593 C   0  0  0  0  0  0  0  0  0  0  0  0
   34.8922   10.9029  -17.5240 C   0  0  0  0  0  0  0  0  0  0  0  0
   33.8091   11.0095  -16.6898 C   0  0  0  0  0  0  0  0  0  0  0  0
   32.5713   10.5391  -17.0732 O   0  0  0  0  0  0  0  0  0  0  0  0
   34.0257   11.6060  -15.4624 C   0  0  0  0  0  0  0  0  0  0  0  0
   35.2525   12.0837  -15.0567 C   0  0  0  0  0  0  0  0  0  0  0  0
   31.8917   11.0986  -17.5593 H   0  0  0  0  0  0  0  0  0  0  0  0
   42.6021   13.8801  -14.4204 C   0  0  0  0  0  0  0  0  0  0  0  0
   42.9590   13.5145  -15.5912 O   0  0  0  0  0  0  0  0  0  0  0  0
   43.6729   14.0205  -13.4509 C   0  0  0  0  0  0  0  0  0  0  0  0
   44.7062   14.9192  -13.6482 C   0  0  0  0  0  0  0  0  0  0  0  0
   45.7353   15.0600  -12.7353 C   0  0  0  0  0  0  0  0  0  0  0  0
   45.7700   14.3072  -11.5901 C   0  0  0  0  0  0  0  0  0  0  0  0
   46.7993   14.4322  -10.6536 O   0  0  0  0  0  0  0  0  0  0  0  0
   44.7442   13.4018  -11.3750 C   0  0  0  0  0  0  0  0  0  0  0  0
   43.7204   13.2718  -12.2983 C   0  0  0  0  0  0  0  0  0  0  0  0
   46.6914   15.0920   -9.9163 H   0  0  0  0  0  0  0  0  0  0  0  0
  1  2  1  0  0  0
  2  3  2  0  0  0
  3  4  1  0  0  0
  4  5  1  0  0  0
  5  6  2  0  0  0
  6  7  1  0  0  0
  7  8  1  0  0  0
  8  9  1  0  0  0
  9 10  2  0  0  0
 10 12  1  0  0  0
 12 13  2  0  0  0
 13 14  1  0  0  0
 14 15  2  0  0  0
 15 16  1  0  0  0
 15 17  1  0  0  0
 17 18  2  0  0  0
  5 20  1  0  0  0
 20 21  2  0  0  0
 20 22  1  0  0  0
 22 23  2  0  0  0
 23 24  1  0  0  0
 24 25  2  0  0  0
 25 26  1  0  0  0
 25 27  1  0  0  0
 27 28  2  0  0  0
 10  2  1  0  0  0
 18 12  1  0  0  0
 28 22  1  0  0  0
  8  4  2  0  0  0
  1 11  1  0  0  0
 16 19  1  0  0  0
 26 29  1  0  0  0
M  END
> <minimizedAffinity>
-8.35346

> <CNNscore>
0.2812349498

> <CNNaffinity>
5.8352227211

> <CNN_VS>
1.6410685778

> <CNNaffinity_variance>
0.0907192975

$$$$
[H]Oc1c([H])c([H])c(C(=O)c2c([H])oc3c([H])c(-c4c([H])c([H])c(O[H])c([H])c4[H])c(O[H])c([H])c23)c([H])c1[H]


 29 32  0  0  0  0  0  0  0  0999 V2000
   42.7344   12.2257  -16.0355 O   0  0  0  0  0  0  0  0  0  0  0  0
   41.9099   13.0876  -15.3311 C   0  0  0  0  0  0  0  0  0  0  0  0
   42.4328   13.8279  -14.2669 C   0  0  0  0  0  0  0  0  0  0  0  0
   41.6716   14.6984  -13.5296 C   0  0  0  0  0  0  0  0  0  0  0  0
   41.8884   15.5507  -12.4483 C   0  0  0  0  0  0  0  0  0  0  0  0
   40.6786   16.1377  -12.2115 C   0  0  0  0  0  0  0  0  0  0  0  0
   39.7997   15.6864  -13.0696 O   0  0  0  0  0  0  0  0  0  0  0  0
   40.3355   14.8230  -13.8826 C   0  0  0  0  0  0  0  0  0  0  0  0
   39.8073   14.0924  -14.9374 C   0  0  0  0  0  0  0  0  0  0  0  0
   40.5923   13.2297  -15.6565 C   0  0  0  0  0  0  0  0  0  0  0  0
   43.7157   12.1357  -15.7746 H   0  0  0  0  0  0  0  0  0  0  0  0
   40.0219   12.4731  -16.7519 C   0  0  0  0  0  0  0  0  0  0  0  0
   40.5072   12.5798  -18.0410 C   0  0  0  0  0  0  0  0  0  0  0  0
   39.9475   11.8528  -19.0711 C   0  0  0  0  0  0  0  0  0  0  0  0
   38.8943   10.9993  -18.8640 C   0  0  0  0  0  0  0  0  0  0  0  0
   38.3492   10.2816  -19.9072 O   0  0  0  0  0  0  0  0  0  0  0  0
   38.4181   10.9013  -17.5706 C   0  0  0  0  0  0  0  0  0  0  0  0
   38.9458   11.6078  -16.5121 C   0  0  0  0  0  0  0  0  0  0  0  0
   37.5928   10.6195  -20.4771 H   0  0  0  0  0  0  0  0  0  0  0  0
   43.1665   15.7202  -11.7815 C   0  0  0  0  0  0  0  0  0  0  0  0
   43.5383   14.8755  -10.8984 O   0  0  0  0  0  0  0  0  0  0  0  0
   44.0920   16.8074  -12.0420 C   0  0  0  0  0  0  0  0  0  0  0  0
   45.1914   17.0238  -11.2304 C   0  0  0  0  0  0  0  0  0  0  0  0
   46.0787   18.0585  -11.4640 C   0  0  0  0  0  0  0  0  0  0  0  0
   45.9000   18.9161  -12.5185 C   0  0  0  0  0  0  0  0  0  0  0  0
   46.7832   19.9681  -12.7741 O   0  0  0  0  0  0  0  0  0  0  0  0
   44.8049   18.7154  -13.3423 C   0  0  0  0  0  0  0  0  0  0  0  0
   43.9249   17.6750  -13.0958 C   0  0  0  0  0  0  0  0  0  0  0  0
   47.5622   19.7986  -13.3700 H   0  0  0  0  0  0  0  0  0  0  0  0
  1  2  1  0  0  0
  2  3  2  0  0  0
  3  4  1  0  0  0
  4  5  1  0  0  0
  5  6  2  0  0  0
  6  7  1  0  0  0
  7  8  1  0  0  0
  8  9  1  0  0  0
  9 10  2  0  0  0
 10 12  1  0  0  0
 12 13  2  0  0  0
 13 14  1  0  0  0
 14 15  2  0  0  0
 15 16  1  0  0  0
 15 17  1  0  0  0
 17 18  2  0  0  0
  5 20  1  0  0  0
 20 21  2  0  0  0
 20 22  1  0  0  0
 22 23  2  0  0  0
 23 24  1  0  0  0
 24 25  2  0  0  0
 25 26  1  0  0  0
 25 27  1  0  0  0
 27 28  2  0  0  0
 10  2  1  0  0  0
 18 12  1  0  0  0
 28 22  1  0  0  0
  8  4  2  0  0  0
  1 11  1  0  0  0
 16 19  1  0  0  0
 26 29  1  0  0  0
M  END
> <minimizedAffinity>
-9.26669

> <CNNscore>
0.2723747194

> <CNNaffinity>
5.3382740021

> <CNN_VS>
1.4540108442

> <CNNaffinity_variance>
0.0980935544

$$$$
[H]Oc1c([H])c([H])c(C(=O)c2c([H])oc3c([H])c(-c4c([H])c([H])c(O[H])c([H])c4[H])c(O[H])c([H])c23)c([H])c1[H]


 29 32  0  0  0  0  0  0  0  0999 V2000
   40.1207   11.4028  -17.5960 O   0  0  0  0  0  0  0  0  0  0  0  0
   40.2526   12.1880  -16.4625 C   0  0  0  0  0  0  0  0  0  0  0  0
   41.5198   12.6325  -16.0740 C   0  0  0  0  0  0  0  0  0  0  0  0
   41.7195   13.4124  -14.9637 C   0  0  0  0  0  0  0  0  0  0  0  0
   42.8172   13.9961  -14.3335 C   0  0  0  0  0  0  0  0  0  0  0  0
   42.2986   14.6521  -13.2541 C   0  0  0  0  0  0  0  0  0  0  0  0
   41.0010   14.4857  -13.2249 O   0  0  0  0  0  0  0  0  0  0  0  0
   40.5975   13.7532  -14.2220 C   0  0  0  0  0  0  0  0  0  0  0  0
   39.3356   13.3169  -14.5995 C   0  0  0  0  0  0  0  0  0  0  0  0
   39.1665   12.5383  -15.7144 C   0  0  0  0  0  0  0  0  0  0  0  0
   40.9462   11.1536  -18.1395 H   0  0  0  0  0  0  0  0  0  0  0  0
   37.8417   12.0895  -16.0904 C   0  0  0  0  0  0  0  0  0  0  0  0
   37.6416   11.1997  -17.1280 C   0  0  0  0  0  0  0  0  0  0  0  0
   36.3712   10.7872  -17.4726 C   0  0  0  0  0  0  0  0  0  0  0  0
   35.2601   11.2374  -16.8068 C   0  0  0  0  0  0  0  0  0  0  0  0
   33.9988   10.8128  -17.1668 O   0  0  0  0  0  0  0  0  0  0  0  0
   35.4733   12.1268  -15.7711 C   0  0  0  0  0  0  0  0  0  0  0  0
   36.7232   12.5656  -15.3929 C   0  0  0  0  0  0  0  0  0  0  0  0
   33.4293   11.2830  -17.8491 H   0  0  0  0  0  0  0  0  0  0  0  0
   44.1865   13.8834  -14.8013 C   0  0  0  0  0  0  0  0  0  0  0  0
   44.4949   14.3023  -15.9680 O   0  0  0  0  0  0  0  0  0  0  0  0
   45.2753   13.3146  -14.0284 C   0  0  0  0  0  0  0  0  0  0  0  0
   45.0882   12.9017  -12.7213 C   0  0  0  0  0  0  0  0  0  0  0  0
   46.1176   12.3625  -11.9717 C   0  0  0  0  0  0  0  0  0  0  0  0
   47.3736   12.2158  -12.5012 C   0  0  0  0  0  0  0  0  0  0  0  0
   48.4288   11.6736  -11.7631 O   0  0  0  0  0  0  0  0  0  0  0  0
   47.5805   12.6236  -13.8085 C   0  0  0  0  0  0  0  0  0  0  0  0
   46.5399   13.1619  -14.5468 C   0  0  0  0  0  0  0  0  0  0  0  0
   48.5737   10.6896  -11.7962 H   0  0  0  0  0  0  0  0  0  0  0  0
  1  2  1  0  0  0
  2  3  2  0  0  0
  3  4  1  0  0  0
  4  5  1  0  0  0
  5  6  2  0  0  0
  6  7  1  0  0  0
  7  8  1  0  0  0
  8  9  1  0  0  0
  9 10  2  0  0  0
 10 12  1  0  0  0
 12 13  2  0  0  0
 13 14  1  0  0  0
 14 15  2  0  0  0
 15 16  1  0  0  0
 15 17  1  0  0  0
 17 18  2  0  0  0
  5 20  1  0  0  0
 20 21  2  0  0  0
 20 22  1  0  0  0
 22 23  2  0  0  0
 23 24  1  0  0  0
 24 25  2  0  0  0
 25 26  1  0  0  0
 25 27  1  0  0  0
 27 28  2  0  0  0
 10  2  1  0  0  0
 18 12  1  0  0  0
 28 22  1  0  0  0
  8  4  2  0  0  0
  1 11  1  0  0  0
 16 19  1  0  0  0
 26 29  1  0  0  0
M  END
> <minimizedAffinity>
-8.72033

> <CNNscore>
0.2676905990

> <CNNaffinity>
5.7973170280

> <CNN_VS>
1.5518872738

> <CNNaffinity_variance>
0.0910182372

$$$$
[H]Oc1c([H])c([H])c(C(=O)c2c([H])oc3c([H])c(-c4c([H])c([H])c(O[H])c([H])c4[H])c(O[H])c([H])c23)c([H])c1[H]


 29 32  0  0  0  0  0  0  0  0999 V2000
   38.6352   13.7990  -13.8386 O   0  0  0  0  0  0  0  0  0  0  0  0
   39.6902   13.3760  -14.6304 C   0  0  0  0  0  0  0  0  0  0  0  0
   40.9938   13.7654  -14.3095 C   0  0  0  0  0  0  0  0  0  0  0  0
   42.0819   13.3814  -15.0508 C   0  0  0  0  0  0  0  0  0  0  0  0
   43.4583   13.5941  -14.9944 C   0  0  0  0  0  0  0  0  0  0  0  0
   43.9666   12.9090  -16.0605 C   0  0  0  0  0  0  0  0  0  0  0  0
   42.9908   12.3291  -16.7115 O   0  0  0  0  0  0  0  0  0  0  0  0
   41.8409   12.5759  -16.1545 C   0  0  0  0  0  0  0  0  0  0  0  0
   40.5504   12.1842  -16.4811 C   0  0  0  0  0  0  0  0  0  0  0  0
   39.4821   12.5836  -15.7216 C   0  0  0  0  0  0  0  0  0  0  0  0
   38.8145   14.3907  -13.0282 H   0  0  0  0  0  0  0  0  0  0  0  0
   38.1421   12.1673  -16.0806 C   0  0  0  0  0  0  0  0  0  0  0  0
   37.0294   12.6383  -15.4108 C   0  0  0  0  0  0  0  0  0  0  0  0
   35.7617   12.2267  -15.7662 C   0  0  0  0  0  0  0  0  0  0  0  0
   35.5507   11.3402  -16.7909 C   0  0  0  0  0  0  0  0  0  0  0  0
   34.2754   10.9414  -17.1305 O   0  0  0  0  0  0  0  0  0  0  0  0
   36.6713   10.8766  -17.4530 C   0  0  0  0  0  0  0  0  0  0  0  0
   37.9551   11.2600  -17.1323 C   0  0  0  0  0  0  0  0  0  0  0  0
   33.8181   10.1425  -16.7260 H   0  0  0  0  0  0  0  0  0  0  0  0
   44.1245   14.3855  -13.9763 C   0  0  0  0  0  0  0  0  0  0  0  0
   44.9389   15.3071  -14.3212 O   0  0  0  0  0  0  0  0  0  0  0  0
   43.9375   14.2128  -12.5475 C   0  0  0  0  0  0  0  0  0  0  0  0
   43.5141   15.2593  -11.7476 C   0  0  0  0  0  0  0  0  0  0  0  0
   43.3363   15.1103  -10.3843 C   0  0  0  0  0  0  0  0  0  0  0  0
   43.5754   13.9087   -9.7692 C   0  0  0  0  0  0  0  0  0  0  0  0
   43.4026   13.7345   -8.3937 O   0  0  0  0  0  0  0  0  0  0  0  0
   44.0000   12.8491  -10.5535 C   0  0  0  0  0  0  0  0  0  0  0  0
   44.1737   13.0134  -11.9175 C   0  0  0  0  0  0  0  0  0  0  0  0
   42.5115   13.4412   -8.0616 H   0  0  0  0  0  0  0  0  0  0  0  0
  1  2  1  0  0  0
  2  3  2  0  0  0
  3  4  1  0  0  0
  4  5  1  0  0  0
  5  6  2  0  0  0
  6  7  1  0  0  0
  7  8  1  0  0  0
  8  9  1  0  0  0
  9 10  2  0  0  0
 10 12  1  0  0  0
 12 13  2  0  0  0
 13 14  1  0  0  0
 14 15  2  0  0  0
 15 16  1  0  0  0
 15 17  1  0  0  0
 17 18  2  0  0  0
  5 20  1  0  0  0
 20 21  2  0  0  0
 20 22  1  0  0  0
 22 23  2  0  0  0
 23 24  1  0  0  0
 24 25  2  0  0  0
 25 26  1  0  0  0
 25 27  1  0  0  0
 27 28  2  0  0  0
 10  2  1  0  0  0
 18 12  1  0  0  0
 28 22  1  0  0  0
  8  4  2  0  0  0
  1 11  1  0  0  0
 16 19  1  0  0  0
 26 29  1  0  0  0
M  END
> <minimizedAffinity>
-9.05469

> <CNNscore>
0.2667546272

> <CNNaffinity>
5.5931830406

> <CNN_VS>
1.4920074940

> <CNNaffinity_variance>
0.0543596968

$$$$
[H]Oc1c([H])c([H])c(C(=O)c2c([H])oc3c([H])c(-c4c([H])c([H])c(O[H])c([H])c4[H])c(O[H])c([H])c23)c([H])c1[H]


 29 32  0  0  0  0  0  0  0  0999 V2000
   38.9951   14.3539  -13.0322 O   0  0  0  0  0  0  0  0  0  0  0  0
   39.6693   13.7561  -14.0843 C   0  0  0  0  0  0  0  0  0  0  0  0
   41.0627   13.8453  -14.1512 C   0  0  0  0  0  0  0  0  0  0  0  0
   41.7904   13.2761  -15.1648 C   0  0  0  0  0  0  0  0  0  0  0  0
   43.1397   13.1901  -15.5035 C   0  0  0  0  0  0  0  0  0  0  0  0
   43.1692   12.4651  -16.6602 C   0  0  0  0  0  0  0  0  0  0  0  0
   41.9490   12.1365  -16.9999 O   0  0  0  0  0  0  0  0  0  0  0  0
   41.0823   12.5937  -16.1436 C   0  0  0  0  0  0  0  0  0  0  0  0
   39.6991   12.4997  -16.0858 C   0  0  0  0  0  0  0  0  0  0  0  0
   38.9983   13.0789  -15.0606 C   0  0  0  0  0  0  0  0  0  0  0  0
   39.5173   14.8548  -12.3141 H   0  0  0  0  0  0  0  0  0  0  0  0
   37.5544   12.9730  -15.0195 C   0  0  0  0  0  0  0  0  0  0  0  0
   36.7713   13.9304  -14.4040 C   0  0  0  0  0  0  0  0  0  0  0  0
   35.3976   13.8091  -14.3731 C   0  0  0  0  0  0  0  0  0  0  0  0
   34.7533   12.7431  -14.9465 C   0  0  0  0  0  0  0  0  0  0  0  0
   33.3791   12.6406  -14.9046 O   0  0  0  0  0  0  0  0  0  0  0  0
   35.5473   11.7925  -15.5590 C   0  0  0  0  0  0  0  0  0  0  0  0
   36.9216   11.8727  -15.6138 C   0  0  0  0  0  0  0  0  0  0  0  0
   32.8800   12.1780  -14.1644 H   0  0  0  0  0  0  0  0  0  0  0  0
   44.2186   13.7730  -14.7270 C   0  0  0  0  0  0  0  0  0  0  0  0
   44.7202   14.8937  -15.0794 O   0  0  0  0  0  0  0  0  0  0  0  0
   44.7975   13.1692  -13.5410 C   0  0  0  0  0  0  0  0  0  0  0  0
   44.1426   13.2090  -12.3230 C   0  0  0  0  0  0  0  0  0  0  0  0
   44.6845   12.6421  -11.1840 C   0  0  0  0  0  0  0  0  0  0  0  0
   45.9023   12.0136  -11.2201 C   0  0  0  0  0  0  0  0  0  0  0  0
   46.4694   11.4336  -10.0825 O   0  0  0  0  0  0  0  0  0  0  0  0
   46.5732   11.9635  -12.4307 C   0  0  0  0  0  0  0  0  0  0  0  0
   46.0180   12.5359  -13.5629 C   0  0  0  0  0  0  0  0  0  0  0  0
   46.2652   10.4797   -9.8852 H   0  0  0  0  0  0  0  0  0  0  0  0
  1  2  1  0  0  0
  2  3  2  0  0  0
  3  4  1  0  0  0
  4  5  1  0  0  0
  5  6  2  0  0  0
  6  7  1  0  0  0
  7  8  1  0  0  0
  8  9  1  0  0  0
  9 10  2  0  0  0
 10 12  1  0  0  0
 12 13  2  0  0  0
 13 14  1  0  0  0
 14 15  2  0  0  0
 15 16  1  0  0  0
 15 17  1  0  0  0
 17 18  2  0  0  0
  5 20  1  0  0  0
 20 21  2  0  0  0
 20 22  1  0  0  0
 22 23  2  0  0  0
 23 24  1  0  0  0
 24 25  2  0  0  0
 25 26  1  0  0  0
 25 27  1  0  0  0
 27 28  2  0  0  0
 10  2  1  0  0  0
 18 12  1  0  0  0
 28 22  1  0  0  0
  8  4  2  0  0  0
  1 11  1  0  0  0
 16 19  1  0  0  0
 26 29  1  0  0  0
M  END
> <minimizedAffinity>
-8.87203

> <CNNscore>
0.2582459748

> <CNNaffinity>
5.7462472916

> <CNN_VS>
1.4839452505

> <CNNaffinity_variance>
0.0906400159

$$$$
[H]Oc1c([H])c([H])c2c(oc(=O)c3c(O[H])c([H])c([H])c(O[H])c32)c1C([H])([H])[H]


 22 24  0  0  0  0  0  0  0  0999 V2000
   38.9647   10.9003  -19.1031 C   0  0  0  0  0  0  0  0  0  0  0  0
   39.1359   11.5496  -17.7795 C   0  0  0  0  0  0  0  0  0  0  0  0
   40.3768   12.0117  -17.4124 C   0  0  0  0  0  0  0  0  0  0  0  0
   41.4738   11.8700  -18.2837 O   0  0  0  0  0  0  0  0  0  0  0  0
   40.5490   12.6115  -16.1970 C   0  0  0  0  0  0  0  0  0  0  0  0
   39.4436   12.7451  -15.3390 C   0  0  0  0  0  0  0  0  0  0  0  0
   38.2091   12.2864  -15.7019 C   0  0  0  0  0  0  0  0  0  0  0  0
   38.0355   11.6680  -16.9569 C   0  0  0  0  0  0  0  0  0  0  0  0
   36.8585   11.2219  -17.3224 O   0  0  0  0  0  0  0  0  0  0  0  0
   35.8130   11.3285  -16.5535 C   0  0  0  0  0  0  0  0  0  0  0  0
   34.7103   10.8892  -16.9423 O   0  0  0  0  0  0  0  0  0  0  0  0
   35.9026   11.9209  -15.3116 C   0  0  0  0  0  0  0  0  0  0  0  0
   34.7834   12.0308  -14.4981 C   0  0  0  0  0  0  0  0  0  0  0  0
   33.5672   11.5316  -14.9586 O   0  0  0  0  0  0  0  0  0  0  0  0
   34.8756   12.6234  -13.2573 C   0  0  0  0  0  0  0  0  0  0  0  0
   36.0972   13.1047  -12.8385 C   0  0  0  0  0  0  0  0  0  0  0  0
   37.2396   13.0127  -13.6250 C   0  0  0  0  0  0  0  0  0  0  0  0
   38.3957   13.5291  -13.0964 O   0  0  0  0  0  0  0  0  0  0  0  0
   37.1271   12.4212  -14.8533 C   0  0  0  0  0  0  0  0  0  0  0  0
   42.3775   12.2005  -18.0295 H   0  0  0  0  0  0  0  0  0  0  0  0
   32.7456   11.6127  -14.3606 H   0  0  0  0  0  0  0  0  0  0  0  0
   38.4907   13.9568  -12.2157 H   0  0  0  0  0  0  0  0  0  0  0  0
  1  2  1  0  0  0
  2  3  2  0  0  0
  3  4  1  0  0  0
  3  5  1  0  0  0
  5  6  2  0  0  0
  6  7  1  0  0  0
  7  8  2  0  0  0
  8  9  1  0  0  0
  9 10  1  0  0  0
 10 11  2  0  0  0
 10 12  1  0  0  0
 12 13  2  0  0  0
 13 14  1  0  0  0
 13 15  1  0  0  0
 15 16  2  0  0  0
 16 17  1  0  0  0
 17 18  1  0  0  0
 17 19  2  0  0  0
  8  2  1  0  0  0
 19 12  1  0  0  0
 19  7  1  0  0  0
  4 20  1  0  0  0
 14 21  1  0  0  0
 18 22  1  0  0  0
M  END
> <minimizedAffinity>
-9.67985

> <CNNscore>
0.8931753635

> <CNNaffinity>
6.1197242737

> <CNN_VS>
5.4659867287

> <CNNaffinity_variance>
0.1827589422

$$$$
[H]Oc1c([H])c([H])c2c(oc(=O)c3c(O[H])c([H])c([H])c(O[H])c32)c1C([H])([H])[H]


 22 24  0  0  0  0  0  0  0  0999 V2000
   34.7883   10.8269  -16.9318 C   0  0  0  0  0  0  0  0  0  0  0  0
   35.6048   11.5912  -15.9561 C   0  0  0  0  0  0  0  0  0  0  0  0
   35.0072   12.0912  -14.8242 C   0  0  0  0  0  0  0  0  0  0  0  0
   33.6343   11.8800  -14.5937 O   0  0  0  0  0  0  0  0  0  0  0  0
   35.7467   12.7966  -13.9175 C   0  0  0  0  0  0  0  0  0  0  0  0
   37.1160   12.9985  -14.1627 C   0  0  0  0  0  0  0  0  0  0  0  0
   37.7122   12.5024  -15.2873 C   0  0  0  0  0  0  0  0  0  0  0  0
   36.9457   11.7750  -16.2206 C   0  0  0  0  0  0  0  0  0  0  0  0
   37.5004   11.2913  -17.3052 O   0  0  0  0  0  0  0  0  0  0  0  0
   38.7654   11.4590  -17.5646 C   0  0  0  0  0  0  0  0  0  0  0  0
   39.2523   10.9805  -18.6106 O   0  0  0  0  0  0  0  0  0  0  0  0
   39.5806   12.1589  -16.7004 C   0  0  0  0  0  0  0  0  0  0  0  0
   40.9280   12.3332  -16.9842 C   0  0  0  0  0  0  0  0  0  0  0  0
   41.4426   11.7881  -18.1583 O   0  0  0  0  0  0  0  0  0  0  0  0
   41.7407   13.0332  -16.1188 C   0  0  0  0  0  0  0  0  0  0  0  0
   41.1929   13.5567  -14.9676 C   0  0  0  0  0  0  0  0  0  0  0  0
   39.8485   13.4028  -14.6497 C   0  0  0  0  0  0  0  0  0  0  0  0
   39.4234   13.9705  -13.4750 O   0  0  0  0  0  0  0  0  0  0  0  0
   39.0587   12.7047  -15.5217 C   0  0  0  0  0  0  0  0  0  0  0  0
   33.1898   12.2369  -13.7779 H   0  0  0  0  0  0  0  0  0  0  0  0
   42.4324   11.9165  -18.3661 H   0  0  0  0  0  0  0  0  0  0  0  0
   39.9799   14.4744  -12.8394 H   0  0  0  0  0  0  0  0  0  0  0  0
  1  2  1  0  0  0
  2  3  2  0  0  0
  3  4  1  0  0  0
  3  5  1  0  0  0
  5  6  2  0  0  0
  6  7  1  0  0  0
  7  8  2  0  0  0
  8  9  1  0  0  0
  9 10  1  0  0  0
 10 11  2  0  0  0
 10 12  1  0  0  0
 12 13  2  0  0  0
 13 14  1  0  0  0
 13 15  1  0  0  0
 15 16  2  0  0  0
 16 17  1  0  0  0
 17 18  1  0  0  0
 17 19  2  0  0  0
  8  2  1  0  0  0
 19 12  1  0  0  0
 19  7  1  0  0  0
  4 20  1  0  0  0
 14 21  1  0  0  0
 18 22  1  0  0  0
M  END
> <minimizedAffinity>
-9.66761

> <CNNscore>
0.8515397310

> <CNNaffinity>
5.8013482094

> <CNN_VS>
4.9400782585

> <CNNaffinity_variance>
0.0729208365

$$$$
[H]Oc1c([H])c([H])c2c(oc(=O)c3c(O[H])c([H])c([H])c(O[H])c32)c1C([H])([H])[H]


 22 24  0  0  0  0  0  0  0  0999 V2000
   33.9087   10.6906  -16.9574 C   0  0  0  0  0  0  0  0  0  0  0  0
   34.9921   11.3382  -16.1766 C   0  0  0  0  0  0  0  0  0  0  0  0
   34.6996   11.8976  -14.9560 C   0  0  0  0  0  0  0  0  0  0  0  0
   33.3853   11.8563  -14.4525 O   0  0  0  0  0  0  0  0  0  0  0  0
   35.6870   12.4971  -14.2264 C   0  0  0  0  0  0  0  0  0  0  0  0
   36.9937   12.5298  -14.7434 C   0  0  0  0  0  0  0  0  0  0  0  0
   37.2867   11.9744  -15.9566 C   0  0  0  0  0  0  0  0  0  0  0  0
   36.2651   11.3567  -16.7065 C   0  0  0  0  0  0  0  0  0  0  0  0
   36.5274   10.8183  -17.8724 O   0  0  0  0  0  0  0  0  0  0  0  0
   37.7256   10.8302  -18.3819 C   0  0  0  0  0  0  0  0  0  0  0  0
   37.9303   10.3050  -19.4965 O   0  0  0  0  0  0  0  0  0  0  0  0
   38.7774   11.4152  -17.7091 C   0  0  0  0  0  0  0  0  0  0  0  0
   40.0516   11.4236  -18.2591 C   0  0  0  0  0  0  0  0  0  0  0  0
   40.2495   10.8301  -19.5037 O   0  0  0  0  0  0  0  0  0  0  0  0
   41.1012   12.0090  -17.5845 C   0  0  0  0  0  0  0  0  0  0  0  0
   40.8639   12.5854  -16.3554 C   0  0  0  0  0  0  0  0  0  0  0  0
   39.6019   12.5965  -15.7729 C   0  0  0  0  0  0  0  0  0  0  0  0
   39.4941   13.2013  -14.5459 O   0  0  0  0  0  0  0  0  0  0  0  0
   38.5735   12.0102  -16.4585 C   0  0  0  0  0  0  0  0  0  0  0  0
   33.1606   12.2578  -13.5700 H   0  0  0  0  0  0  0  0  0  0  0  0
   41.1858   10.8366  -19.9070 H   0  0  0  0  0  0  0  0  0  0  0  0
   40.2244   13.6262  -14.0422 H   0  0  0  0  0  0  0  0  0  0  0  0
  1  2  1  0  0  0
  2  3  2  0  0  0
  3  4  1  0  0  0
  3  5  1  0  0  0
  5  6  2  0  0  0
  6  7  1  0  0  0
  7  8  2  0  0  0
  8  9  1  0  0  0
  9 10  1  0  0  0
 10 11  2  0  0  0
 10 12  1  0  0  0
 12 13  2  0  0  0
 13 14  1  0  0  0
 13 15  1  0  0  0
 15 16  2  0  0  0
 16 17  1  0  0  0
 17 18  1  0  0  0
 17 19  2  0  0  0
  8  2  1  0  0  0
 19 12  1  0  0  0
 19  7  1  0  0  0
  4 20  1  0  0  0
 14 21  1  0  0  0
 18 22  1  0  0  0
M  END
> <minimizedAffinity>
-9.86606

> <CNNscore>
0.8154142499

> <CNNaffinity>
5.8443975449

> <CNN_VS>
4.7656049728

> <CNNaffinity_variance>
0.0177394263

$$$$
[H]Oc1c([H])c([H])c2c(oc(=O)c3c(O[H])c([H])c([H])c(O[H])c32)c1C([H])([H])[H]


 22 24  0  0  0  0  0  0  0  0999 V2000
   41.3858   12.9933  -15.6698 C   0  0  0  0  0  0  0  0  0  0  0  0
   40.1694   12.4124  -16.2909 C   0  0  0  0  0  0  0  0  0  0  0  0
   40.2592   11.8358  -17.5349 C   0  0  0  0  0  0  0  0  0  0  0  0
   41.4928   11.7973  -18.2125 O   0  0  0  0  0  0  0  0  0  0  0  0
   39.1475   11.2971  -18.1187 C   0  0  0  0  0  0  0  0  0  0  0  0
   37.9237   11.3439  -17.4289 C   0  0  0  0  0  0  0  0  0  0  0  0
   37.8322   11.9166  -16.1920 C   0  0  0  0  0  0  0  0  0  0  0  0
   38.9816   12.4714  -15.5930 C   0  0  0  0  0  0  0  0  0  0  0  0
   38.9131   13.0249  -14.4069 O   0  0  0  0  0  0  0  0  0  0  0  0
   37.7967   13.0860  -13.7394 C   0  0  0  0  0  0  0  0  0  0  0  0
   37.7773   13.6229  -12.6118 O   0  0  0  0  0  0  0  0  0  0  0  0
   36.6300   12.5657  -14.2583 C   0  0  0  0  0  0  0  0  0  0  0  0
   35.4441   12.6347  -13.5403 C   0  0  0  0  0  0  0  0  0  0  0  0
   35.4534   13.2394  -12.2855 O   0  0  0  0  0  0  0  0  0  0  0  0
   34.2793   12.1138  -14.0612 C   0  0  0  0  0  0  0  0  0  0  0  0
   34.3122   11.5237  -15.3061 C   0  0  0  0  0  0  0  0  0  0  0  0
   35.4804   11.4359  -16.0545 C   0  0  0  0  0  0  0  0  0  0  0  0
   35.3838   10.8253  -17.2794 O   0  0  0  0  0  0  0  0  0  0  0  0
   36.6258   11.9589  -15.5198 C   0  0  0  0  0  0  0  0  0  0  0  0
   41.5709   11.3826  -19.1139 H   0  0  0  0  0  0  0  0  0  0  0  0
   34.5820   13.2897  -11.7587 H   0  0  0  0  0  0  0  0  0  0  0  0
   34.5676   10.4452  -17.6757 H   0  0  0  0  0  0  0  0  0  0  0  0
  1  2  1  0  0  0
  2  3  2  0  0  0
  3  4  1  0  0  0
  3  5  1  0  0  0
  5  6  2  0  0  0
  6  7  1  0  0  0
  7  8  2  0  0  0
  8  9  1  0  0  0
  9 10  1  0  0  0
 10 11  2  0  0  0
 10 12  1  0  0  0
 12 13  2  0  0  0
 13 14  1  0  0  0
 13 15  1  0  0  0
 15 16  2  0  0  0
 16 17  1  0  0  0
 17 18  1  0  0  0
 17 19  2  0  0  0
  8  2  1  0  0  0
 19 12  1  0  0  0
 19  7  1  0  0  0
  4 20  1  0  0  0
 14 21  1  0  0  0
 18 22  1  0  0  0
M  END
> <minimizedAffinity>
-9.62155

> <CNNscore>
0.8145882487

> <CNNaffinity>
5.8548836708

> <CNN_VS>
4.7693195343

> <CNNaffinity_variance>
0.1289331466

$$$$
[H]Oc1c([H])c([H])c2c(oc(=O)c3c(O[H])c([H])c([H])c(O[H])c32)c1C([H])([H])[H]


 22 24  0  0  0  0  0  0  0  0999 V2000
   35.0517   12.7107  -13.5210 C   0  0  0  0  0  0  0  0  0  0  0  0
   35.4352   12.0940  -14.8154 C   0  0  0  0  0  0  0  0  0  0  0  0
   34.4795   11.4479  -15.5620 C   0  0  0  0  0  0  0  0  0  0  0  0
   33.1506   11.3723  -15.1028 O   0  0  0  0  0  0  0  0  0  0  0  0
   34.8183   10.8757  -16.7555 C   0  0  0  0  0  0  0  0  0  0  0  0
   36.1493   10.9600  -17.1996 C   0  0  0  0  0  0  0  0  0  0  0  0
   37.1010   11.6018  -16.4589 C   0  0  0  0  0  0  0  0  0  0  0  0
   36.7474   12.1911  -15.2279 C   0  0  0  0  0  0  0  0  0  0  0  0
   37.6469   12.8111  -14.5037 O   0  0  0  0  0  0  0  0  0  0  0  0
   38.8885   12.9085  -14.8837 C   0  0  0  0  0  0  0  0  0  0  0  0
   39.7124   13.5086  -14.1618 O   0  0  0  0  0  0  0  0  0  0  0  0
   39.3115   12.3582  -16.0751 C   0  0  0  0  0  0  0  0  0  0  0  0
   40.6368   12.4665  -16.4730 C   0  0  0  0  0  0  0  0  0  0  0  0
   41.5326   13.1415  -15.6471 O   0  0  0  0  0  0  0  0  0  0  0  0
   41.0570   11.9156  -17.6644 C   0  0  0  0  0  0  0  0  0  0  0  0
   40.1395   11.2558  -18.4531 C   0  0  0  0  0  0  0  0  0  0  0  0
   38.8045   11.1270  -18.0879 C   0  0  0  0  0  0  0  0  0  0  0  0
   37.9897   10.4477  -18.9582 O   0  0  0  0  0  0  0  0  0  0  0  0
   38.4074   11.6809  -16.9018 C   0  0  0  0  0  0  0  0  0  0  0  0
   32.4493   10.9073  -15.6342 H   0  0  0  0  0  0  0  0  0  0  0  0
   42.5059   13.2207  -15.9401 H   0  0  0  0  0  0  0  0  0  0  0  0
   38.2616   10.0449  -19.8134 H   0  0  0  0  0  0  0  0  0  0  0  0
  1  2  1  0  0  0
  2  3  2  0  0  0
  3  4  1  0  0  0
  3  5  1  0  0  0
  5  6  2  0  0  0
  6  7  1  0  0  0
  7  8  2  0  0  0
  8  9  1  0  0  0
  9 10  1  0  0  0
 10 11  2  0  0  0
 10 12  1  0  0  0
 12 13  2  0  0  0
 13 14  1  0  0  0
 13 15  1  0  0  0
 15 16  2  0  0  0
 16 17  1  0  0  0
 17 18  1  0  0  0
 17 19  2  0  0  0
  8  2  1  0  0  0
 19 12  1  0  0  0
 19  7  1  0  0  0
  4 20  1  0  0  0
 14 21  1  0  0  0
 18 22  1  0  0  0
M  END
> <minimizedAffinity>
-9.69629

> <CNNscore>
0.8005706072

> <CNNaffinity>
5.9012889862

> <CNN_VS>
4.7243986130

> <CNNaffinity_variance>
0.0714977160

$$$$
[H]Oc1c([H])c([H])c2c(oc(=O)c3c(O[H])c([H])c([H])c(O[H])c32)c1C([H])([H])[H]


 22 24  0  0  0  0  0  0  0  0999 V2000
   36.9461   10.5998  -18.2267 C   0  0  0  0  0  0  0  0  0  0  0  0
   37.2333   11.3758  -16.9945 C   0  0  0  0  0  0  0  0  0  0  0  0
   36.2059   11.6730  -16.1319 C   0  0  0  0  0  0  0  0  0  0  0  0
   34.8946   11.2453  -16.4150 O   0  0  0  0  0  0  0  0  0  0  0  0
   36.4558   12.3866  -14.9939 C   0  0  0  0  0  0  0  0  0  0  0  0
   37.7703   12.8061  -14.7260 C   0  0  0  0  0  0  0  0  0  0  0  0
   38.7933   12.5118  -15.5822 C   0  0  0  0  0  0  0  0  0  0  0  0
   38.5314   11.7752  -16.7555 C   0  0  0  0  0  0  0  0  0  0  0  0
   39.5002   11.4833  -17.5887 O   0  0  0  0  0  0  0  0  0  0  0  0
   40.7292   11.8555  -17.3727 C   0  0  0  0  0  0  0  0  0  0  0  0
   41.6211   11.5552  -18.1939 O   0  0  0  0  0  0  0  0  0  0  0  0
   41.0646   12.5787  -16.2477 C   0  0  0  0  0  0  0  0  0  0  0  0
   42.3770   12.9715  -16.0248 C   0  0  0  0  0  0  0  0  0  0  0  0
   43.3500   12.6220  -16.9583 O   0  0  0  0  0  0  0  0  0  0  0  0
   42.7096   13.6943  -14.8994 C   0  0  0  0  0  0  0  0  0  0  0  0
   41.7175   14.0200  -14.0000 C   0  0  0  0  0  0  0  0  0  0  0  0
   40.3926   13.6443  -14.1893 C   0  0  0  0  0  0  0  0  0  0  0  0
   39.4983   14.0289  -13.2223 O   0  0  0  0  0  0  0  0  0  0  0  0
   40.0831   12.9273  -15.3124 C   0  0  0  0  0  0  0  0  0  0  0  0
   34.1419   11.4541  -15.7983 H   0  0  0  0  0  0  0  0  0  0  0  0
   44.3138   12.9109  -16.7938 H   0  0  0  0  0  0  0  0  0  0  0  0
   39.7070   14.5439  -12.4107 H   0  0  0  0  0  0  0  0  0  0  0  0
  1  2  1  0  0  0
  2  3  2  0  0  0
  3  4  1  0  0  0
  3  5  1  0  0  0
  5  6  2  0  0  0
  6  7  1  0  0  0
  7  8  2  0  0  0
  8  9  1  0  0  0
  9 10  1  0  0  0
 10 11  2  0  0  0
 10 12  1  0  0  0
 12 13  2  0  0  0
 13 14  1  0  0  0
 13 15  1  0  0  0
 15 16  2  0  0  0
 16 17  1  0  0  0
 17 18  1  0  0  0
 17 19  2  0  0  0
  8  2  1  0  0  0
 19 12  1  0  0  0
 19  7  1  0  0  0
  4 20  1  0  0  0
 14 21  1  0  0  0
 18 22  1  0  0  0
M  END
> <minimizedAffinity>
-8.92028

> <CNNscore>
0.7626671195

> <CNNaffinity>
5.5564298630

> <CNN_VS>
4.2377061844

> <CNNaffinity_variance>
0.0723640621

$$$$
[H]Oc1c([H])c([H])c2c(oc(=O)c3c(O[H])c([H])c([H])c(O[H])c32)c1C([H])([H])[H]


 22 24  0  0  0  0  0  0  0  0999 V2000
   34.1331   12.5382  -14.1910 C   0  0  0  0  0  0  0  0  0  0  0  0
   35.1495   12.1097  -15.1841 C   0  0  0  0  0  0  0  0  0  0  0  0
   34.7626   11.3354  -16.2513 C   0  0  0  0  0  0  0  0  0  0  0  0
   33.4157   10.9531  -16.4001 O   0  0  0  0  0  0  0  0  0  0  0  0
   35.6875   10.9338  -17.1732 C   0  0  0  0  0  0  0  0  0  0  0  0
   37.0280   11.3241  -17.0101 C   0  0  0  0  0  0  0  0  0  0  0  0
   37.4149   12.0937  -15.9498 C   0  0  0  0  0  0  0  0  0  0  0  0
   36.4574   12.5062  -15.0006 C   0  0  0  0  0  0  0  0  0  0  0  0
   36.8099   13.2450  -13.9770 O   0  0  0  0  0  0  0  0  0  0  0  0
   38.0420   13.6249  -13.7943 C   0  0  0  0  0  0  0  0  0  0  0  0
   38.3332   14.3287  -12.8044 O   0  0  0  0  0  0  0  0  0  0  0  0
   39.0354   13.2619  -14.6789 C   0  0  0  0  0  0  0  0  0  0  0  0
   40.3462   13.6710  -14.4770 C   0  0  0  0  0  0  0  0  0  0  0  0
   40.6408   14.4553  -13.3641 O   0  0  0  0  0  0  0  0  0  0  0  0
   41.3373   13.3069  -15.3628 C   0  0  0  0  0  0  0  0  0  0  0  0
   41.0047   12.5302  -16.4515 C   0  0  0  0  0  0  0  0  0  0  0  0
   39.7035   12.1015  -16.6867 C   0  0  0  0  0  0  0  0  0  0  0  0
   39.4998   11.3329  -17.8050 O   0  0  0  0  0  0  0  0  0  0  0  0
   38.7343   12.4736  -15.7959 C   0  0  0  0  0  0  0  0  0  0  0  0
   33.1228   10.3926  -17.1685 H   0  0  0  0  0  0  0  0  0  0  0  0
   41.6038   14.7555  -13.2166 H   0  0  0  0  0  0  0  0  0  0  0  0
   40.1867   11.0583  -18.4534 H   0  0  0  0  0  0  0  0  0  0  0  0
  1  2  1  0  0  0
  2  3  2  0  0  0
  3  4  1  0  0  0
  3  5  1  0  0  0
  5  6  2  0  0  0
  6  7  1  0  0  0
  7  8  2  0  0  0
  8  9  1  0  0  0
  9 10  1  0  0  0
 10 11  2  0  0  0
 10 12  1  0  0  0
 12 13  2  0  0  0
 13 14  1  0  0  0
 13 15  1  0  0  0
 15 16  2  0  0  0
 16 17  1  0  0  0
 17 18  1  0  0  0
 17 19  2  0  0  0
  8  2  1  0  0  0
 19 12  1  0  0  0
 19  7  1  0  0  0
  4 20  1  0  0  0
 14 21  1  0  0  0
 18 22  1  0  0  0
M  END
> <minimizedAffinity>
-9.30369

> <CNNscore>
0.7596673965

> <CNNaffinity>
5.8674860001

> <CNN_VS>
4.4573378563

> <CNNaffinity_variance>
0.0962741151

$$$$
[H]Oc1c([H])c([H])c2c(oc(=O)c3c(O[H])c([H])c([H])c(O[H])c32)c1C([H])([H])[H]


 22 24  0  0  0  0  0  0  0  0999 V2000
   40.5802   11.7364  -18.0392 C   0  0  0  0  0  0  0  0  0  0  0  0
   39.1710   11.5592  -17.6085 C   0  0  0  0  0  0  0  0  0  0  0  0
   38.3006   10.8727  -18.4204 C   0  0  0  0  0  0  0  0  0  0  0  0
   38.7422   10.3434  -19.6482 O   0  0  0  0  0  0  0  0  0  0  0  0
   37.0005   10.7021  -18.0365 C   0  0  0  0  0  0  0  0  0  0  0  0
   36.5757   11.2368  -16.8079 C   0  0  0  0  0  0  0  0  0  0  0  0
   37.4393   11.9196  -15.9991 C   0  0  0  0  0  0  0  0  0  0  0  0
   38.7801   12.0936  -16.3988 C   0  0  0  0  0  0  0  0  0  0  0  0
   39.6231   12.7458  -15.6359 O   0  0  0  0  0  0  0  0  0  0  0  0
   39.2645   13.2544  -14.4921 C   0  0  0  0  0  0  0  0  0  0  0  0
   40.1013   13.8684  -13.7972 O   0  0  0  0  0  0  0  0  0  0  0  0
   37.9709   13.1261  -14.0325 C   0  0  0  0  0  0  0  0  0  0  0  0
   37.5967   13.6710  -12.8121 C   0  0  0  0  0  0  0  0  0  0  0  0
   38.5517   14.3503  -12.0591 O   0  0  0  0  0  0  0  0  0  0  0  0
   36.3030   13.5414  -12.3549 C   0  0  0  0  0  0  0  0  0  0  0  0
   35.3880   12.8619  -13.1297 C   0  0  0  0  0  0  0  0  0  0  0  0
   35.7256   12.3028  -14.3568 C   0  0  0  0  0  0  0  0  0  0  0  0
   34.7257   11.6511  -15.0338 O   0  0  0  0  0  0  0  0  0  0  0  0
   37.0147   12.4424  -14.7927 C   0  0  0  0  0  0  0  0  0  0  0  0
   38.1217    9.8443  -20.2451 H   0  0  0  0  0  0  0  0  0  0  0  0
   38.2762   14.7503  -11.1628 H   0  0  0  0  0  0  0  0  0  0  0  0
   33.7955   11.5433  -14.7323 H   0  0  0  0  0  0  0  0  0  0  0  0
  1  2  1  0  0  0
  2  3  2  0  0  0
  3  4  1  0  0  0
  3  5  1  0  0  0
  5  6  2  0  0  0
  6  7  1  0  0  0
  7  8  2  0  0  0
  8  9  1  0  0  0
  9 10  1  0  0  0
 10 11  2  0  0  0
 10 12  1  0  0  0
 12 13  2  0  0  0
 13 14  1  0  0  0
 13 15  1  0  0  0
 15 16  2  0  0  0
 16 17  1  0  0  0
 17 18  1  0  0  0
 17 19  2  0  0  0
  8  2  1  0  0  0
 19 12  1  0  0  0
 19  7  1  0  0  0
  4 20  1  0  0  0
 14 21  1  0  0  0
 18 22  1  0  0  0
M  END
> <minimizedAffinity>
-9.03991

> <CNNscore>
0.7509806752

> <CNNaffinity>
5.8095188141

> <CNN_VS>
4.3628363609

> <CNNaffinity_variance>
0.1285471022

$$$$
[H]Oc1c([H])c([H])c2c(oc(=O)c3c(O[H])c([H])c([H])c(O[H])c32)c1C([H])([H])[H]


 22 24  0  0  0  0  0  0  0  0999 V2000
   37.3906   10.3666  -18.1401 C   0  0  0  0  0  0  0  0  0  0  0  0
   37.8815   11.2843  -17.0819 C   0  0  0  0  0  0  0  0  0  0  0  0
   39.2290   11.5331  -16.9792 C   0  0  0  0  0  0  0  0  0  0  0  0
   40.1337   10.9229  -17.8690 O   0  0  0  0  0  0  0  0  0  0  0  0
   39.6950   12.3757  -16.0099 C   0  0  0  0  0  0  0  0  0  0  0  0
   38.7786   12.9766  -15.1296 C   0  0  0  0  0  0  0  0  0  0  0  0
   37.4385   12.7308  -15.2299 C   0  0  0  0  0  0  0  0  0  0  0  0
   36.9616   11.8606  -16.2314 C   0  0  0  0  0  0  0  0  0  0  0  0
   35.6794   11.6128  -16.3430 O   0  0  0  0  0  0  0  0  0  0  0  0
   34.8024   12.1515  -15.5453 C   0  0  0  0  0  0  0  0  0  0  0  0
   33.5901   11.8871  -15.6880 O   0  0  0  0  0  0  0  0  0  0  0  0
   35.1909   13.0129  -14.5412 C   0  0  0  0  0  0  0  0  0  0  0  0
   34.2498   13.5830  -13.6952 C   0  0  0  0  0  0  0  0  0  0  0  0
   32.9050   13.2694  -13.8785 O   0  0  0  0  0  0  0  0  0  0  0  0
   34.6407   14.4438  -12.6923 C   0  0  0  0  0  0  0  0  0  0  0  0
   35.9809   14.7284  -12.5441 C   0  0  0  0  0  0  0  0  0  0  0  0
   36.9520   14.1769  -13.3717 C   0  0  0  0  0  0  0  0  0  0  0  0
   38.2522   14.5382  -13.1230 O   0  0  0  0  0  0  0  0  0  0  0  0
   36.5436   13.3251  -14.3611 C   0  0  0  0  0  0  0  0  0  0  0  0
   41.1119   11.0949  -17.8050 H   0  0  0  0  0  0  0  0  0  0  0  0
   32.2144   13.6886  -13.2567 H   0  0  0  0  0  0  0  0  0  0  0  0
   38.5596   15.1490  -12.4159 H   0  0  0  0  0  0  0  0  0  0  0  0
  1  2  1  0  0  0
  2  3  2  0  0  0
  3  4  1  0  0  0
  3  5  1  0  0  0
  5  6  2  0  0  0
  6  7  1  0  0  0
  7  8  2  0  0  0
  8  9  1  0  0  0
  9 10  1  0  0  0
 10 11  2  0  0  0
 10 12  1  0  0  0
 12 13  2  0  0  0
 13 14  1  0  0  0
 13 15  1  0  0  0
 15 16  2  0  0  0
 16 17  1  0  0  0
 17 18  1  0  0  0
 17 19  2  0  0  0
  8  2  1  0  0  0
 19 12  1  0  0  0
 19  7  1  0  0  0
  4 20  1  0  0  0
 14 21  1  0  0  0
 18 22  1  0  0  0
M  END
> <minimizedAffinity>
-8.96355

> <CNNscore>
0.7198051810

> <CNNaffinity>
5.8009147644

> <CNN_VS>
4.1755285263

> <CNNaffinity_variance>
0.0760655552

$$$$
[H]Oc1c([H])c([H])c2c(C(=O)C(=O)N([H])[H])c(C([H])([H])C([H])(C([H])([H])[H])C([H])([H])[H])n(C([H])([H])c3c([H])c([H])c(Cl)c([H])c3[H])c2c1N1C([H])([H])C([H])([H])C([H])([H])C([H])([H])C1([H])[H]


 36 39  0  0  0  0  0  0  0  0999 V2000
   41.1871   14.2393  -14.5211 C   0  0  0  0  0  0  0  0  0  0  0  0
   41.2614   13.2339  -15.4341 C   0  0  0  0  0  0  0  0  0  0  0  0
   42.6084   12.9438  -15.6017 C   0  0  0  0  0  0  0  0  0  0  0  0
   43.2030   12.0089  -16.4200 C   0  0  0  0  0  0  0  0  0  0  0  0
   44.5679   11.8773  -16.4560 C   0  0  0  0  0  0  0  0  0  0  0  0
   45.2912   12.7162  -15.6471 C   0  0  0  0  0  0  0  0  0  0  0  0
   46.6727   12.5941  -15.6754 O   0  0  0  0  0  0  0  0  0  0  0  0
   44.6814   13.6672  -14.8152 C   0  0  0  0  0  0  0  0  0  0  0  0
   43.3306   13.8036  -14.7660 C   0  0  0  0  0  0  0  0  0  0  0  0
   42.4593   14.5846  -14.1095 N   0  0  0  0  0  0  0  0  0  0  0  0
   47.1266   11.9176  -16.2648 H   0  0  0  0  0  0  0  0  0  0  0  0
   45.5594   14.4977  -14.1244 N   0  0  0  0  0  0  0  0  0  0  0  0
   46.1880   14.0963  -12.8468 C   0  0  0  0  0  0  0  0  0  0  0  0
   47.0989   15.1558  -12.3315 C   0  0  0  0  0  0  0  0  0  0  0  0
   46.4198   16.5021  -12.2005 C   0  0  0  0  0  0  0  0  0  0  0  0
   45.7507   16.8730  -13.4883 C   0  0  0  0  0  0  0  0  0  0  0  0
   45.8721   15.8229  -14.5616 C   0  0  0  0  0  0  0  0  0  0  0  0
   40.2380   12.5001  -16.1583 C   0  0  0  0  0  0  0  0  0  0  0  0
   39.3663   11.8406  -15.5669 O   0  0  0  0  0  0  0  0  0  0  0  0
   40.1950   12.5100  -17.6184 C   0  0  0  0  0  0  0  0  0  0  0  0
   40.3902   13.6662  -18.4048 N   0  0  0  0  0  0  0  0  0  0  0  0
   39.9714   11.4257  -18.2003 O   0  0  0  0  0  0  0  0  0  0  0  0
   40.0133   14.5828  -18.0976 H   0  0  0  0  0  0  0  0  0  0  0  0
   40.9104   13.6263  -19.3003 H   0  0  0  0  0  0  0  0  0  0  0  0
   39.9975   14.9071  -14.0152 C   0  0  0  0  0  0  0  0  0  0  0  0
   38.8860   15.4408  -11.7799 C   0  0  0  0  0  0  0  0  0  0  0  0
   39.3279   14.4252  -12.7794 C   0  0  0  0  0  0  0  0  0  0  0  0
   37.9937   13.7867  -13.2671 C   0  0  0  0  0  0  0  0  0  0  0  0
   42.7181   15.5764  -13.1573 C   0  0  0  0  0  0  0  0  0  0  0  0
   42.8391   15.0669  -11.7488 C   0  0  0  0  0  0  0  0  0  0  0  0
   42.3645   15.8386  -10.7055 C   0  0  0  0  0  0  0  0  0  0  0  0
   42.3948   15.4449   -9.3841 C   0  0  0  0  0  0  0  0  0  0  0  0
   42.9292   14.2119   -9.0879 C   0  0  0  0  0  0  0  0  0  0  0  0
   42.9976   13.6500   -7.4220 Cl  0  0  0  0  0  0  0  0  0  0  0  0
   43.4223   13.3933  -10.1030 C   0  0  0  0  0  0  0  0  0  0  0  0
   43.3562   13.8560  -11.3919 C   0  0  0  0  0  0  0  0  0  0  0  0
 26 27  1  0  0  0
 27 28  1  0  0  0
 27 25  1  0  0  0
 25  1  1  0  0  0
  1  2  2  0  0  0
  2 18  1  0  0  0
 18 19  2  0  0  0
 18 20  1  0  0  0
 20 21  1  0  0  0
 20 22  2  0  0  0
  2  3  1  0  0  0
  3  4  2  0  0  0
  4  5  1  0  0  0
  5  6  2  0  0  0
  6  7  1  0  0  0
  6  8  1  0  0  0
  8  9  2  0  0  0
  9 10  1  0  0  0
 10 29  1  0  0  0
 29 30  1  0  0  0
 30 31  2  0  0  0
 31 32  1  0  0  0
 32 33  2  0  0  0
 33 34  1  0  0  0
 33 35  1  0  0  0
 35 36  2  0  0  0
  8 12  1  0  0  0
 12 13  1  0  0  0
 13 14  1  0  0  0
 14 15  1  0  0  0
 15 16  1  0  0  0
 16 17  1  0  0  0
 10  1  1  0  0  0
 36 30  1  0  0  0
 17 12  1  0  0  0
  9  3  1  0  0  0
 21 23  1  0  0  0
 21 24  1  0  0  0
  7 11  1  0  0  0
M  END
> <minimizedAffinity>
-6.51538

> <CNNscore>
0.2131852806

> <CNNaffinity>
6.2297172546

> <CNN_VS>
1.3280839920

> <CNNaffinity_variance>
0.1299582720

$$$$
[H]Oc1c([H])c([H])c2c(C(=O)C(=O)N([H])[H])c(C([H])([H])C([H])(C([H])([H])[H])C([H])([H])[H])n(C([H])([H])c3c([H])c([H])c(Cl)c([H])c3[H])c2c1N1C([H])([H])C([H])([H])C([H])([H])C([H])([H])C1([H])[H]


 36 39  0  0  0  0  0  0  0  0999 V2000
   41.3595   14.3912  -14.2381 C   0  0  0  0  0  0  0  0  0  0  0  0
   41.4510   13.6796  -15.3937 C   0  0  0  0  0  0  0  0  0  0  0  0
   42.7408   13.1696  -15.4488 C   0  0  0  0  0  0  0  0  0  0  0  0
   43.3283   12.3891  -16.4200 C   0  0  0  0  0  0  0  0  0  0  0  0
   44.6346   11.9883  -16.3004 C   0  0  0  0  0  0  0  0  0  0  0  0
   45.3085   12.4040  -15.1804 C   0  0  0  0  0  0  0  0  0  0  0  0
   46.6310   12.0066  -15.0484 O   0  0  0  0  0  0  0  0  0  0  0  0
   44.7063   13.1991  -14.1938 C   0  0  0  0  0  0  0  0  0  0  0  0
   43.4117   13.5978  -14.2975 C   0  0  0  0  0  0  0  0  0  0  0  0
   42.5640   14.3360  -13.5649 N   0  0  0  0  0  0  0  0  0  0  0  0
   47.0783   11.4361  -15.7452 H   0  0  0  0  0  0  0  0  0  0  0  0
   45.5518   13.6065  -13.1657 N   0  0  0  0  0  0  0  0  0  0  0  0
   46.6337   14.5935  -13.3754 C   0  0  0  0  0  0  0  0  0  0  0  0
   47.3720   14.8688  -12.1118 C   0  0  0  0  0  0  0  0  0  0  0  0
   47.9053   13.6129  -11.4569 C   0  0  0  0  0  0  0  0  0  0  0  0
   46.8074   12.6073  -11.2926 C   0  0  0  0  0  0  0  0  0  0  0  0
   45.4811   13.0585  -11.8467 C   0  0  0  0  0  0  0  0  0  0  0  0
   40.4869   13.4027  -16.4444 C   0  0  0  0  0  0  0  0  0  0  0  0
   40.2697   14.2136  -17.3608 O   0  0  0  0  0  0  0  0  0  0  0  0
   39.7316   12.1525  -16.4632 C   0  0  0  0  0  0  0  0  0  0  0  0
   39.6706   11.2852  -17.5756 N   0  0  0  0  0  0  0  0  0  0  0  0
   39.1035   11.8377  -15.4284 O   0  0  0  0  0  0  0  0  0  0  0  0
   39.6242   11.6662  -18.5396 H   0  0  0  0  0  0  0  0  0  0  0  0
   39.6706   10.2557  -17.4558 H   0  0  0  0  0  0  0  0  0  0  0  0
   40.2156   15.1309  -13.7269 C   0  0  0  0  0  0  0  0  0  0  0  0
   38.5386   14.9669  -11.8092 C   0  0  0  0  0  0  0  0  0  0  0  0
   39.0795   14.4186  -13.0869 C   0  0  0  0  0  0  0  0  0  0  0  0
   37.8932   14.5750  -14.0838 C   0  0  0  0  0  0  0  0  0  0  0  0
   42.7848   14.9540  -12.3293 C   0  0  0  0  0  0  0  0  0  0  0  0
   43.7092   16.1374  -12.3844 C   0  0  0  0  0  0  0  0  0  0  0  0
   44.3743   16.5321  -11.2394 C   0  0  0  0  0  0  0  0  0  0  0  0
   45.2703   17.5796  -11.1950 C   0  0  0  0  0  0  0  0  0  0  0  0
   45.5156   18.2719  -12.3586 C   0  0  0  0  0  0  0  0  0  0  0  0
   46.6477   19.6187  -12.3698 Cl  0  0  0  0  0  0  0  0  0  0  0  0
   44.8710   17.9149  -13.5422 C   0  0  0  0  0  0  0  0  0  0  0  0
   43.9941   16.8616  -13.5049 C   0  0  0  0  0  0  0  0  0  0  0  0
 26 27  1  0  0  0
 27 28  1  0  0  0
 27 25  1  0  0  0
 25  1  1  0  0  0
  1  2  2  0  0  0
  2 18  1  0  0  0
 18 19  2  0  0  0
 18 20  1  0  0  0
 20 21  1  0  0  0
 20 22  2  0  0  0
  2  3  1  0  0  0
  3  4  2  0  0  0
  4  5  1  0  0  0
  5  6  2  0  0  0
  6  7  1  0  0  0
  6  8  1  0  0  0
  8  9  2  0  0  0
  9 10  1  0  0  0
 10 29  1  0  0  0
 29 30  1  0  0  0
 30 31  2  0  0  0
 31 32  1  0  0  0
 32 33  2  0  0  0
 33 34  1  0  0  0
 33 35  1  0  0  0
 35 36  2  0  0  0
  8 12  1  0  0  0
 12 13  1  0  0  0
 13 14  1  0  0  0
 14 15  1  0  0  0
 15 16  1  0  0  0
 16 17  1  0  0  0
 10  1  1  0  0  0
 36 30  1  0  0  0
 17 12  1  0  0  0
  9  3  1  0  0  0
 21 23  1  0  0  0
 21 24  1  0  0  0
  7 11  1  0  0  0
M  END
> <minimizedAffinity>
-6.28501

> <CNNscore>
0.1811801791

> <CNNaffinity>
6.4109621048

> <CNN_VS>
1.1615393162

> <CNNaffinity_variance>
0.0456549935

$$$$
[H]Oc1c([H])c([H])c2c(C(=O)C(=O)N([H])[H])c(C([H])([H])C([H])(C([H])([H])[H])C([H])([H])[H])n(C([H])([H])c3c([H])c([H])c(Cl)c([H])c3[H])c2c1N1C([H])([H])C([H])([H])C([H])([H])C([H])([H])C1([H])[H]


 36 39  0  0  0  0  0  0  0  0999 V2000
   42.2999   13.9606  -13.7942 C   0  0  0  0  0  0  0  0  0  0  0  0
   42.1301   13.3207  -14.9823 C   0  0  0  0  0  0  0  0  0  0  0  0
   43.3962   13.1247  -15.5163 C   0  0  0  0  0  0  0  0  0  0  0  0
   43.7583   12.5278  -16.7037 C   0  0  0  0  0  0  0  0  0  0  0  0
   45.0776   12.4372  -17.0678 C   0  0  0  0  0  0  0  0  0  0  0  0
   45.9965   12.9675  -16.1985 C   0  0  0  0  0  0  0  0  0  0  0  0
   47.3342   12.8836  -16.5560 O   0  0  0  0  0  0  0  0  0  0  0  0
   45.6233   13.5749  -14.9902 C   0  0  0  0  0  0  0  0  0  0  0  0
   44.3207   13.6657  -14.6152 C   0  0  0  0  0  0  0  0  0  0  0  0
   43.6466   14.1677  -13.5694 N   0  0  0  0  0  0  0  0  0  0  0  0
   47.6198   12.4511  -17.4176 H   0  0  0  0  0  0  0  0  0  0  0  0
   46.6688   14.1393  -14.2648 N   0  0  0  0  0  0  0  0  0  0  0  0
   47.4456   13.3703  -13.2679 C   0  0  0  0  0  0  0  0  0  0  0  0
   48.5176   14.2017  -12.6537 C   0  0  0  0  0  0  0  0  0  0  0  0
   47.9930   15.4887  -12.0546 C   0  0  0  0  0  0  0  0  0  0  0  0
   47.1721   16.2332  -13.0623 C   0  0  0  0  0  0  0  0  0  0  0  0
   47.0315   15.5177  -14.3807 C   0  0  0  0  0  0  0  0  0  0  0  0
   40.9410   12.8563  -15.6758 C   0  0  0  0  0  0  0  0  0  0  0  0
   40.0990   12.1343  -15.1152 O   0  0  0  0  0  0  0  0  0  0  0  0
   40.6890   13.2230  -17.0671 C   0  0  0  0  0  0  0  0  0  0  0  0
   40.6207   12.2930  -18.1273 N   0  0  0  0  0  0  0  0  0  0  0  0
   40.5247   14.4352  -17.3278 O   0  0  0  0  0  0  0  0  0  0  0  0
   41.2597   11.4760  -18.1542 H   0  0  0  0  0  0  0  0  0  0  0  0
   39.9360   12.4043  -18.8973 H   0  0  0  0  0  0  0  0  0  0  0  0
   41.2778   14.4014  -12.8572 C   0  0  0  0  0  0  0  0  0  0  0  0
   38.8701   15.0052  -13.4534 C   0  0  0  0  0  0  0  0  0  0  0  0
   40.2849   15.4338  -13.2522 C   0  0  0  0  0  0  0  0  0  0  0  0
   40.2046   16.4019  -12.0348 C   0  0  0  0  0  0  0  0  0  0  0  0
   44.1493   14.7867  -12.4197 C   0  0  0  0  0  0  0  0  0  0  0  0
   44.6070   13.8333  -11.3521 C   0  0  0  0  0  0  0  0  0  0  0  0
   45.1157   14.3339  -10.1689 C   0  0  0  0  0  0  0  0  0  0  0  0
   45.5268   13.5443   -9.1155 C   0  0  0  0  0  0  0  0  0  0  0  0
   45.4246   12.1788   -9.2513 C   0  0  0  0  0  0  0  0  0  0  0  0
   45.9318   11.1154   -7.9446 Cl  0  0  0  0  0  0  0  0  0  0  0  0
   44.9182   11.6215  -10.4247 C   0  0  0  0  0  0  0  0  0  0  0  0
   44.5304   12.4733  -11.4265 C   0  0  0  0  0  0  0  0  0  0  0  0
 26 27  1  0  0  0
 27 28  1  0  0  0
 27 25  1  0  0  0
 25  1  1  0  0  0
  1  2  2  0  0  0
  2 18  1  0  0  0
 18 19  2  0  0  0
 18 20  1  0  0  0
 20 21  1  0  0  0
 20 22  2  0  0  0
  2  3  1  0  0  0
  3  4  2  0  0  0
  4  5  1  0  0  0
  5  6  2  0  0  0
  6  7  1  0  0  0
  6  8  1  0  0  0
  8  9  2  0  0  0
  9 10  1  0  0  0
 10 29  1  0  0  0
 29 30  1  0  0  0
 30 31  2  0  0  0
 31 32  1  0  0  0
 32 33  2  0  0  0
 33 34  1  0  0  0
 33 35  1  0  0  0
 35 36  2  0  0  0
  8 12  1  0  0  0
 12 13  1  0  0  0
 13 14  1  0  0  0
 14 15  1  0  0  0
 15 16  1  0  0  0
 16 17  1  0  0  0
 10  1  1  0  0  0
 36 30  1  0  0  0
 17 12  1  0  0  0
  9  3  1  0  0  0
 21 23  1  0  0  0
 21 24  1  0  0  0
  7 11  1  0  0  0
M  END
> <minimizedAffinity>
-5.95173

> <CNNscore>
0.1811455041

> <CNNaffinity>
6.0817294121

> <CNN_VS>
1.1016778946

> <CNNaffinity_variance>
0.0268189572

$$$$
[H]Oc1c([H])c([H])c2c(C(=O)C(=O)N([H])[H])c(C([H])([H])C([H])(C([H])([H])[H])C([H])([H])[H])n(C([H])([H])c3c([H])c([H])c(Cl)c([H])c3[H])c2c1N1C([H])([H])C([H])([H])C([H])([H])C([H])([H])C1([H])[H]


 36 39  0  0  0  0  0  0  0  0999 V2000
   42.8827   13.2142  -14.6422 C   0  0  0  0  0  0  0  0  0  0  0  0
   41.5387   13.3462  -14.8046 C   0  0  0  0  0  0  0  0  0  0  0  0
   41.1072   14.2555  -13.8488 C   0  0  0  0  0  0  0  0  0  0  0  0
   39.8344   14.7196  -13.5997 C   0  0  0  0  0  0  0  0  0  0  0  0
   39.6026   15.6199  -12.5912 C   0  0  0  0  0  0  0  0  0  0  0  0
   40.6905   16.0209  -11.8585 C   0  0  0  0  0  0  0  0  0  0  0  0
   40.4692   16.9301  -10.8344 O   0  0  0  0  0  0  0  0  0  0  0  0
   41.9852   15.5454  -12.1154 C   0  0  0  0  0  0  0  0  0  0  0  0
   42.2290   14.6582  -13.1151 C   0  0  0  0  0  0  0  0  0  0  0  0
   43.3046   14.0242  -13.6063 N   0  0  0  0  0  0  0  0  0  0  0  0
   39.5482   17.2820  -10.6368 H   0  0  0  0  0  0  0  0  0  0  0  0
   42.9629   15.9834  -11.2266 N   0  0  0  0  0  0  0  0  0  0  0  0
   44.0257   16.9324  -11.6244 C   0  0  0  0  0  0  0  0  0  0  0  0
   44.9253   17.2529  -10.4817 C   0  0  0  0  0  0  0  0  0  0  0  0
   45.5166   16.0189   -9.8351 C   0  0  0  0  0  0  0  0  0  0  0  0
   44.4318   15.0493   -9.4792 C   0  0  0  0  0  0  0  0  0  0  0  0
   43.0532   15.5039   -9.8824 C   0  0  0  0  0  0  0  0  0  0  0  0
   40.6089   12.7448  -15.7449 C   0  0  0  0  0  0  0  0  0  0  0  0
   39.6709   12.0239  -15.3642 O   0  0  0  0  0  0  0  0  0  0  0  0
   40.7426   12.9664  -17.1825 C   0  0  0  0  0  0  0  0  0  0  0  0
   40.6467   14.2340  -17.7969 N   0  0  0  0  0  0  0  0  0  0  0  0
   40.9548   11.9690  -17.9068 O   0  0  0  0  0  0  0  0  0  0  0  0
   39.9588   14.9333  -17.4587 H   0  0  0  0  0  0  0  0  0  0  0  0
   41.2564   14.4932  -18.5939 H   0  0  0  0  0  0  0  0  0  0  0  0
   43.7991   12.3675  -15.3907 C   0  0  0  0  0  0  0  0  0  0  0  0
   46.1201   13.0920  -16.1684 C   0  0  0  0  0  0  0  0  0  0  0  0
   44.6633   12.9432  -16.4535 C   0  0  0  0  0  0  0  0  0  0  0  0
   44.6213   11.9045  -17.6132 C   0  0  0  0  0  0  0  0  0  0  0  0
   44.6407   14.1273  -13.2043 C   0  0  0  0  0  0  0  0  0  0  0  0
   45.1465   12.9461  -12.4251 C   0  0  0  0  0  0  0  0  0  0  0  0
   46.3955   12.4292  -12.7119 C   0  0  0  0  0  0  0  0  0  0  0  0
   46.9638   11.3733  -12.0305 C   0  0  0  0  0  0  0  0  0  0  0  0
   46.2448   10.8015  -11.0061 C   0  0  0  0  0  0  0  0  0  0  0  0
   46.9129    9.4511  -10.0973 Cl  0  0  0  0  0  0  0  0  0  0  0  0
   44.9794   11.2846  -10.6756 C   0  0  0  0  0  0  0  0  0  0  0  0
   44.4833   12.3376  -11.3999 C   0  0  0  0  0  0  0  0  0  0  0  0
 26 27  1  0  0  0
 27 28  1  0  0  0
 27 25  1  0  0  0
 25  1  1  0  0  0
  1  2  2  0  0  0
  2 18  1  0  0  0
 18 19  2  0  0  0
 18 20  1  0  0  0
 20 21  1  0  0  0
 20 22  2  0  0  0
  2  3  1  0  0  0
  3  4  2  0  0  0
  4  5  1  0  0  0
  5  6  2  0  0  0
  6  7  1  0  0  0
  6  8  1  0  0  0
  8  9  2  0  0  0
  9 10  1  0  0  0
 10 29  1  0  0  0
 29 30  1  0  0  0
 30 31  2  0  0  0
 31 32  1  0  0  0
 32 33  2  0  0  0
 33 34  1  0  0  0
 33 35  1  0  0  0
 35 36  2  0  0  0
  8 12  1  0  0  0
 12 13  1  0  0  0
 13 14  1  0  0  0
 14 15  1  0  0  0
 15 16  1  0  0  0
 16 17  1  0  0  0
 10  1  1  0  0  0
 36 30  1  0  0  0
 17 12  1  0  0  0
  9  3  1  0  0  0
 21 23  1  0  0  0
 21 24  1  0  0  0
  7 11  1  0  0  0
M  END
> <minimizedAffinity>
-6.39769

> <CNNscore>
0.1805675924

> <CNNaffinity>
5.8344078064

> <CNN_VS>
1.0535049438

> <CNNaffinity_variance>
0.3007698059

$$$$
[H]Oc1c([H])c([H])c2c(C(=O)C(=O)N([H])[H])c(C([H])([H])C([H])(C([H])([H])[H])C([H])([H])[H])n(C([H])([H])c3c([H])c([H])c(Cl)c([H])c3[H])c2c1N1C([H])([H])C([H])([H])C([H])([H])C([H])([H])C1([H])[H]


 36 39  0  0  0  0  0  0  0  0999 V2000
   39.6998   16.2462   -8.3695 C   0  0  0  0  0  0  0  0  0  0  0  0
   39.3927   16.6831   -9.6204 C   0  0  0  0  0  0  0  0  0  0  0  0
   40.4462   16.3116  -10.4443 C   0  0  0  0  0  0  0  0  0  0  0  0
   40.6144   16.5271  -11.7943 C   0  0  0  0  0  0  0  0  0  0  0  0
   41.7435   16.0883  -12.4378 C   0  0  0  0  0  0  0  0  0  0  0  0
   42.6774   15.4375  -11.6728 C   0  0  0  0  0  0  0  0  0  0  0  0
   43.8247   14.9901  -12.3115 O   0  0  0  0  0  0  0  0  0  0  0  0
   42.5022   15.2204  -10.2978 C   0  0  0  0  0  0  0  0  0  0  0  0
   41.3860   15.6446   -9.6499 C   0  0  0  0  0  0  0  0  0  0  0  0
   40.9229   15.6053   -8.3913 N   0  0  0  0  0  0  0  0  0  0  0  0
   43.9666   15.1363  -13.2962 H   0  0  0  0  0  0  0  0  0  0  0  0
   43.5808   14.6230   -9.6516 N   0  0  0  0  0  0  0  0  0  0  0  0
   44.7247   15.4051   -9.1337 C   0  0  0  0  0  0  0  0  0  0  0  0
   45.7276   14.5280   -8.4685 C   0  0  0  0  0  0  0  0  0  0  0  0
   46.2028   13.3991   -9.3575 C   0  0  0  0  0  0  0  0  0  0  0  0
   45.0319   12.6452   -9.9091 C   0  0  0  0  0  0  0  0  0  0  0  0
   43.6968   13.2064   -9.4942 C   0  0  0  0  0  0  0  0  0  0  0  0
   38.2378   17.3888  -10.1481 C   0  0  0  0  0  0  0  0  0  0  0  0
   38.2072   18.6292  -10.2184 O   0  0  0  0  0  0  0  0  0  0  0  0
   37.0613   16.6620  -10.6187 C   0  0  0  0  0  0  0  0  0  0  0  0
   36.2556   17.0820  -11.6994 N   0  0  0  0  0  0  0  0  0  0  0  0
   36.7551   15.6051  -10.0241 O   0  0  0  0  0  0  0  0  0  0  0  0
   36.0517   18.0888  -11.8452 H   0  0  0  0  0  0  0  0  0  0  0  0
   35.8523   16.3994  -12.3669 H   0  0  0  0  0  0  0  0  0  0  0  0
   38.9236   16.4000   -7.1486 C   0  0  0  0  0  0  0  0  0  0  0  0
   37.8063   18.6270   -6.5924 C   0  0  0  0  0  0  0  0  0  0  0  0
   38.9434   17.6813   -6.3964 C   0  0  0  0  0  0  0  0  0  0  0  0
   38.8246   17.2710   -4.8987 C   0  0  0  0  0  0  0  0  0  0  0  0
   41.5086   15.0252   -7.2608 C   0  0  0  0  0  0  0  0  0  0  0  0
   42.1812   16.0038   -6.3399 C   0  0  0  0  0  0  0  0  0  0  0  0
   42.2293   15.7369   -4.9851 C   0  0  0  0  0  0  0  0  0  0  0  0
   42.8544   16.5513   -4.0642 C   0  0  0  0  0  0  0  0  0  0  0  0
   43.4651   17.6964   -4.5216 C   0  0  0  0  0  0  0  0  0  0  0  0
   44.2801   18.7783   -3.3987 Cl  0  0  0  0  0  0  0  0  0  0  0  0
   43.4461   18.0131   -5.8793 C   0  0  0  0  0  0  0  0  0  0  0  0
   42.8042   17.1524   -6.7319 C   0  0  0  0  0  0  0  0  0  0  0  0
 26 27  1  0  0  0
 27 28  1  0  0  0
 27 25  1  0  0  0
 25  1  1  0  0  0
  1  2  2  0  0  0
  2 18  1  0  0  0
 18 19  2  0  0  0
 18 20  1  0  0  0
 20 21  1  0  0  0
 20 22  2  0  0  0
  2  3  1  0  0  0
  3  4  2  0  0  0
  4  5  1  0  0  0
  5  6  2  0  0  0
  6  7  1  0  0  0
  6  8  1  0  0  0
  8  9  2  0  0  0
  9 10  1  0  0  0
 10 29  1  0  0  0
 29 30  1  0  0  0
 30 31  2  0  0  0
 31 32  1  0  0  0
 32 33  2  0  0  0
 33 34  1  0  0  0
 33 35  1  0  0  0
 35 36  2  0  0  0
  8 12  1  0  0  0
 12 13  1  0  0  0
 13 14  1  0  0  0
 14 15  1  0  0  0
 15 16  1  0  0  0
 16 17  1  0  0  0
 10  1  1  0  0  0
 36 30  1  0  0  0
 17 12  1  0  0  0
  9  3  1  0  0  0
 21 23  1  0  0  0
 21 24  1  0  0  0
  7 11  1  0  0  0
M  END
> <minimizedAffinity>
-5.43650

> <CNNscore>
0.1478188336

> <CNNaffinity>
5.5844192505

> <CNN_VS>
0.8254823685

> <CNNaffinity_variance>
0.1136110425

$$$$
[H]Oc1c([H])c([H])c2c(C(=O)C(=O)N([H])[H])c(C([H])([H])C([H])(C([H])([H])[H])C([H])([H])[H])n(C([H])([H])c3c([H])c([H])c(Cl)c([H])c3[H])c2c1N1C([H])([H])C([H])([H])C([H])([H])C([H])([H])C1([H])[H]


 36 39  0  0  0  0  0  0  0  0999 V2000
   42.4479   15.7591   -9.5008 C   0  0  0  0  0  0  0  0  0  0  0  0
   41.0886   15.7128   -9.4932 C   0  0  0  0  0  0  0  0  0  0  0  0
   40.7225   14.8629   -8.4586 C   0  0  0  0  0  0  0  0  0  0  0  0
   39.4641   14.4840   -8.0461 C   0  0  0  0  0  0  0  0  0  0  0  0
   39.3035   13.6149   -6.9972 C   0  0  0  0  0  0  0  0  0  0  0  0
   40.4468   13.1528   -6.3968 C   0  0  0  0  0  0  0  0  0  0  0  0
   40.2980   12.2718   -5.3356 O   0  0  0  0  0  0  0  0  0  0  0  0
   41.7267   13.5411   -6.8204 C   0  0  0  0  0  0  0  0  0  0  0  0
   41.8993   14.4057   -7.8541 C   0  0  0  0  0  0  0  0  0  0  0  0
   42.9431   14.9584   -8.4904 N   0  0  0  0  0  0  0  0  0  0  0  0
   39.3885   11.9834   -5.0183 H   0  0  0  0  0  0  0  0  0  0  0  0
   42.7821   12.9148   -6.1632 N   0  0  0  0  0  0  0  0  0  0  0  0
   43.6245   13.6175   -5.1708 C   0  0  0  0  0  0  0  0  0  0  0  0
   44.6642   12.7153   -4.6027 C   0  0  0  0  0  0  0  0  0  0  0  0
   45.5165   12.0575   -5.6664 C   0  0  0  0  0  0  0  0  0  0  0  0
   44.6478   11.3890   -6.6872 C   0  0  0  0  0  0  0  0  0  0  0  0
   43.1722   11.5674   -6.4410 C   0  0  0  0  0  0  0  0  0  0  0  0
   40.0883   16.3699  -10.3166 C   0  0  0  0  0  0  0  0  0  0  0  0
   39.4095   17.3179   -9.8864 O   0  0  0  0  0  0  0  0  0  0  0  0
   39.8413   15.9381  -11.6900 C   0  0  0  0  0  0  0  0  0  0  0  0
   39.0617   14.8124  -12.0342 N   0  0  0  0  0  0  0  0  0  0  0  0
   40.3542   16.6105  -12.6115 O   0  0  0  0  0  0  0  0  0  0  0  0
   39.1017   13.9481  -11.4615 H   0  0  0  0  0  0  0  0  0  0  0  0
   38.4362   14.8234  -12.8605 H   0  0  0  0  0  0  0  0  0  0  0  0
   43.3164   16.4996  -10.4032 C   0  0  0  0  0  0  0  0  0  0  0  0
   43.0797   14.7533  -12.2501 C   0  0  0  0  0  0  0  0  0  0  0  0
   43.8684   15.8527  -11.6216 C   0  0  0  0  0  0  0  0  0  0  0  0
   43.8676   16.9703  -12.7064 C   0  0  0  0  0  0  0  0  0  0  0  0
   44.3087   14.8098   -8.2249 C   0  0  0  0  0  0  0  0  0  0  0  0
   45.0196   13.8594   -9.1466 C   0  0  0  0  0  0  0  0  0  0  0  0
   46.3702   14.0284   -9.3844 C   0  0  0  0  0  0  0  0  0  0  0  0
   47.1196   13.1898  -10.1827 C   0  0  0  0  0  0  0  0  0  0  0  0
   46.4848   12.1233  -10.7770 C   0  0  0  0  0  0  0  0  0  0  0  0
   47.3836   11.0158  -11.8073 Cl  0  0  0  0  0  0  0  0  0  0  0  0
   45.1231   11.9070  -10.5703 C   0  0  0  0  0  0  0  0  0  0  0  0
   44.4474   12.7853   -9.7629 C   0  0  0  0  0  0  0  0  0  0  0  0
 26 27  1  0  0  0
 27 28  1  0  0  0
 27 25  1  0  0  0
 25  1  1  0  0  0
  1  2  2  0  0  0
  2 18  1  0  0  0
 18 19  2  0  0  0
 18 20  1  0  0  0
 20 21  1  0  0  0
 20 22  2  0  0  0
  2  3  1  0  0  0
  3  4  2  0  0  0
  4  5  1  0  0  0
  5  6  2  0  0  0
  6  7  1  0  0  0
  6  8  1  0  0  0
  8  9  2  0  0  0
  9 10  1  0  0  0
 10 29  1  0  0  0
 29 30  1  0  0  0
 30 31  2  0  0  0
 31 32  1  0  0  0
 32 33  2  0  0  0
 33 34  1  0  0  0
 33 35  1  0  0  0
 35 36  2  0  0  0
  8 12  1  0  0  0
 12 13  1  0  0  0
 13 14  1  0  0  0
 14 15  1  0  0  0
 15 16  1  0  0  0
 16 17  1  0  0  0
 10  1  1  0  0  0
 36 30  1  0  0  0
 17 12  1  0  0  0
  9  3  1  0  0  0
 21 23  1  0  0  0
 21 24  1  0  0  0
  7 11  1  0  0  0
M  END
> <minimizedAffinity>
-5.72501

> <CNNscore>
0.1475471407

> <CNNaffinity>
5.2790288925

> <CNN_VS>
0.7789056301

> <CNNaffinity_variance>
0.4455042481

$$$$
[H]Oc1c([H])c([H])c2c(C(=O)C(=O)N([H])[H])c(C([H])([H])C([H])(C([H])([H])[H])C([H])([H])[H])n(C([H])([H])c3c([H])c([H])c(Cl)c([H])c3[H])c2c1N1C([H])([H])C([H])([H])C([H])([H])C([H])([H])C1([H])[H]


 36 39  0  0  0  0  0  0  0  0999 V2000
   46.0228   13.9692  -11.7389 C   0  0  0  0  0  0  0  0  0  0  0  0
   46.2318   12.9776  -12.6461 C   0  0  0  0  0  0  0  0  0  0  0  0
   46.5626   11.8384  -11.9253 C   0  0  0  0  0  0  0  0  0  0  0  0
   46.8702   10.5763  -12.3832 C   0  0  0  0  0  0  0  0  0  0  0  0
   47.1856    9.5708  -11.5053 C   0  0  0  0  0  0  0  0  0  0  0  0
   47.1791    9.8902  -10.1715 C   0  0  0  0  0  0  0  0  0  0  0  0
   47.4979    8.8823   -9.2733 O   0  0  0  0  0  0  0  0  0  0  0  0
   46.8654   11.1772   -9.7094 C   0  0  0  0  0  0  0  0  0  0  0  0
   46.5456   12.1802  -10.5681 C   0  0  0  0  0  0  0  0  0  0  0  0
   46.2124   13.4756  -10.4631 N   0  0  0  0  0  0  0  0  0  0  0  0
   47.7244    7.9541   -9.5867 H   0  0  0  0  0  0  0  0  0  0  0  0
   46.9894   11.3581   -8.3347 N   0  0  0  0  0  0  0  0  0  0  0  0
   45.8575   11.1530   -7.4045 C   0  0  0  0  0  0  0  0  0  0  0  0
   46.2639   11.3900   -5.9916 C   0  0  0  0  0  0  0  0  0  0  0  0
   46.8967   12.7487   -5.7819 C   0  0  0  0  0  0  0  0  0  0  0  0
   48.0112   12.9584   -6.7604 C   0  0  0  0  0  0  0  0  0  0  0  0
   48.1987   11.8150   -7.7233 C   0  0  0  0  0  0  0  0  0  0  0  0
   46.1485   12.9525  -14.0962 C   0  0  0  0  0  0  0  0  0  0  0  0
   45.1097   12.6065  -14.6841 O   0  0  0  0  0  0  0  0  0  0  0  0
   47.2902   13.3356  -14.9230 C   0  0  0  0  0  0  0  0  0  0  0  0
   47.5863   14.6664  -15.2902 N   0  0  0  0  0  0  0  0  0  0  0  0
   48.0469   12.4250  -15.3264 O   0  0  0  0  0  0  0  0  0  0  0  0
   46.8244   15.3313  -15.5223 H   0  0  0  0  0  0  0  0  0  0  0  0
   48.5640   15.0070  -15.3361 H   0  0  0  0  0  0  0  0  0  0  0  0
   45.6657   15.3569  -11.9913 C   0  0  0  0  0  0  0  0  0  0  0  0
   43.1447   15.0803  -12.2831 C   0  0  0  0  0  0  0  0  0  0  0  0
   44.4260   15.6948  -12.7375 C   0  0  0  0  0  0  0  0  0  0  0  0
   44.2098   17.2173  -12.4906 C   0  0  0  0  0  0  0  0  0  0  0  0
   46.0517   14.2471   -9.3071 C   0  0  0  0  0  0  0  0  0  0  0  0
   44.6220   14.5513   -8.9585 C   0  0  0  0  0  0  0  0  0  0  0  0
   44.2302   15.8655   -8.7894 C   0  0  0  0  0  0  0  0  0  0  0  0
   42.9364   16.2501   -8.5060 C   0  0  0  0  0  0  0  0  0  0  0  0
   41.9807   15.2676   -8.3841 C   0  0  0  0  0  0  0  0  0  0  0  0
   40.3116   15.6913   -8.0234 Cl  0  0  0  0  0  0  0  0  0  0  0  0
   42.3226   13.9256   -8.5452 C   0  0  0  0  0  0  0  0  0  0  0  0
   43.6303   13.6239   -8.8259 C   0  0  0  0  0  0  0  0  0  0  0  0
 26 27  1  0  0  0
 27 28  1  0  0  0
 27 25  1  0  0  0
 25  1  1  0  0  0
  1  2  2  0  0  0
  2 18  1  0  0  0
 18 19  2  0  0  0
 18 20  1  0  0  0
 20 21  1  0  0  0
 20 22  2  0  0  0
  2  3  1  0  0  0
  3  4  2  0  0  0
  4  5  1  0  0  0
  5  6  2  0  0  0
  6  7  1  0  0  0
  6  8  1  0  0  0
  8  9  2  0  0  0
  9 10  1  0  0  0
 10 29  1  0  0  0
 29 30  1  0  0  0
 30 31  2  0  0  0
 31 32  1  0  0  0
 32 33  2  0  0  0
 33 34  1  0  0  0
 33 35  1  0  0  0
 35 36  2  0  0  0
  8 12  1  0  0  0
 12 13  1  0  0  0
 13 14  1  0  0  0
 14 15  1  0  0  0
 15 16  1  0  0  0
 16 17  1  0  0  0
 10  1  1  0  0  0
 36 30  1  0  0  0
 17 12  1  0  0  0
  9  3  1  0  0  0
 21 23  1  0  0  0
 21 24  1  0  0  0
  7 11  1  0  0  0
M  END
> <minimizedAffinity>
-4.81375

> <CNNscore>
0.1279753298

> <CNNaffinity>
5.3428726196

> <CNN_VS>
0.6837558746

> <CNNaffinity_variance>
0.2093593180

$$$$
[H]Oc1c([H])c([H])c2c(C(=O)C(=O)N([H])[H])c(C([H])([H])C([H])(C([H])([H])[H])C([H])([H])[H])n(C([H])([H])c3c([H])c([H])c(Cl)c([H])c3[H])c2c1N1C([H])([H])C([H])([H])C([H])([H])C([H])([H])C1([H])[H]


 36 39  0  0  0  0  0  0  0  0999 V2000
   39.8106   16.2379   -8.3199 C   0  0  0  0  0  0  0  0  0  0  0  0
   39.4945   16.6387   -9.5806 C   0  0  0  0  0  0  0  0  0  0  0  0
   40.5428   16.2449  -10.4007 C   0  0  0  0  0  0  0  0  0  0  0  0
   40.7016   16.4221  -11.7575 C   0  0  0  0  0  0  0  0  0  0  0  0
   41.8268   15.9663  -12.3959 C   0  0  0  0  0  0  0  0  0  0  0  0
   42.7666   15.3383  -11.6190 C   0  0  0  0  0  0  0  0  0  0  0  0
   43.9101   14.8740  -12.2526 O   0  0  0  0  0  0  0  0  0  0  0  0
   42.6010   15.1603  -10.2373 C   0  0  0  0  0  0  0  0  0  0  0  0
   41.4888   15.6017   -9.5941 C   0  0  0  0  0  0  0  0  0  0  0  0
   41.0342   15.5978   -8.3318 N   0  0  0  0  0  0  0  0  0  0  0  0
   44.0450   14.9923  -13.2420 H   0  0  0  0  0  0  0  0  0  0  0  0
   43.6847   14.5825   -9.5818 N   0  0  0  0  0  0  0  0  0  0  0  0
   43.6976   13.1596   -9.1774 C   0  0  0  0  0  0  0  0  0  0  0  0
   44.9806   12.7929   -8.5163 C   0  0  0  0  0  0  0  0  0  0  0  0
   45.3161   13.6909   -7.3451 C   0  0  0  0  0  0  0  0  0  0  0  0
   45.2549   15.1289   -7.7599 C   0  0  0  0  0  0  0  0  0  0  0  0
   44.8395   15.3314   -9.1938 C   0  0  0  0  0  0  0  0  0  0  0  0
   38.3352   17.3281  -10.1202 C   0  0  0  0  0  0  0  0  0  0  0  0
   38.2666   18.5687  -10.1443 O   0  0  0  0  0  0  0  0  0  0  0  0
   37.1992   16.5838  -10.6581 C   0  0  0  0  0  0  0  0  0  0  0  0
   36.2674   17.1205  -11.5730 N   0  0  0  0  0  0  0  0  0  0  0  0
   37.0490   15.4006  -10.2814 O   0  0  0  0  0  0  0  0  0  0  0  0
   35.9548   18.1064  -11.4902 H   0  0  0  0  0  0  0  0  0  0  0  0
   35.8770   16.5464  -12.3425 H   0  0  0  0  0  0  0  0  0  0  0  0
   39.0425   16.4257   -7.0985 C   0  0  0  0  0  0  0  0  0  0  0  0
   38.0667   14.0761   -7.3084 C   0  0  0  0  0  0  0  0  0  0  0  0
   38.0129   15.4340   -6.6930 C   0  0  0  0  0  0  0  0  0  0  0  0
   38.2868   15.1633   -5.1840 C   0  0  0  0  0  0  0  0  0  0  0  0
   41.6283   15.0506   -7.1893 C   0  0  0  0  0  0  0  0  0  0  0  0
   42.1151   16.0678   -6.1961 C   0  0  0  0  0  0  0  0  0  0  0  0
   42.7868   17.1881   -6.6469 C   0  0  0  0  0  0  0  0  0  0  0  0
   43.2396   18.1954   -5.8208 C   0  0  0  0  0  0  0  0  0  0  0  0
   43.0092   18.0774   -4.4694 C   0  0  0  0  0  0  0  0  0  0  0  0
   43.5610   19.3277   -3.3612 Cl  0  0  0  0  0  0  0  0  0  0  0  0
   42.3360   16.9670   -3.9618 C   0  0  0  0  0  0  0  0  0  0  0  0
   41.9170   16.0082   -4.8477 C   0  0  0  0  0  0  0  0  0  0  0  0
 26 27  1  0  0  0
 27 28  1  0  0  0
 27 25  1  0  0  0
 25  1  1  0  0  0
  1  2  2  0  0  0
  2 18  1  0  0  0
 18 19  2  0  0  0
 18 20  1  0  0  0
 20 21  1  0  0  0
 20 22  2  0  0  0
  2  3  1  0  0  0
  3  4  2  0  0  0
  4  5  1  0  0  0
  5  6  2  0  0  0
  6  7  1  0  0  0
  6  8  1  0  0  0
  8  9  2  0  0  0
  9 10  1  0  0  0
 10 29  1  0  0  0
 29 30  1  0  0  0
 30 31  2  0  0  0
 31 32  1  0  0  0
 32 33  2  0  0  0
 33 34  1  0  0  0
 33 35  1  0  0  0
 35 36  2  0  0  0
  8 12  1  0  0  0
 12 13  1  0  0  0
 13 14  1  0  0  0
 14 15  1  0  0  0
 15 16  1  0  0  0
 16 17  1  0  0  0
 10  1  1  0  0  0
 36 30  1  0  0  0
 17 12  1  0  0  0
  9  3  1  0  0  0
 21 23  1  0  0  0
 21 24  1  0  0  0
  7 11  1  0  0  0
M  END
> <minimizedAffinity>
-5.48366

> <CNNscore>
0.1238689870

> <CNNaffinity>
5.4120588303

> <CNN_VS>
0.6703862548

> <CNNaffinity_variance>
0.1808481514

$$$$
[H]Oc1c([H])c([H])c2c(C(=O)C(=O)N([H])[H])c(C([H])([H])C([H])(C([H])([H])[H])C([H])([H])[H])n(C([H])([H])c3c([H])c([H])c(Cl)c([H])c3[H])c2c1N1C([H])([H])C([H])([H])C([H])([H])C([H])([H])C1([H])[H]


 36 39  0  0  0  0  0  0  0  0999 V2000
   39.9097   16.2591   -8.0100 C   0  0  0  0  0  0  0  0  0  0  0  0
   39.3693   16.4013   -9.2501 C   0  0  0  0  0  0  0  0  0  0  0  0
   40.4057   16.2419  -10.1594 C   0  0  0  0  0  0  0  0  0  0  0  0
   40.3745   16.3006  -11.5352 C   0  0  0  0  0  0  0  0  0  0  0  0
   41.5198   16.1259  -12.2694 C   0  0  0  0  0  0  0  0  0  0  0  0
   42.6753   15.8962  -11.5670 C   0  0  0  0  0  0  0  0  0  0  0  0
   43.8410   15.7194  -12.2979 O   0  0  0  0  0  0  0  0  0  0  0  0
   42.7026   15.8374  -10.1656 C   0  0  0  0  0  0  0  0  0  0  0  0
   41.5744   16.0029   -9.4270 C   0  0  0  0  0  0  0  0  0  0  0  0
   41.2636   16.0106   -8.1219 N   0  0  0  0  0  0  0  0  0  0  0  0
   43.8397   15.7575  -13.3028 H   0  0  0  0  0  0  0  0  0  0  0  0
   43.9676   15.6837   -9.6050 N   0  0  0  0  0  0  0  0  0  0  0  0
   44.5403   14.3549   -9.2975 C   0  0  0  0  0  0  0  0  0  0  0  0
   45.9111   14.4714   -8.7274 C   0  0  0  0  0  0  0  0  0  0  0  0
   45.9694   15.3785   -7.5173 C   0  0  0  0  0  0  0  0  0  0  0  0
   45.3456   16.7035   -7.8318 C   0  0  0  0  0  0  0  0  0  0  0  0
   44.7832   16.7956   -9.2264 C   0  0  0  0  0  0  0  0  0  0  0  0
   38.0095   16.6519   -9.6955 C   0  0  0  0  0  0  0  0  0  0  0  0
   37.2852   15.7384  -10.1261 O   0  0  0  0  0  0  0  0  0  0  0  0
   37.4389   17.9960   -9.6539 C   0  0  0  0  0  0  0  0  0  0  0  0
   36.4569   18.4069   -8.7263 N   0  0  0  0  0  0  0  0  0  0  0  0
   37.8494   18.8276  -10.4931 O   0  0  0  0  0  0  0  0  0  0  0  0
   35.6968   17.7605   -8.4418 H   0  0  0  0  0  0  0  0  0  0  0  0
   36.4725   19.3566   -8.3115 H   0  0  0  0  0  0  0  0  0  0  0  0
   39.2394   16.3516   -6.7220 C   0  0  0  0  0  0  0  0  0  0  0  0
   38.2487   14.0278   -7.0902 C   0  0  0  0  0  0  0  0  0  0  0  0
   38.3481   15.2590   -6.2534 C   0  0  0  0  0  0  0  0  0  0  0  0
   38.9945   14.7514   -4.9305 C   0  0  0  0  0  0  0  0  0  0  0  0
   42.1010   15.7978   -7.0215 C   0  0  0  0  0  0  0  0  0  0  0  0
   42.2259   14.3589   -6.6067 C   0  0  0  0  0  0  0  0  0  0  0  0
   42.9679   14.0383   -5.4860 C   0  0  0  0  0  0  0  0  0  0  0  0
   43.1122   12.7547   -5.0026 C   0  0  0  0  0  0  0  0  0  0  0  0
   42.4807   11.7343   -5.6760 C   0  0  0  0  0  0  0  0  0  0  0  0
   42.6247   10.0741   -5.1113 Cl  0  0  0  0  0  0  0  0  0  0  0  0
   41.7195   12.0029   -6.8128 C   0  0  0  0  0  0  0  0  0  0  0  0
   41.6242   13.3053   -7.2304 C   0  0  0  0  0  0  0  0  0  0  0  0
 26 27  1  0  0  0
 27 28  1  0  0  0
 27 25  1  0  0  0
 25  1  1  0  0  0
  1  2  2  0  0  0
  2 18  1  0  0  0
 18 19  2  0  0  0
 18 20  1  0  0  0
 20 21  1  0  0  0
 20 22  2  0  0  0
  2  3  1  0  0  0
  3  4  2  0  0  0
  4  5  1  0  0  0
  5  6  2  0  0  0
  6  7  1  0  0  0
  6  8  1  0  0  0
  8  9  2  0  0  0
  9 10  1  0  0  0
 10 29  1  0  0  0
 29 30  1  0  0  0
 30 31  2  0  0  0
 31 32  1  0  0  0
 32 33  2  0  0  0
 33 34  1  0  0  0
 33 35  1  0  0  0
 35 36  2  0  0  0
  8 12  1  0  0  0
 12 13  1  0  0  0
 13 14  1  0  0  0
 14 15  1  0  0  0
 15 16  1  0  0  0
 16 17  1  0  0  0
 10  1  1  0  0  0
 36 30  1  0  0  0
 17 12  1  0  0  0
  9  3  1  0  0  0
 21 23  1  0  0  0
 21 24  1  0  0  0
  7 11  1  0  0  0
M  END
> <minimizedAffinity>
-5.86893

> <CNNscore>
0.1212623492

> <CNNaffinity>
5.1948499680

> <CNN_VS>
0.6299397349

> <CNNaffinity_variance>
0.4258759618

$$$$
[H]Oc1c([H])c([H])c2c(c1[H])C(C#N)(c1c([H])c([H])c([H])c([H])c1[H])C([H])([H])N([H])C([H])([H])C([H])([H])N2[H]


 24 26  0  0  0  0  0  0  0  0999 V2000
   38.5291   18.4015   -8.4647 O   0  0  0  0  0  0  0  0  0  0  0  0
   37.4193   17.6541   -8.1041 C   0  0  0  0  0  0  0  0  0  0  0  0
   36.2426   17.6405   -8.8375 C   0  0  0  0  0  0  0  0  0  0  0  0
   35.1275   16.8840   -8.4669 C   0  0  0  0  0  0  0  0  0  0  0  0
   35.2302   16.1291   -7.3200 C   0  0  0  0  0  0  0  0  0  0  0  0
   33.9536   15.4619   -7.1842 N   0  0  0  0  0  0  0  0  0  0  0  0
   33.4827   14.2935   -6.4762 C   0  0  0  0  0  0  0  0  0  0  0  0
   33.4150   14.2762   -5.0200 C   0  0  0  0  0  0  0  0  0  0  0  0
   34.6836   14.0458   -4.2617 N   0  0  0  0  0  0  0  0  0  0  0  0
   35.6161   14.7462   -4.8492 C   0  0  0  0  0  0  0  0  0  0  0  0
   36.7987   15.4101   -5.2726 C   0  0  0  0  0  0  0  0  0  0  0  0
   36.4082   16.1242   -6.5590 C   0  0  0  0  0  0  0  0  0  0  0  0
   37.4774   16.8775   -6.9543 C   0  0  0  0  0  0  0  0  0  0  0  0
   39.2316   17.9879   -9.0701 H   0  0  0  0  0  0  0  0  0  0  0  0
   33.2635   15.9759   -7.7349 H   0  0  0  0  0  0  0  0  0  0  0  0
   34.4344   14.2762   -3.2803 H   0  0  0  0  0  0  0  0  0  0  0  0
   37.9453   14.5373   -5.6134 C   0  0  0  0  0  0  0  0  0  0  0  0
   39.1130   14.7014   -4.9086 C   0  0  0  0  0  0  0  0  0  0  0  0
   40.2337   13.9184   -5.1780 C   0  0  0  0  0  0  0  0  0  0  0  0
   40.1172   12.9754   -6.1800 C   0  0  0  0  0  0  0  0  0  0  0  0
   38.9514   12.8120   -6.8830 C   0  0  0  0  0  0  0  0  0  0  0  0
   37.8541   13.5855   -6.6126 C   0  0  0  0  0  0  0  0  0  0  0  0
   37.2188   16.4147   -4.2820 C   0  0  0  0  0  0  0  0  0  0  0  0
   37.5491   17.2252   -3.5117 N   0  0  0  0  0  0  0  0  0  0  0  0
  1  2  1  0  0  0
  2  3  2  0  0  0
  3  4  1  0  0  0
  4  5  2  0  0  0
  5  6  1  0  0  0
  6  7  1  0  0  0
  7  8  1  0  0  0
  8  9  1  0  0  0
  9 10  1  0  0  0
 10 11  1  0  0  0
 11 23  1  0  0  0
 23 24  3  0  0  0
 11 17  1  0  0  0
 17 18  2  0  0  0
 18 19  1  0  0  0
 19 20  2  0  0  0
 20 21  1  0  0  0
 21 22  2  0  0  0
 11 12  1  0  0  0
 12 13  2  0  0  0
 13  2  1  0  0  0
 12  5  1  0  0  0
 22 17  1  0  0  0
  1 14  1  0  0  0
  6 15  1  0  0  0
  9 16  1  0  0  0
M  END
> <minimizedAffinity>
-4.55476

> <CNNscore>
0.5843265057

> <CNNaffinity>
4.8343210220

> <CNN_VS>
2.8248219490

> <CNNaffinity_variance>
0.8759811521

$$$$
[H]Oc1c([H])c([H])c2c(c1[H])C(C#N)(c1c([H])c([H])c([H])c([H])c1[H])C([H])([H])N([H])C([H])([H])C([H])([H])N2[H]


 24 26  0  0  0  0  0  0  0  0999 V2000
   37.0681   12.9880   -6.8320 O   0  0  0  0  0  0  0  0  0  0  0  0
   36.0062   13.7299   -6.3395 C   0  0  0  0  0  0  0  0  0  0  0  0
   35.3180   13.3948   -5.1832 C   0  0  0  0  0  0  0  0  0  0  0  0
   34.2480   14.1483   -4.6931 C   0  0  0  0  0  0  0  0  0  0  0  0
   33.8834   15.2663   -5.4093 C   0  0  0  0  0  0  0  0  0  0  0  0
   32.7717   15.8413   -4.6835 N   0  0  0  0  0  0  0  0  0  0  0  0
   32.1536   17.1464   -4.6294 C   0  0  0  0  0  0  0  0  0  0  0  0
   31.4153   17.6740   -5.7705 C   0  0  0  0  0  0  0  0  0  0  0  0
   32.1988   18.2521   -6.9060 N   0  0  0  0  0  0  0  0  0  0  0  0
   33.2161   17.4603   -7.1145 C   0  0  0  0  0  0  0  0  0  0  0  0
   34.3801   16.7794   -7.5617 C   0  0  0  0  0  0  0  0  0  0  0  0
   34.5618   15.6285   -6.5820 C   0  0  0  0  0  0  0  0  0  0  0  0
   35.6036   14.8657   -7.0293 C   0  0  0  0  0  0  0  0  0  0  0  0
   38.0120   13.2110   -6.5316 H   0  0  0  0  0  0  0  0  0  0  0  0
   32.3681   15.1155   -4.0884 H   0  0  0  0  0  0  0  0  0  0  0  0
   31.4966   18.3669   -7.6623 H   0  0  0  0  0  0  0  0  0  0  0  0
   35.6396   17.5573   -7.5272 C   0  0  0  0  0  0  0  0  0  0  0  0
   35.9866   18.1714   -6.3484 C   0  0  0  0  0  0  0  0  0  0  0  0
   37.1552   18.9231   -6.2438 C   0  0  0  0  0  0  0  0  0  0  0  0
   37.9440   19.0216   -7.3730 C   0  0  0  0  0  0  0  0  0  0  0  0
   37.5972   18.4082   -8.5492 C   0  0  0  0  0  0  0  0  0  0  0  0
   36.4469   17.6712   -8.6443 C   0  0  0  0  0  0  0  0  0  0  0  0
   34.1774   16.2257   -8.9106 C   0  0  0  0  0  0  0  0  0  0  0  0
   34.0145   15.8063   -9.9861 N   0  0  0  0  0  0  0  0  0  0  0  0
  1  2  1  0  0  0
  2  3  2  0  0  0
  3  4  1  0  0  0
  4  5  2  0  0  0
  5  6  1  0  0  0
  6  7  1  0  0  0
  7  8  1  0  0  0
  8  9  1  0  0  0
  9 10  1  0  0  0
 10 11  1  0  0  0
 11 23  1  0  0  0
 23 24  3  0  0  0
 11 17  1  0  0  0
 17 18  2  0  0  0
 18 19  1  0  0  0
 19 20  2  0  0  0
 20 21  1  0  0  0
 21 22  2  0  0  0
 11 12  1  0  0  0
 12 13  2  0  0  0
 13  2  1  0  0  0
 12  5  1  0  0  0
 22 17  1  0  0  0
  1 14  1  0  0  0
  6 15  1  0  0  0
  9 16  1  0  0  0
M  END
> <minimizedAffinity>
-5.00584

> <CNNscore>
0.5826162696

> <CNNaffinity>
4.5277662277

> <CNN_VS>
2.6379501820

> <CNNaffinity_variance>
0.4251379967

$$$$
[H]Oc1c([H])c([H])c2c(c1[H])C(C#N)(c1c([H])c([H])c([H])c([H])c1[H])C([H])([H])N([H])C([H])([H])C([H])([H])N2[H]


 24 26  0  0  0  0  0  0  0  0999 V2000
   39.9852   10.4295  -19.7331 O   0  0  0  0  0  0  0  0  0  0  0  0
   39.5068   10.9534  -18.5427 C   0  0  0  0  0  0  0  0  0  0  0  0
   38.3791   10.4673  -17.8986 C   0  0  0  0  0  0  0  0  0  0  0  0
   37.9030   11.0014  -16.6981 C   0  0  0  0  0  0  0  0  0  0  0  0
   38.6036   12.0546  -16.1545 C   0  0  0  0  0  0  0  0  0  0  0  0
   37.8993   12.3966  -14.9378 N   0  0  0  0  0  0  0  0  0  0  0  0
   38.2400   13.1073  -13.7265 C   0  0  0  0  0  0  0  0  0  0  0  0
   38.4866   14.5440  -13.7445 C   0  0  0  0  0  0  0  0  0  0  0  0
   39.8199   15.0207  -14.2269 N   0  0  0  0  0  0  0  0  0  0  0  0
   40.1276   14.3068  -15.2762 C   0  0  0  0  0  0  0  0  0  0  0  0
   40.6966   13.7018  -16.4288 C   0  0  0  0  0  0  0  0  0  0  0  0
   39.7473   12.5662  -16.7846 C   0  0  0  0  0  0  0  0  0  0  0  0
   40.1816   12.0168  -17.9579 C   0  0  0  0  0  0  0  0  0  0  0  0
   40.6610    9.6721  -19.7069 H   0  0  0  0  0  0  0  0  0  0  0  0
   36.9491   12.0271  -15.0032 H   0  0  0  0  0  0  0  0  0  0  0  0
   39.6928   16.0447  -14.3436 H   0  0  0  0  0  0  0  0  0  0  0  0
   42.0308   13.0861  -16.2459 C   0  0  0  0  0  0  0  0  0  0  0  0
   42.7263   13.3819  -15.0988 C   0  0  0  0  0  0  0  0  0  0  0  0
   43.9889   12.8422  -14.8618 C   0  0  0  0  0  0  0  0  0  0  0  0
   44.5057   12.0010  -15.8273 C   0  0  0  0  0  0  0  0  0  0  0  0
   43.8110   11.7060  -16.9719 C   0  0  0  0  0  0  0  0  0  0  0  0
   42.5706   12.2405  -17.1979 C   0  0  0  0  0  0  0  0  0  0  0  0
   40.7400   14.6522  -17.5521 C   0  0  0  0  0  0  0  0  0  0  0  0
   40.7690   15.3898  -18.4546 N   0  0  0  0  0  0  0  0  0  0  0  0
  1  2  1  0  0  0
  2  3  2  0  0  0
  3  4  1  0  0  0
  4  5  2  0  0  0
  5  6  1  0  0  0
  6  7  1  0  0  0
  7  8  1  0  0  0
  8  9  1  0  0  0
  9 10  1  0  0  0
 10 11  1  0  0  0
 11 23  1  0  0  0
 23 24  3  0  0  0
 11 17  1  0  0  0
 17 18  2  0  0  0
 18 19  1  0  0  0
 19 20  2  0  0  0
 20 21  1  0  0  0
 21 22  2  0  0  0
 11 12  1  0  0  0
 12 13  2  0  0  0
 13  2  1  0  0  0
 12  5  1  0  0  0
 22 17  1  0  0  0
  1 14  1  0  0  0
  6 15  1  0  0  0
  9 16  1  0  0  0
M  END
> <minimizedAffinity>
-5.69180

> <CNNscore>
0.5504441857

> <CNNaffinity>
5.7641682625

> <CNN_VS>
3.1728529930

> <CNNaffinity_variance>
0.1551563740

$$$$
[H]Oc1c([H])c([H])c2c(c1[H])C(C#N)(c1c([H])c([H])c([H])c([H])c1[H])C([H])([H])N([H])C([H])([H])C([H])([H])N2[H]


 24 26  0  0  0  0  0  0  0  0999 V2000
   37.6653   12.3207   -6.6694 O   0  0  0  0  0  0  0  0  0  0  0  0
   38.7546   13.1659   -6.5300 C   0  0  0  0  0  0  0  0  0  0  0  0
   40.0653   12.7149   -6.4935 C   0  0  0  0  0  0  0  0  0  0  0  0
   41.1585   13.5740   -6.3526 C   0  0  0  0  0  0  0  0  0  0  0  0
   40.8929   14.9209   -6.2480 C   0  0  0  0  0  0  0  0  0  0  0  0
   42.1855   15.5578   -6.1171 N   0  0  0  0  0  0  0  0  0  0  0  0
   42.6902   16.8954   -6.3273 C   0  0  0  0  0  0  0  0  0  0  0  0
   42.2898   17.9933   -5.4556 C   0  0  0  0  0  0  0  0  0  0  0  0
   40.9505   18.6186   -5.6854 N   0  0  0  0  0  0  0  0  0  0  0  0
   40.1078   17.6489   -5.9191 C   0  0  0  0  0  0  0  0  0  0  0  0
   38.9939   16.8074   -6.1833 C   0  0  0  0  0  0  0  0  0  0  0  0
   39.5770   15.4046   -6.2818 C   0  0  0  0  0  0  0  0  0  0  0  0
   38.5343   14.5326   -6.4209 C   0  0  0  0  0  0  0  0  0  0  0  0
   37.3262   12.0959   -7.5997 H   0  0  0  0  0  0  0  0  0  0  0  0
   42.8576   14.8562   -5.8013 H   0  0  0  0  0  0  0  0  0  0  0  0
   40.8035   19.2119   -4.8460 H   0  0  0  0  0  0  0  0  0  0  0  0
   38.2844   17.0529   -7.4596 C   0  0  0  0  0  0  0  0  0  0  0  0
   39.0039   16.9606   -8.6261 C   0  0  0  0  0  0  0  0  0  0  0  0
   38.4029   17.1829   -9.8634 C   0  0  0  0  0  0  0  0  0  0  0  0
   37.0584   17.4982   -9.8630 C   0  0  0  0  0  0  0  0  0  0  0  0
   36.3407   17.5900   -8.6984 C   0  0  0  0  0  0  0  0  0  0  0  0
   36.9385   17.3703   -7.4861 C   0  0  0  0  0  0  0  0  0  0  0  0
   38.0335   16.8439   -5.0683 C   0  0  0  0  0  0  0  0  0  0  0  0
   37.2887   16.8725   -4.1718 N   0  0  0  0  0  0  0  0  0  0  0  0
  1  2  1  0  0  0
  2  3  2  0  0  0
  3  4  1  0  0  0
  4  5  2  0  0  0
  5  6  1  0  0  0
  6  7  1  0  0  0
  7  8  1  0  0  0
  8  9  1  0  0  0
  9 10  1  0  0  0
 10 11  1  0  0  0
 11 23  1  0  0  0
 23 24  3  0  0  0
 11 17  1  0  0  0
 17 18  2  0  0  0
 18 19  1  0  0  0
 19 20  2  0  0  0
 20 21  1  0  0  0
 21 22  2  0  0  0
 11 12  1  0  0  0
 12 13  2  0  0  0
 13  2  1  0  0  0
 12  5  1  0  0  0
 22 17  1  0  0  0
  1 14  1  0  0  0
  6 15  1  0  0  0
  9 16  1  0  0  0
M  END
> <minimizedAffinity>
-4.45874

> <CNNscore>
0.5486180782

> <CNNaffinity>
4.2868013382

> <CNN_VS>
2.3518166542

> <CNNaffinity_variance>
0.6930211782

$$$$
[H]Oc1c([H])c([H])c2c(c1[H])C(C#N)(c1c([H])c([H])c([H])c([H])c1[H])C([H])([H])N([H])C([H])([H])C([H])([H])N2[H]


 24 26  0  0  0  0  0  0  0  0999 V2000
   40.4471   14.8741   -6.3305 O   0  0  0  0  0  0  0  0  0  0  0  0
   39.1780   15.0988   -5.8211 C   0  0  0  0  0  0  0  0  0  0  0  0
   38.8471   14.8932   -4.4903 C   0  0  0  0  0  0  0  0  0  0  0  0
   37.5646   15.1221   -3.9844 C   0  0  0  0  0  0  0  0  0  0  0  0
   36.6088   15.5709   -4.8680 C   0  0  0  0  0  0  0  0  0  0  0  0
   35.4018   15.7205   -4.0842 N   0  0  0  0  0  0  0  0  0  0  0  0
   34.1697   16.4596   -4.2384 C   0  0  0  0  0  0  0  0  0  0  0  0
   33.2077   16.1051   -5.2748 C   0  0  0  0  0  0  0  0  0  0  0  0
   33.4848   16.5578   -6.6733 N   0  0  0  0  0  0  0  0  0  0  0  0
   34.7584   16.3709   -6.8933 C   0  0  0  0  0  0  0  0  0  0  0  0
   36.0810   16.2616   -7.4004 C   0  0  0  0  0  0  0  0  0  0  0  0
   36.9158   15.7872   -6.2191 C   0  0  0  0  0  0  0  0  0  0  0  0
   38.1819   15.5518   -6.6759 C   0  0  0  0  0  0  0  0  0  0  0  0
   41.1246   15.6303   -6.3285 H   0  0  0  0  0  0  0  0  0  0  0  0
   35.4958   15.1527   -3.2401 H   0  0  0  0  0  0  0  0  0  0  0  0
   32.7995   16.0302   -7.2481 H   0  0  0  0  0  0  0  0  0  0  0  0
   36.7019   17.5218   -7.8685 C   0  0  0  0  0  0  0  0  0  0  0  0
   36.6833   18.6037   -7.0221 C   0  0  0  0  0  0  0  0  0  0  0  0
   37.2448   19.8224   -7.3975 C   0  0  0  0  0  0  0  0  0  0  0  0
   37.8176   19.8923   -8.6521 C   0  0  0  0  0  0  0  0  0  0  0  0
   37.8361   18.8121   -9.4963 C   0  0  0  0  0  0  0  0  0  0  0  0
   37.2820   17.6175   -9.1203 C   0  0  0  0  0  0  0  0  0  0  0  0
   36.1514   15.2494   -8.4669 C   0  0  0  0  0  0  0  0  0  0  0  0
   36.1902   14.4387   -9.3039 N   0  0  0  0  0  0  0  0  0  0  0  0
  1  2  1  0  0  0
  2  3  2  0  0  0
  3  4  1  0  0  0
  4  5  2  0  0  0
  5  6  1  0  0  0
  6  7  1  0  0  0
  7  8  1  0  0  0
  8  9  1  0  0  0
  9 10  1  0  0  0
 10 11  1  0  0  0
 11 23  1  0  0  0
 23 24  3  0  0  0
 11 17  1  0  0  0
 17 18  2  0  0  0
 18 19  1  0  0  0
 19 20  2  0  0  0
 20 21  1  0  0  0
 21 22  2  0  0  0
 11 12  1  0  0  0
 12 13  2  0  0  0
 13  2  1  0  0  0
 12  5  1  0  0  0
 22 17  1  0  0  0
  1 14  1  0  0  0
  6 15  1  0  0  0
  9 16  1  0  0  0
M  END
> <minimizedAffinity>
-4.55468

> <CNNscore>
0.5289607048

> <CNNaffinity>
4.3645720482

> <CNN_VS>
2.3086872101

> <CNNaffinity_variance>
0.6271802187

$$$$
[H]Oc1c([H])c([H])c2c(c1[H])C(C#N)(c1c([H])c([H])c([H])c([H])c1[H])C([H])([H])N([H])C([H])([H])C([H])([H])N2[H]


 24 26  0  0  0  0  0  0  0  0999 V2000
   38.7654   14.7659   -9.5102 O   0  0  0  0  0  0  0  0  0  0  0  0
   37.5369   15.2848   -9.1334 C   0  0  0  0  0  0  0  0  0  0  0  0
   36.3814   15.1194   -9.8820 C   0  0  0  0  0  0  0  0  0  0  0  0
   35.1461   15.6460   -9.4950 C   0  0  0  0  0  0  0  0  0  0  0  0
   35.1042   16.3547   -8.3153 C   0  0  0  0  0  0  0  0  0  0  0  0
   33.7267   16.7719   -8.1671 N   0  0  0  0  0  0  0  0  0  0  0  0
   32.9039   17.2018   -7.0597 C   0  0  0  0  0  0  0  0  0  0  0  0
   33.1468   18.4771   -6.3962 C   0  0  0  0  0  0  0  0  0  0  0  0
   34.2650   18.5503   -5.4054 N   0  0  0  0  0  0  0  0  0  0  0  0
   35.2725   17.8923   -5.9124 C   0  0  0  0  0  0  0  0  0  0  0  0
   36.5080   17.2641   -6.2245 C   0  0  0  0  0  0  0  0  0  0  0  0
   36.2574   16.5374   -7.5385 C   0  0  0  0  0  0  0  0  0  0  0  0
   37.4472   16.0069   -7.9507 C   0  0  0  0  0  0  0  0  0  0  0  0
   39.0265   13.8338   -9.2037 H   0  0  0  0  0  0  0  0  0  0  0  0
   33.2806   16.7355   -9.0854 H   0  0  0  0  0  0  0  0  0  0  0  0
   34.3760   19.5674   -5.2274 H   0  0  0  0  0  0  0  0  0  0  0  0
   36.9740   16.2376   -5.2644 C   0  0  0  0  0  0  0  0  0  0  0  0
   36.0952   15.2453   -4.9034 C   0  0  0  0  0  0  0  0  0  0  0  0
   36.4636   14.2490   -4.0017 C   0  0  0  0  0  0  0  0  0  0  0  0
   37.7453   14.3044   -3.4907 C   0  0  0  0  0  0  0  0  0  0  0  0
   38.6220   15.2949   -3.8515 C   0  0  0  0  0  0  0  0  0  0  0  0
   38.2525   16.2709   -4.7382 C   0  0  0  0  0  0  0  0  0  0  0  0
   37.5673   18.2651   -6.4314 C   0  0  0  0  0  0  0  0  0  0  0  0
   38.3930   19.0695   -6.6062 N   0  0  0  0  0  0  0  0  0  0  0  0
  1  2  1  0  0  0
  2  3  2  0  0  0
  3  4  1  0  0  0
  4  5  2  0  0  0
  5  6  1  0  0  0
  6  7  1  0  0  0
  7  8  1  0  0  0
  8  9  1  0  0  0
  9 10  1  0  0  0
 10 11  1  0  0  0
 11 23  1  0  0  0
 23 24  3  0  0  0
 11 17  1  0  0  0
 17 18  2  0  0  0
 18 19  1  0  0  0
 19 20  2  0  0  0
 20 21  1  0  0  0
 21 22  2  0  0  0
 11 12  1  0  0  0
 12 13  2  0  0  0
 13  2  1  0  0  0
 12  5  1  0  0  0
 22 17  1  0  0  0
  1 14  1  0  0  0
  6 15  1  0  0  0
  9 16  1  0  0  0
M  END
> <minimizedAffinity>
-4.34849

> <CNNscore>
0.4788305759

> <CNNaffinity>
4.5307607651

> <CNN_VS>
2.1694667339

> <CNNaffinity_variance>
0.7999378443

$$$$
[H]Oc1c([H])c([H])c2c(c1[H])C(C#N)(c1c([H])c([H])c([H])c([H])c1[H])C([H])([H])N([H])C([H])([H])C([H])([H])N2[H]


 24 26  0  0  0  0  0  0  0  0999 V2000
   38.8674   17.8135   -8.9837 O   0  0  0  0  0  0  0  0  0  0  0  0
   38.0674   16.9916   -8.2060 C   0  0  0  0  0  0  0  0  0  0  0  0
   36.7370   16.7311   -8.4976 C   0  0  0  0  0  0  0  0  0  0  0  0
   35.9368   15.9009   -7.7080 C   0  0  0  0  0  0  0  0  0  0  0  0
   36.5209   15.3306   -6.5993 C   0  0  0  0  0  0  0  0  0  0  0  0
   35.4804   14.5357   -5.9836 N   0  0  0  0  0  0  0  0  0  0  0  0
   35.4562   13.4273   -5.0568 C   0  0  0  0  0  0  0  0  0  0  0  0
   35.8598   13.6033   -3.6671 C   0  0  0  0  0  0  0  0  0  0  0  0
   37.3235   13.6390   -3.3610 N   0  0  0  0  0  0  0  0  0  0  0  0
   37.8932   14.3614   -4.2877 C   0  0  0  0  0  0  0  0  0  0  0  0
   38.7548   15.1015   -5.1412 C   0  0  0  0  0  0  0  0  0  0  0  0
   37.8642   15.5769   -6.2806 C   0  0  0  0  0  0  0  0  0  0  0  0
   38.6142   16.3948   -7.0777 C   0  0  0  0  0  0  0  0  0  0  0  0
   39.3977   17.4104   -9.7500 H   0  0  0  0  0  0  0  0  0  0  0  0
   34.5769   14.8792   -6.3146 H   0  0  0  0  0  0  0  0  0  0  0  0
   37.3660   13.9703   -2.3777 H   0  0  0  0  0  0  0  0  0  0  0  0
   39.8588   14.3388   -5.7672 C   0  0  0  0  0  0  0  0  0  0  0  0
   39.5377   13.2196   -6.4963 C   0  0  0  0  0  0  0  0  0  0  0  0
   40.5249   12.4511   -7.1098 C   0  0  0  0  0  0  0  0  0  0  0  0
   41.8332   12.8639   -6.9523 C   0  0  0  0  0  0  0  0  0  0  0  0
   42.1531   13.9811   -6.2246 C   0  0  0  0  0  0  0  0  0  0  0  0
   41.1772   14.7313   -5.6244 C   0  0  0  0  0  0  0  0  0  0  0  0
   39.2995   16.2778   -4.4435 C   0  0  0  0  0  0  0  0  0  0  0  0
   39.7221   17.2216   -3.9050 N   0  0  0  0  0  0  0  0  0  0  0  0
  1  2  1  0  0  0
  2  3  2  0  0  0
  3  4  1  0  0  0
  4  5  2  0  0  0
  5  6  1  0  0  0
  6  7  1  0  0  0
  7  8  1  0  0  0
  8  9  1  0  0  0
  9 10  1  0  0  0
 10 11  1  0  0  0
 11 23  1  0  0  0
 23 24  3  0  0  0
 11 17  1  0  0  0
 17 18  2  0  0  0
 18 19  1  0  0  0
 19 20  2  0  0  0
 20 21  1  0  0  0
 21 22  2  0  0  0
 11 12  1  0  0  0
 12 13  2  0  0  0
 13  2  1  0  0  0
 12  5  1  0  0  0
 22 17  1  0  0  0
  1 14  1  0  0  0
  6 15  1  0  0  0
  9 16  1  0  0  0
M  END
> <minimizedAffinity>
-4.82387

> <CNNscore>
0.4388416708

> <CNNaffinity>
4.1624360085

> <CNN_VS>
1.8266503811

> <CNNaffinity_variance>
0.4592736363

$$$$
[H]Oc1c([H])c([H])c2c(c1[H])C(C#N)(c1c([H])c([H])c([H])c([H])c1[H])C([H])([H])N([H])C([H])([H])C([H])([H])N2[H]


 24 26  0  0  0  0  0  0  0  0999 V2000
   38.4714   12.4956   -6.6148 O   0  0  0  0  0  0  0  0  0  0  0  0
   38.1872   13.6644   -5.9267 C   0  0  0  0  0  0  0  0  0  0  0  0
   39.0953   14.2902   -5.0862 C   0  0  0  0  0  0  0  0  0  0  0  0
   38.8009   15.4690   -4.3957 C   0  0  0  0  0  0  0  0  0  0  0  0
   37.5477   16.0099   -4.5769 C   0  0  0  0  0  0  0  0  0  0  0  0
   37.5229   17.2030   -3.7587 N   0  0  0  0  0  0  0  0  0  0  0  0
   36.7269   18.4088   -3.7362 C   0  0  0  0  0  0  0  0  0  0  0  0
   35.3186   18.3704   -3.3615 C   0  0  0  0  0  0  0  0  0  0  0  0
   34.3320   17.9114   -4.3879 N   0  0  0  0  0  0  0  0  0  0  0  0
   34.8592   16.8830   -4.9959 C   0  0  0  0  0  0  0  0  0  0  0  0
   35.1790   15.7556   -5.7990 C   0  0  0  0  0  0  0  0  0  0  0  0
   36.6096   15.3980   -5.4208 C   0  0  0  0  0  0  0  0  0  0  0  0
   36.9353   14.2457   -6.0789 C   0  0  0  0  0  0  0  0  0  0  0  0
   38.8772   12.5518   -7.5438 H   0  0  0  0  0  0  0  0  0  0  0  0
   38.2558   17.1216   -3.0516 H   0  0  0  0  0  0  0  0  0  0  0  0
   33.4554   17.7731   -3.8487 H   0  0  0  0  0  0  0  0  0  0  0  0
   35.1802   15.9814   -7.2624 C   0  0  0  0  0  0  0  0  0  0  0  0
   34.0774   15.5827   -7.9778 C   0  0  0  0  0  0  0  0  0  0  0  0
   34.0108   15.7599   -9.3583 C   0  0  0  0  0  0  0  0  0  0  0  0
   35.0981   16.3514   -9.9706 C   0  0  0  0  0  0  0  0  0  0  0  0
   36.1985   16.7493   -9.2560 C   0  0  0  0  0  0  0  0  0  0  0  0
   36.2566   16.5717   -7.8993 C   0  0  0  0  0  0  0  0  0  0  0  0
   34.3047   14.6165   -5.4749 C   0  0  0  0  0  0  0  0  0  0  0  0
   33.6106   13.7100   -5.2384 N   0  0  0  0  0  0  0  0  0  0  0  0
  1  2  1  0  0  0
  2  3  2  0  0  0
  3  4  1  0  0  0
  4  5  2  0  0  0
  5  6  1  0  0  0
  6  7  1  0  0  0
  7  8  1  0  0  0
  8  9  1  0  0  0
  9 10  1  0  0  0
 10 11  1  0  0  0
 11 23  1  0  0  0
 23 24  3  0  0  0
 11 17  1  0  0  0
 17 18  2  0  0  0
 18 19  1  0  0  0
 19 20  2  0  0  0
 20 21  1  0  0  0
 21 22  2  0  0  0
 11 12  1  0  0  0
 12 13  2  0  0  0
 13  2  1  0  0  0
 12  5  1  0  0  0
 22 17  1  0  0  0
  1 14  1  0  0  0
  6 15  1  0  0  0
  9 16  1  0  0  0
M  END
> <minimizedAffinity>
-4.66215

> <CNNscore>
0.4183505774

> <CNNaffinity>
4.3900856972

> <CNN_VS>
1.8365949392

> <CNNaffinity_variance>
0.7736732364

$$$$
[H]Oc1c([H])c([H])c2c(c1[H])C(C#N)(c1c([H])c([H])c([H])c([H])c1[H])C([H])([H])N([H])C([H])([H])C([H])([H])N2[H]


 24 26  0  0  0  0  0  0  0  0999 V2000
   37.6810   18.1921  -10.5969 O   0  0  0  0  0  0  0  0  0  0  0  0
   36.6782   17.4494   -9.9943 C   0  0  0  0  0  0  0  0  0  0  0  0
   36.0276   16.3999  -10.6252 C   0  0  0  0  0  0  0  0  0  0  0  0
   35.0171   15.6557  -10.0104 C   0  0  0  0  0  0  0  0  0  0  0  0
   34.6734   16.0015   -8.7227 C   0  0  0  0  0  0  0  0  0  0  0  0
   33.6235   15.0803   -8.3453 N   0  0  0  0  0  0  0  0  0  0  0  0
   33.0702   14.6215   -7.0917 C   0  0  0  0  0  0  0  0  0  0  0  0
   32.3070   15.5212   -6.2352 C   0  0  0  0  0  0  0  0  0  0  0  0
   33.0649   16.4870   -5.3807 N   0  0  0  0  0  0  0  0  0  0  0  0
   34.0336   16.9696   -6.1113 C   0  0  0  0  0  0  0  0  0  0  0  0
   35.1433   17.6574   -6.6718 C   0  0  0  0  0  0  0  0  0  0  0  0
   35.3147   17.0585   -8.0608 C   0  0  0  0  0  0  0  0  0  0  0  0
   36.2985   17.7628   -8.6958 C   0  0  0  0  0  0  0  0  0  0  0  0
   38.6468   17.8943  -10.4999 H   0  0  0  0  0  0  0  0  0  0  0  0
   33.2136   14.6952   -9.1981 H   0  0  0  0  0  0  0  0  0  0  0  0
   32.3355   17.1383   -5.0311 H   0  0  0  0  0  0  0  0  0  0  0  0
   36.4380   17.4735   -5.9773 C   0  0  0  0  0  0  0  0  0  0  0  0
   37.1278   18.5966   -5.5899 C   0  0  0  0  0  0  0  0  0  0  0  0
   38.3543   18.4995   -4.9357 C   0  0  0  0  0  0  0  0  0  0  0  0
   38.8416   17.2299   -4.6960 C   0  0  0  0  0  0  0  0  0  0  0  0
   38.1526   16.1093   -5.0827 C   0  0  0  0  0  0  0  0  0  0  0  0
   36.9477   16.2128   -5.7254 C   0  0  0  0  0  0  0  0  0  0  0  0
   34.8546   19.0945   -6.8080 C   0  0  0  0  0  0  0  0  0  0  0  0
   34.6212   20.2296   -6.9357 N   0  0  0  0  0  0  0  0  0  0  0  0
  1  2  1  0  0  0
  2  3  2  0  0  0
  3  4  1  0  0  0
  4  5  2  0  0  0
  5  6  1  0  0  0
  6  7  1  0  0  0
  7  8  1  0  0  0
  8  9  1  0  0  0
  9 10  1  0  0  0
 10 11  1  0  0  0
 11 23  1  0  0  0
 23 24  3  0  0  0
 11 17  1  0  0  0
 17 18  2  0  0  0
 18 19  1  0  0  0
 19 20  2  0  0  0
 20 21  1  0  0  0
 21 22  2  0  0  0
 11 12  1  0  0  0
 12 13  2  0  0  0
 13  2  1  0  0  0
 12  5  1  0  0  0
 22 17  1  0  0  0
  1 14  1  0  0  0
  6 15  1  0  0  0
  9 16  1  0  0  0
M  END
> <minimizedAffinity>
-4.47615

> <CNNscore>
0.3769105673

> <CNNaffinity>
4.5155925751

> <CNN_VS>
1.7019745111

> <CNNaffinity_variance>
0.6086810827

$$$$
[H]c1nc(N([H])c2c([H])c(OC([H])([H])[H])c(OC([H])([H])[H])c(OC([H])([H])[H])c2[H])nc(N([H])c2c([H])c([H])c(C([H])([H])N3C([H])([H])C([H])([H])N(C([H])([H])[H])C([H])([H])C3([H])[H])c([H])c2[H])c1C#N


 38 41  0  0  0  0  0  0  0  0999 V2000
   41.2104   12.0101  -17.3539 C   0  0  0  0  0  0  0  0  0  0  0  0
   40.5826   11.5570  -18.4452 N   0  0  0  0  0  0  0  0  0  0  0  0
   39.2934   11.1863  -18.4887 C   0  0  0  0  0  0  0  0  0  0  0  0
   38.5839   11.2869  -17.3172 C   0  0  0  0  0  0  0  0  0  0  0  0
   39.1732   11.7523  -16.1352 C   0  0  0  0  0  0  0  0  0  0  0  0
   40.4547   12.0833  -16.2389 N   0  0  0  0  0  0  0  0  0  0  0  0
   42.5713   12.3948  -17.3300 N   0  0  0  0  0  0  0  0  0  0  0  0
   43.0069   12.5184  -18.3149 H   0  0  0  0  0  0  0  0  0  0  0  0
   43.4704   13.4182  -13.9101 C   0  0  0  0  0  0  0  0  0  0  0  0
   42.7587   13.1500  -15.0557 C   0  0  0  0  0  0  0  0  0  0  0  0
   43.3825   12.6179  -16.1989 C   0  0  0  0  0  0  0  0  0  0  0  0
   44.7263   12.3868  -16.1028 C   0  0  0  0  0  0  0  0  0  0  0  0
   45.4487   12.6625  -14.9294 C   0  0  0  0  0  0  0  0  0  0  0  0
   44.8244   13.1808  -13.8231 C   0  0  0  0  0  0  0  0  0  0  0  0
   42.3545   15.2870  -12.8483 C   0  0  0  0  0  0  0  0  0  0  0  0
   42.8580   13.9460  -12.7719 O   0  0  0  0  0  0  0  0  0  0  0  0
   46.8121   12.4199  -14.8525 O   0  0  0  0  0  0  0  0  0  0  0  0
   47.7612   13.2299  -15.5172 C   0  0  0  0  0  0  0  0  0  0  0  0
   45.5172   13.4618  -12.6505 O   0  0  0  0  0  0  0  0  0  0  0  0
   46.1031   14.7590  -12.5026 C   0  0  0  0  0  0  0  0  0  0  0  0
   37.2241   10.9016  -17.3422 C   0  0  0  0  0  0  0  0  0  0  0  0
   36.1128   10.5808  -17.3468 N   0  0  0  0  0  0  0  0  0  0  0  0
   38.3670   11.8047  -14.9890 N   0  0  0  0  0  0  0  0  0  0  0  0
   37.7969   10.9245  -14.7471 H   0  0  0  0  0  0  0  0  0  0  0  0
   38.1955   12.8905  -14.0901 C   0  0  0  0  0  0  0  0  0  0  0  0
   38.9380   14.0431  -14.0787 C   0  0  0  0  0  0  0  0  0  0  0  0
   38.7135   15.0584  -13.1366 C   0  0  0  0  0  0  0  0  0  0  0  0
   37.7395   14.9574  -12.1737 C   0  0  0  0  0  0  0  0  0  0  0  0
   36.9891   13.8013  -12.1799 C   0  0  0  0  0  0  0  0  0  0  0  0
   37.2029   12.8044  -13.0979 C   0  0  0  0  0  0  0  0  0  0  0  0
   37.4960   16.0235  -11.1689 C   0  0  0  0  0  0  0  0  0  0  0  0
   38.6942   16.6630  -10.7027 N   0  0  0  0  0  0  0  0  0  0  0  0
   38.3401   17.8648   -9.9445 C   0  0  0  0  0  0  0  0  0  0  0  0
   37.4634   17.6078   -8.7863 C   0  0  0  0  0  0  0  0  0  0  0  0
   37.7855   16.4950   -7.9708 N   0  0  0  0  0  0  0  0  0  0  0  0
   36.7132   16.0336   -7.1377 C   0  0  0  0  0  0  0  0  0  0  0  0
   38.5605   15.4636   -8.5605 C   0  0  0  0  0  0  0  0  0  0  0  0
   39.4070   15.8491   -9.7093 C   0  0  0  0  0  0  0  0  0  0  0  0
 15 16  1  0  0  0
 16  9  1  0  0  0
  9 10  2  0  0  0
 10 11  1  0  0  0
 11  7  1  0  0  0
  7  1  1  0  0  0
  1  2  2  0  0  0
  2  3  1  0  0  0
  3  4  2  0  0  0
  4 21  1  0  0  0
 21 22  3  0  0  0
  4  5  1  0  0  0
  5 23  1  0  0  0
 23 25  1  0  0  0
 25 26  2  0  0  0
 26 27  1  0  0  0
 27 28  2  0  0  0
 28 31  1  0  0  0
 31 32  1  0  0  0
 32 33  1  0  0  0
 33 34  1  0  0  0
 34 35  1  0  0  0
 35 36  1  0  0  0
 35 37  1  0  0  0
 37 38  1  0  0  0
 28 29  1  0  0  0
 29 30  2  0  0  0
  5  6  2  0  0  0
 11 12  2  0  0  0
 12 13  1  0  0  0
 13 17  1  0  0  0
 17 18  1  0  0  0
 13 14  2  0  0  0
 14 19  1  0  0  0
 19 20  1  0  0  0
 14  9  1  0  0  0
  6  1  1  0  0  0
 30 25  1  0  0  0
 38 32  1  0  0  0
  7  8  1  0  0  0
 23 24  1  0  0  0
M  END
> <minimizedAffinity>
-7.99403

> <CNNscore>
0.7747305036

> <CNNaffinity>
7.2964720726

> <CNN_VS>
5.6527996063

> <CNNaffinity_variance>
0.0697752163

$$$$
[H]c1nc(N([H])c2c([H])c(OC([H])([H])[H])c(OC([H])([H])[H])c(OC([H])([H])[H])c2[H])nc(N([H])c2c([H])c([H])c(C([H])([H])N3C([H])([H])C([H])([H])N(C([H])([H])[H])C([H])([H])C3([H])[H])c([H])c2[H])c1C#N


 38 41  0  0  0  0  0  0  0  0999 V2000
   39.0033   11.9566  -17.0298 C   0  0  0  0  0  0  0  0  0  0  0  0
   38.5297   11.0106  -17.8492 N   0  0  0  0  0  0  0  0  0  0  0  0
   37.2685   10.5516  -17.8412 C   0  0  0  0  0  0  0  0  0  0  0  0
   36.4173   11.1063  -16.9173 C   0  0  0  0  0  0  0  0  0  0  0  0
   36.8410   12.1007  -16.0270 C   0  0  0  0  0  0  0  0  0  0  0  0
   38.1140   12.4577  -16.1479 N   0  0  0  0  0  0  0  0  0  0  0  0
   40.3375   12.4253  -17.0547 N   0  0  0  0  0  0  0  0  0  0  0  0
   40.8085   12.3490  -18.0281 H   0  0  0  0  0  0  0  0  0  0  0  0
   43.2861   13.2213  -14.9995 C   0  0  0  0  0  0  0  0  0  0  0  0
   42.4766   12.7576  -16.0098 C   0  0  0  0  0  0  0  0  0  0  0  0
   41.0838   12.9538  -15.9819 C   0  0  0  0  0  0  0  0  0  0  0  0
   40.5889   13.6262  -14.8995 C   0  0  0  0  0  0  0  0  0  0  0  0
   41.4208   14.0980  -13.8701 C   0  0  0  0  0  0  0  0  0  0  0  0
   42.7775   13.8986  -13.9133 C   0  0  0  0  0  0  0  0  0  0  0  0
   45.2320   12.3682  -16.1617 C   0  0  0  0  0  0  0  0  0  0  0  0
   44.6690   13.0303  -15.0207 O   0  0  0  0  0  0  0  0  0  0  0  0
   40.8984   14.7788  -12.7804 O   0  0  0  0  0  0  0  0  0  0  0  0
   40.9175   16.1897  -12.6924 C   0  0  0  0  0  0  0  0  0  0  0  0
   43.6217   14.3560  -12.9073 O   0  0  0  0  0  0  0  0  0  0  0  0
   43.8209   13.5258  -11.7588 C   0  0  0  0  0  0  0  0  0  0  0  0
   35.0843   10.6366  -16.8931 C   0  0  0  0  0  0  0  0  0  0  0  0
   33.9979   10.2407  -16.8617 N   0  0  0  0  0  0  0  0  0  0  0  0
   35.8984   12.5929  -15.1128 N   0  0  0  0  0  0  0  0  0  0  0  0
   34.9027   12.1878  -15.1657 H   0  0  0  0  0  0  0  0  0  0  0  0
   36.0869   13.5799  -14.1094 C   0  0  0  0  0  0  0  0  0  0  0  0
   37.2279   14.3152  -13.9165 C   0  0  0  0  0  0  0  0  0  0  0  0
   37.3349   15.2571  -12.8820 C   0  0  0  0  0  0  0  0  0  0  0  0
   36.3058   15.4970  -12.0048 C   0  0  0  0  0  0  0  0  0  0  0  0
   35.1555   14.7615  -12.1936 C   0  0  0  0  0  0  0  0  0  0  0  0
   35.0437   13.8388  -13.2028 C   0  0  0  0  0  0  0  0  0  0  0  0
   36.4094   16.4881  -10.9037 C   0  0  0  0  0  0  0  0  0  0  0  0
   37.7574   16.8842  -10.6074 N   0  0  0  0  0  0  0  0  0  0  0  0
   37.7407   18.1414   -9.8568 C   0  0  0  0  0  0  0  0  0  0  0  0
   36.9814   18.0769   -8.5937 C   0  0  0  0  0  0  0  0  0  0  0  0
   37.1797   16.9326   -7.7823 N   0  0  0  0  0  0  0  0  0  0  0  0
   36.1501   16.7023   -6.8109 C   0  0  0  0  0  0  0  0  0  0  0  0
   37.6601   15.7613   -8.4222 C   0  0  0  0  0  0  0  0  0  0  0  0
   38.4161   15.9579   -9.6770 C   0  0  0  0  0  0  0  0  0  0  0  0
 15 16  1  0  0  0
 16  9  1  0  0  0
  9 10  2  0  0  0
 10 11  1  0  0  0
 11  7  1  0  0  0
  7  1  1  0  0  0
  1  2  2  0  0  0
  2  3  1  0  0  0
  3  4  2  0  0  0
  4 21  1  0  0  0
 21 22  3  0  0  0
  4  5  1  0  0  0
  5 23  1  0  0  0
 23 25  1  0  0  0
 25 26  2  0  0  0
 26 27  1  0  0  0
 27 28  2  0  0  0
 28 31  1  0  0  0
 31 32  1  0  0  0
 32 33  1  0  0  0
 33 34  1  0  0  0
 34 35  1  0  0  0
 35 36  1  0  0  0
 35 37  1  0  0  0
 37 38  1  0  0  0
 28 29  1  0  0  0
 29 30  2  0  0  0
  5  6  2  0  0  0
 11 12  2  0  0  0
 12 13  1  0  0  0
 13 17  1  0  0  0
 17 18  1  0  0  0
 13 14  2  0  0  0
 14 19  1  0  0  0
 19 20  1  0  0  0
 14  9  1  0  0  0
  6  1  1  0  0  0
 30 25  1  0  0  0
 38 32  1  0  0  0
  7  8  1  0  0  0
 23 24  1  0  0  0
M  END
> <minimizedAffinity>
-8.30907

> <CNNscore>
0.6962474585

> <CNNaffinity>
7.6537504196

> <CNN_VS>
5.3289041519

> <CNNaffinity_variance>
0.1250495613

$$$$
[H]c1nc(N([H])c2c([H])c(OC([H])([H])[H])c(OC([H])([H])[H])c(OC([H])([H])[H])c2[H])nc(N([H])c2c([H])c([H])c(C([H])([H])N3C([H])([H])C([H])([H])N(C([H])([H])[H])C([H])([H])C3([H])[H])c([H])c2[H])c1C#N


 38 41  0  0  0  0  0  0  0  0999 V2000
   41.2353   12.6538  -16.9123 C   0  0  0  0  0  0  0  0  0  0  0  0
   40.8821   12.1403  -18.0963 N   0  0  0  0  0  0  0  0  0  0  0  0
   39.7367   11.4827  -18.3351 C   0  0  0  0  0  0  0  0  0  0  0  0
   38.8777   11.3369  -17.2737 C   0  0  0  0  0  0  0  0  0  0  0  0
   39.1789   11.8474  -16.0049 C   0  0  0  0  0  0  0  0  0  0  0  0
   40.3456   12.4744  -15.9142 N   0  0  0  0  0  0  0  0  0  0  0  0
   42.4488   13.3430  -16.6822 N   0  0  0  0  0  0  0  0  0  0  0  0
   42.7358   14.0031  -17.4927 H   0  0  0  0  0  0  0  0  0  0  0  0
   45.4947   12.6818  -14.7235 C   0  0  0  0  0  0  0  0  0  0  0  0
   44.6076   12.8168  -15.7655 C   0  0  0  0  0  0  0  0  0  0  0  0
   43.2876   13.2544  -15.5527 C   0  0  0  0  0  0  0  0  0  0  0  0
   42.9436   13.5337  -14.2596 C   0  0  0  0  0  0  0  0  0  0  0  0
   43.8544   13.3943  -13.1986 C   0  0  0  0  0  0  0  0  0  0  0  0
   45.1384   12.9668  -13.4238 C   0  0  0  0  0  0  0  0  0  0  0  0
   47.7445   13.1935  -15.4597 C   0  0  0  0  0  0  0  0  0  0  0  0
   46.8061   12.2482  -14.9272 O   0  0  0  0  0  0  0  0  0  0  0  0
   43.4852   13.6838  -11.8933 O   0  0  0  0  0  0  0  0  0  0  0  0
   42.9429   14.9357  -11.5227 C   0  0  0  0  0  0  0  0  0  0  0  0
   46.0581   12.8212  -12.3909 O   0  0  0  0  0  0  0  0  0  0  0  0
   46.7730   13.9799  -11.9503 C   0  0  0  0  0  0  0  0  0  0  0  0
   37.6655   10.6474  -17.5048 C   0  0  0  0  0  0  0  0  0  0  0  0
   36.6796   10.0780  -17.7088 N   0  0  0  0  0  0  0  0  0  0  0  0
   38.2416   11.6339  -14.9840 N   0  0  0  0  0  0  0  0  0  0  0  0
   37.8277   10.6445  -14.8942 H   0  0  0  0  0  0  0  0  0  0  0  0
   37.7522   12.5720  -14.0369 C   0  0  0  0  0  0  0  0  0  0  0  0
   36.7179   12.3589  -13.1625 C   0  0  0  0  0  0  0  0  0  0  0  0
   36.2842   13.3538  -12.2731 C   0  0  0  0  0  0  0  0  0  0  0  0
   36.8689   14.5955  -12.2265 C   0  0  0  0  0  0  0  0  0  0  0  0
   37.9098   14.8162  -13.1027 C   0  0  0  0  0  0  0  0  0  0  0  0
   38.3391   13.8483  -13.9752 C   0  0  0  0  0  0  0  0  0  0  0  0
   36.4154   15.6575  -11.2926 C   0  0  0  0  0  0  0  0  0  0  0  0
   37.4487   16.1396  -10.4199 N   0  0  0  0  0  0  0  0  0  0  0  0
   36.9444   17.2814   -9.6541 C   0  0  0  0  0  0  0  0  0  0  0  0
   35.7481   16.9808   -8.8450 C   0  0  0  0  0  0  0  0  0  0  0  0
   35.7533   15.7654   -8.1171 N   0  0  0  0  0  0  0  0  0  0  0  0
   34.4581   15.3131   -7.6990 C   0  0  0  0  0  0  0  0  0  0  0  0
   36.6164   14.7387   -8.5786 C   0  0  0  0  0  0  0  0  0  0  0  0
   37.7875   15.1682   -9.3716 C   0  0  0  0  0  0  0  0  0  0  0  0
 15 16  1  0  0  0
 16  9  1  0  0  0
  9 10  2  0  0  0
 10 11  1  0  0  0
 11  7  1  0  0  0
  7  1  1  0  0  0
  1  2  2  0  0  0
  2  3  1  0  0  0
  3  4  2  0  0  0
  4 21  1  0  0  0
 21 22  3  0  0  0
  4  5  1  0  0  0
  5 23  1  0  0  0
 23 25  1  0  0  0
 25 26  2  0  0  0
 26 27  1  0  0  0
 27 28  2  0  0  0
 28 31  1  0  0  0
 31 32  1  0  0  0
 32 33  1  0  0  0
 33 34  1  0  0  0
 34 35  1  0  0  0
 35 36  1  0  0  0
 35 37  1  0  0  0
 37 38  1  0  0  0
 28 29  1  0  0  0
 29 30  2  0  0  0
  5  6  2  0  0  0
 11 12  2  0  0  0
 12 13  1  0  0  0
 13 17  1  0  0  0
 17 18  1  0  0  0
 13 14  2  0  0  0
 14 19  1  0  0  0
 19 20  1  0  0  0
 14  9  1  0  0  0
  6  1  1  0  0  0
 30 25  1  0  0  0
 38 32  1  0  0  0
  7  8  1  0  0  0
 23 24  1  0  0  0
M  END
> <minimizedAffinity>
-7.73280

> <CNNscore>
0.6231431365

> <CNNaffinity>
7.2320032120

> <CNN_VS>
4.5065732002

> <CNNaffinity_variance>
0.0972581357

$$$$
[H]c1nc(N([H])c2c([H])c(OC([H])([H])[H])c(OC([H])([H])[H])c(OC([H])([H])[H])c2[H])nc(N([H])c2c([H])c([H])c(C([H])([H])N3C([H])([H])C([H])([H])N(C([H])([H])[H])C([H])([H])C3([H])[H])c([H])c2[H])c1C#N


 38 41  0  0  0  0  0  0  0  0999 V2000
   37.7011   12.0795  -14.9136 C   0  0  0  0  0  0  0  0  0  0  0  0
   37.1965   11.3084  -15.8838 N   0  0  0  0  0  0  0  0  0  0  0  0
   37.8011   11.0579  -17.0555 C   0  0  0  0  0  0  0  0  0  0  0  0
   39.0267   11.6449  -17.2539 C   0  0  0  0  0  0  0  0  0  0  0  0
   39.6181   12.4642  -16.2844 C   0  0  0  0  0  0  0  0  0  0  0  0
   38.9073   12.6242  -15.1746 N   0  0  0  0  0  0  0  0  0  0  0  0
   37.0460   12.3313  -13.6856 N   0  0  0  0  0  0  0  0  0  0  0  0
   36.5256   11.4691  -13.2842 H   0  0  0  0  0  0  0  0  0  0  0  0
   35.5848   15.2339  -11.9562 C   0  0  0  0  0  0  0  0  0  0  0  0
   35.7302   14.0499  -12.6401 C   0  0  0  0  0  0  0  0  0  0  0  0
   37.0013   13.5432  -12.9670 C   0  0  0  0  0  0  0  0  0  0  0  0
   38.0725   14.2927  -12.5681 C   0  0  0  0  0  0  0  0  0  0  0  0
   37.9181   15.5019  -11.8691 C   0  0  0  0  0  0  0  0  0  0  0  0
   36.6710   15.9814  -11.5577 C   0  0  0  0  0  0  0  0  0  0  0  0
   33.1769   15.0619  -12.1500 C   0  0  0  0  0  0  0  0  0  0  0  0
   34.3266   15.7426  -11.6283 O   0  0  0  0  0  0  0  0  0  0  0  0
   39.0186   16.2472  -11.4726 O   0  0  0  0  0  0  0  0  0  0  0  0
   40.3107   16.0246  -12.0015 C   0  0  0  0  0  0  0  0  0  0  0  0
   36.4921   17.1750  -10.8667 O   0  0  0  0  0  0  0  0  0  0  0  0
   36.5622   17.1489   -9.4377 C   0  0  0  0  0  0  0  0  0  0  0  0
   39.6802   11.3930  -18.4818 C   0  0  0  0  0  0  0  0  0  0  0  0
   40.2019   11.1939  -19.4947 N   0  0  0  0  0  0  0  0  0  0  0  0
   40.8657   13.0275  -16.5890 N   0  0  0  0  0  0  0  0  0  0  0  0
   40.9929   13.4387  -17.5754 H   0  0  0  0  0  0  0  0  0  0  0  0
   42.0089   13.1236  -15.7521 C   0  0  0  0  0  0  0  0  0  0  0  0
   43.2891   12.7845  -16.1065 C   0  0  0  0  0  0  0  0  0  0  0  0
   44.3591   12.8908  -15.2049 C   0  0  0  0  0  0  0  0  0  0  0  0
   44.1868   13.3397  -13.9185 C   0  0  0  0  0  0  0  0  0  0  0  0
   42.9021   13.6828  -13.5559 C   0  0  0  0  0  0  0  0  0  0  0  0
   41.8511   13.5814  -14.4320 C   0  0  0  0  0  0  0  0  0  0  0  0
   45.3109   13.4520  -12.9544 C   0  0  0  0  0  0  0  0  0  0  0  0
   44.9000   13.4051  -11.5794 N   0  0  0  0  0  0  0  0  0  0  0  0
   44.9142   12.0164  -11.1150 C   0  0  0  0  0  0  0  0  0  0  0  0
   46.2278   11.3561  -11.2357 C   0  0  0  0  0  0  0  0  0  0  0  0
   47.3620   12.1027  -10.8317 N   0  0  0  0  0  0  0  0  0  0  0  0
   48.6111   11.6162  -11.3414 C   0  0  0  0  0  0  0  0  0  0  0  0
   47.2375   13.5157  -10.8250 C   0  0  0  0  0  0  0  0  0  0  0  0
   45.8688   14.0568  -10.6882 C   0  0  0  0  0  0  0  0  0  0  0  0
 15 16  1  0  0  0
 16  9  1  0  0  0
  9 10  2  0  0  0
 10 11  1  0  0  0
 11  7  1  0  0  0
  7  1  1  0  0  0
  1  2  2  0  0  0
  2  3  1  0  0  0
  3  4  2  0  0  0
  4 21  1  0  0  0
 21 22  3  0  0  0
  4  5  1  0  0  0
  5 23  1  0  0  0
 23 25  1  0  0  0
 25 26  2  0  0  0
 26 27  1  0  0  0
 27 28  2  0  0  0
 28 31  1  0  0  0
 31 32  1  0  0  0
 32 33  1  0  0  0
 33 34  1  0  0  0
 34 35  1  0  0  0
 35 36  1  0  0  0
 35 37  1  0  0  0
 37 38  1  0  0  0
 28 29  1  0  0  0
 29 30  2  0  0  0
  5  6  2  0  0  0
 11 12  2  0  0  0
 12 13  1  0  0  0
 13 17  1  0  0  0
 17 18  1  0  0  0
 13 14  2  0  0  0
 14 19  1  0  0  0
 19 20  1  0  0  0
 14  9  1  0  0  0
  6  1  1  0  0  0
 30 25  1  0  0  0
 38 32  1  0  0  0
  7  8  1  0  0  0
 23 24  1  0  0  0
M  END
> <minimizedAffinity>
-7.97312

> <CNNscore>
0.4178326130

> <CNNaffinity>
7.0432114601

> <CNN_VS>
2.9428834915

> <CNNaffinity_variance>
0.0494280905

$$$$
[H]c1nc(N([H])c2c([H])c(OC([H])([H])[H])c(OC([H])([H])[H])c(OC([H])([H])[H])c2[H])nc(N([H])c2c([H])c([H])c(C([H])([H])N3C([H])([H])C([H])([H])N(C([H])([H])[H])C([H])([H])C3([H])[H])c([H])c2[H])c1C#N


 38 41  0  0  0  0  0  0  0  0999 V2000
   37.8665   12.0141  -14.8248 C   0  0  0  0  0  0  0  0  0  0  0  0
   37.2806   11.3292  -15.8138 N   0  0  0  0  0  0  0  0  0  0  0  0
   37.8211   11.1181  -17.0241 C   0  0  0  0  0  0  0  0  0  0  0  0
   39.0672   11.6520  -17.2435 C   0  0  0  0  0  0  0  0  0  0  0  0
   39.7422   12.3805  -16.2563 C   0  0  0  0  0  0  0  0  0  0  0  0
   39.0884   12.5105  -15.1082 N   0  0  0  0  0  0  0  0  0  0  0  0
   37.2781   12.2256  -13.5561 N   0  0  0  0  0  0  0  0  0  0  0  0
   37.0048   11.3100  -13.0440 H   0  0  0  0  0  0  0  0  0  0  0  0
   37.9778   15.4575  -11.9385 C   0  0  0  0  0  0  0  0  0  0  0  0
   38.1296   14.2480  -12.5749 C   0  0  0  0  0  0  0  0  0  0  0  0
   37.0187   13.4580  -12.9228 C   0  0  0  0  0  0  0  0  0  0  0  0
   35.7913   13.9605  -12.5920 C   0  0  0  0  0  0  0  0  0  0  0  0
   35.6421   15.1973  -11.9419 C   0  0  0  0  0  0  0  0  0  0  0  0
   36.7362   15.9556  -11.6103 C   0  0  0  0  0  0  0  0  0  0  0  0
   40.3366   15.9395  -12.2011 C   0  0  0  0  0  0  0  0  0  0  0  0
   39.0756   16.2468  -11.5905 O   0  0  0  0  0  0  0  0  0  0  0  0
   34.3871   15.6896  -11.6157 O   0  0  0  0  0  0  0  0  0  0  0  0
   33.1954   15.0597  -12.0419 C   0  0  0  0  0  0  0  0  0  0  0  0
   36.6146   17.1826  -10.9671 O   0  0  0  0  0  0  0  0  0  0  0  0
   36.6159   17.2018   -9.5363 C   0  0  0  0  0  0  0  0  0  0  0  0
   39.6539   11.4404  -18.5121 C   0  0  0  0  0  0  0  0  0  0  0  0
   40.1252   11.2529  -19.5516 N   0  0  0  0  0  0  0  0  0  0  0  0
   41.0046   12.8958  -16.5842 N   0  0  0  0  0  0  0  0  0  0  0  0
   41.1450   13.2528  -17.5897 H   0  0  0  0  0  0  0  0  0  0  0  0
   42.1475   13.0057  -15.7486 C   0  0  0  0  0  0  0  0  0  0  0  0
   42.1504   13.4587  -14.4545 C   0  0  0  0  0  0  0  0  0  0  0  0
   43.3342   13.5555  -13.7073 C   0  0  0  0  0  0  0  0  0  0  0  0
   44.5555   13.2030  -14.2270 C   0  0  0  0  0  0  0  0  0  0  0  0
   44.5594   12.7462  -15.5275 C   0  0  0  0  0  0  0  0  0  0  0  0
   43.4061   12.6489  -16.2641 C   0  0  0  0  0  0  0  0  0  0  0  0
   45.8151   13.3055  -13.4472 C   0  0  0  0  0  0  0  0  0  0  0  0
   46.5587   12.0786  -13.3859 N   0  0  0  0  0  0  0  0  0  0  0  0
   47.9852   12.3810  -13.2525 C   0  0  0  0  0  0  0  0  0  0  0  0
   48.3190   13.1925  -12.0666 C   0  0  0  0  0  0  0  0  0  0  0  0
   47.6972   12.8321  -10.8457 N   0  0  0  0  0  0  0  0  0  0  0  0
   47.7062   13.8586   -9.8441 C   0  0  0  0  0  0  0  0  0  0  0  0
   46.4859   12.0988  -10.9283 C   0  0  0  0  0  0  0  0  0  0  0  0
   46.2714   11.3162  -12.1638 C   0  0  0  0  0  0  0  0  0  0  0  0
 15 16  1  0  0  0
 16  9  1  0  0  0
  9 10  2  0  0  0
 10 11  1  0  0  0
 11  7  1  0  0  0
  7  1  1  0  0  0
  1  2  2  0  0  0
  2  3  1  0  0  0
  3  4  2  0  0  0
  4 21  1  0  0  0
 21 22  3  0  0  0
  4  5  1  0  0  0
  5 23  1  0  0  0
 23 25  1  0  0  0
 25 26  2  0  0  0
 26 27  1  0  0  0
 27 28  2  0  0  0
 28 31  1  0  0  0
 31 32  1  0  0  0
 32 33  1  0  0  0
 33 34  1  0  0  0
 34 35  1  0  0  0
 35 36  1  0  0  0
 35 37  1  0  0  0
 37 38  1  0  0  0
 28 29  1  0  0  0
 29 30  2  0  0  0
  5  6  2  0  0  0
 11 12  2  0  0  0
 12 13  1  0  0  0
 13 17  1  0  0  0
 17 18  1  0  0  0
 13 14  2  0  0  0
 14 19  1  0  0  0
 19 20  1  0  0  0
 14  9  1  0  0  0
  6  1  1  0  0  0
 30 25  1  0  0  0
 38 32  1  0  0  0
  7  8  1  0  0  0
 23 24  1  0  0  0
M  END
> <minimizedAffinity>
-8.09061

> <CNNscore>
0.4144913852

> <CNNaffinity>
7.0035910606

> <CNN_VS>
2.9029281139

> <CNNaffinity_variance>
0.0447296873

$$$$
[H]c1nc(N([H])c2c([H])c(OC([H])([H])[H])c(OC([H])([H])[H])c(OC([H])([H])[H])c2[H])nc(N([H])c2c([H])c([H])c(C([H])([H])N3C([H])([H])C([H])([H])N(C([H])([H])[H])C([H])([H])C3([H])[H])c([H])c2[H])c1C#N


 38 41  0  0  0  0  0  0  0  0999 V2000
   37.6761   11.9539  -14.8210 C   0  0  0  0  0  0  0  0  0  0  0  0
   37.0427   11.4043  -15.8637 N   0  0  0  0  0  0  0  0  0  0  0  0
   37.5930   11.1930  -17.0695 C   0  0  0  0  0  0  0  0  0  0  0  0
   38.9029   11.5755  -17.2241 C   0  0  0  0  0  0  0  0  0  0  0  0
   39.6302   12.1571  -16.1783 C   0  0  0  0  0  0  0  0  0  0  0  0
   38.9594   12.3059  -15.0423 N   0  0  0  0  0  0  0  0  0  0  0  0
   37.0764   12.1686  -13.5582 N   0  0  0  0  0  0  0  0  0  0  0  0
   36.7736   11.2555  -13.0583 H   0  0  0  0  0  0  0  0  0  0  0  0
   37.8252   15.4377  -12.0404 C   0  0  0  0  0  0  0  0  0  0  0  0
   37.9541   14.2250  -12.6757 C   0  0  0  0  0  0  0  0  0  0  0  0
   36.8394   13.4013  -12.9167 C   0  0  0  0  0  0  0  0  0  0  0  0
   35.6322   13.8748  -12.4843 C   0  0  0  0  0  0  0  0  0  0  0  0
   35.5062   15.1150  -11.8358 C   0  0  0  0  0  0  0  0  0  0  0  0
   36.6038   15.9063  -11.6093 C   0  0  0  0  0  0  0  0  0  0  0  0
   39.7995   15.9030  -10.7172 C   0  0  0  0  0  0  0  0  0  0  0  0
   38.9269   16.2604  -11.7981 O   0  0  0  0  0  0  0  0  0  0  0  0
   34.2715   15.5776  -11.4054 O   0  0  0  0  0  0  0  0  0  0  0  0
   33.0638   15.2066  -12.0399 C   0  0  0  0  0  0  0  0  0  0  0  0
   36.5050   17.1375  -10.9700 O   0  0  0  0  0  0  0  0  0  0  0  0
   36.5266   17.1630   -9.5394 C   0  0  0  0  0  0  0  0  0  0  0  0
   39.5009   11.3609  -18.4868 C   0  0  0  0  0  0  0  0  0  0  0  0
   39.9878   11.1688  -19.5183 N   0  0  0  0  0  0  0  0  0  0  0  0
   40.9575   12.5251  -16.4417 N   0  0  0  0  0  0  0  0  0  0  0  0
   41.3142   12.3949  -17.4487 H   0  0  0  0  0  0  0  0  0  0  0  0
   41.9145   13.0523  -15.5347 C   0  0  0  0  0  0  0  0  0  0  0  0
   41.6338   13.6282  -14.3225 C   0  0  0  0  0  0  0  0  0  0  0  0
   42.6443   14.1450  -13.4974 C   0  0  0  0  0  0  0  0  0  0  0  0
   43.9697   14.1042  -13.8547 C   0  0  0  0  0  0  0  0  0  0  0  0
   44.2587   13.5260  -15.0720 C   0  0  0  0  0  0  0  0  0  0  0  0
   43.2761   13.0187  -15.8840 C   0  0  0  0  0  0  0  0  0  0  0  0
   45.0469   14.6520  -12.9915 C   0  0  0  0  0  0  0  0  0  0  0  0
   45.9225   15.5659  -13.6698 N   0  0  0  0  0  0  0  0  0  0  0  0
   45.2782   16.8775  -13.7632 C   0  0  0  0  0  0  0  0  0  0  0  0
   44.9097   17.4601  -12.4590 C   0  0  0  0  0  0  0  0  0  0  0  0
   45.8696   17.3705  -11.4209 N   0  0  0  0  0  0  0  0  0  0  0  0
   45.3412   17.5533  -10.1002 C   0  0  0  0  0  0  0  0  0  0  0  0
   46.8462   16.3476  -11.5294 C   0  0  0  0  0  0  0  0  0  0  0  0
   47.1350   15.8530  -12.8921 C   0  0  0  0  0  0  0  0  0  0  0  0
 15 16  1  0  0  0
 16  9  1  0  0  0
  9 10  2  0  0  0
 10 11  1  0  0  0
 11  7  1  0  0  0
  7  1  1  0  0  0
  1  2  2  0  0  0
  2  3  1  0  0  0
  3  4  2  0  0  0
  4 21  1  0  0  0
 21 22  3  0  0  0
  4  5  1  0  0  0
  5 23  1  0  0  0
 23 25  1  0  0  0
 25 26  2  0  0  0
 26 27  1  0  0  0
 27 28  2  0  0  0
 28 31  1  0  0  0
 31 32  1  0  0  0
 32 33  1  0  0  0
 33 34  1  0  0  0
 34 35  1  0  0  0
 35 36  1  0  0  0
 35 37  1  0  0  0
 37 38  1  0  0  0
 28 29  1  0  0  0
 29 30  2  0  0  0
  5  6  2  0  0  0
 11 12  2  0  0  0
 12 13  1  0  0  0
 13 17  1  0  0  0
 17 18  1  0  0  0
 13 14  2  0  0  0
 14 19  1  0  0  0
 19 20  1  0  0  0
 14  9  1  0  0  0
  6  1  1  0  0  0
 30 25  1  0  0  0
 38 32  1  0  0  0
  7  8  1  0  0  0
 23 24  1  0  0  0
M  END
> <minimizedAffinity>
-8.16035

> <CNNscore>
0.4064504206

> <CNNaffinity>
7.0601248741

> <CNN_VS>
2.8695907593

> <CNNaffinity_variance>
0.1031158790

$$$$
[H]c1nc(N([H])c2c([H])c(OC([H])([H])[H])c(OC([H])([H])[H])c(OC([H])([H])[H])c2[H])nc(N([H])c2c([H])c([H])c(C([H])([H])N3C([H])([H])C([H])([H])N(C([H])([H])[H])C([H])([H])C3([H])[H])c([H])c2[H])c1C#N


 38 41  0  0  0  0  0  0  0  0999 V2000
   40.2216   13.4046  -15.2708 C   0  0  0  0  0  0  0  0  0  0  0  0
   40.5704   12.8532  -16.4390 N   0  0  0  0  0  0  0  0  0  0  0  0
   41.8267   12.5421  -16.7944 C   0  0  0  0  0  0  0  0  0  0  0  0
   42.8119   12.8175  -15.8781 C   0  0  0  0  0  0  0  0  0  0  0  0
   42.5232   13.3939  -14.6350 C   0  0  0  0  0  0  0  0  0  0  0  0
   41.2383   13.6482  -14.4184 N   0  0  0  0  0  0  0  0  0  0  0  0
   38.8904   13.7254  -14.9168 N   0  0  0  0  0  0  0  0  0  0  0  0
   38.7916   14.6786  -14.4100 H   0  0  0  0  0  0  0  0  0  0  0  0
   36.6740   11.2666  -16.5272 C   0  0  0  0  0  0  0  0  0  0  0  0
   37.7627   12.0472  -16.2167 C   0  0  0  0  0  0  0  0  0  0  0  0
   37.7306   12.9570  -15.1441 C   0  0  0  0  0  0  0  0  0  0  0  0
   36.5625   13.0178  -14.4368 C   0  0  0  0  0  0  0  0  0  0  0  0
   35.4531   12.2175  -14.7584 C   0  0  0  0  0  0  0  0  0  0  0  0
   35.5016   11.3348  -15.8075 C   0  0  0  0  0  0  0  0  0  0  0  0
   37.6735   10.5723  -18.6211 C   0  0  0  0  0  0  0  0  0  0  0  0
   36.6987   10.3616  -17.5901 O   0  0  0  0  0  0  0  0  0  0  0  0
   34.2770   12.2942  -14.0272 O   0  0  0  0  0  0  0  0  0  0  0  0
   33.8076   13.5096  -13.4786 C   0  0  0  0  0  0  0  0  0  0  0  0
   34.4174   10.5320  -16.1453 O   0  0  0  0  0  0  0  0  0  0  0  0
   33.4946   11.0155  -17.1263 C   0  0  0  0  0  0  0  0  0  0  0  0
   44.1420   12.4969  -16.2333 C   0  0  0  0  0  0  0  0  0  0  0  0
   45.2303   12.2222  -16.5125 N   0  0  0  0  0  0  0  0  0  0  0  0
   43.6016   13.6481  -13.7753 N   0  0  0  0  0  0  0  0  0  0  0  0
   44.5652   13.8073  -14.2275 H   0  0  0  0  0  0  0  0  0  0  0  0
   43.5906   13.7191  -12.3571 C   0  0  0  0  0  0  0  0  0  0  0  0
   44.0653   12.7553  -11.5053 C   0  0  0  0  0  0  0  0  0  0  0  0
   43.9935   12.8995  -10.1114 C   0  0  0  0  0  0  0  0  0  0  0  0
   43.4454   14.0114   -9.5206 C   0  0  0  0  0  0  0  0  0  0  0  0
   42.9668   14.9845  -10.3713 C   0  0  0  0  0  0  0  0  0  0  0  0
   43.0335   14.8504  -11.7351 C   0  0  0  0  0  0  0  0  0  0  0  0
   43.3601   14.1728   -8.0467 C   0  0  0  0  0  0  0  0  0  0  0  0
   42.0292   14.4213   -7.5685 N   0  0  0  0  0  0  0  0  0  0  0  0
   41.2968   13.1557   -7.4900 C   0  0  0  0  0  0  0  0  0  0  0  0
   41.9294   12.1487   -6.6171 C   0  0  0  0  0  0  0  0  0  0  0  0
   42.4216   12.5996   -5.3675 N   0  0  0  0  0  0  0  0  0  0  0  0
   43.3755   11.7250   -4.7495 C   0  0  0  0  0  0  0  0  0  0  0  0
   42.7254   13.9803   -5.2520 C   0  0  0  0  0  0  0  0  0  0  0  0
   42.0184   14.8911   -6.1768 C   0  0  0  0  0  0  0  0  0  0  0  0
 15 16  1  0  0  0
 16  9  1  0  0  0
  9 10  2  0  0  0
 10 11  1  0  0  0
 11  7  1  0  0  0
  7  1  1  0  0  0
  1  2  2  0  0  0
  2  3  1  0  0  0
  3  4  2  0  0  0
  4 21  1  0  0  0
 21 22  3  0  0  0
  4  5  1  0  0  0
  5 23  1  0  0  0
 23 25  1  0  0  0
 25 26  2  0  0  0
 26 27  1  0  0  0
 27 28  2  0  0  0
 28 31  1  0  0  0
 31 32  1  0  0  0
 32 33  1  0  0  0
 33 34  1  0  0  0
 34 35  1  0  0  0
 35 36  1  0  0  0
 35 37  1  0  0  0
 37 38  1  0  0  0
 28 29  1  0  0  0
 29 30  2  0  0  0
  5  6  2  0  0  0
 11 12  2  0  0  0
 12 13  1  0  0  0
 13 17  1  0  0  0
 17 18  1  0  0  0
 13 14  2  0  0  0
 14 19  1  0  0  0
 19 20  1  0  0  0
 14  9  1  0  0  0
  6  1  1  0  0  0
 30 25  1  0  0  0
 38 32  1  0  0  0
  7  8  1  0  0  0
 23 24  1  0  0  0
M  END
> <minimizedAffinity>
-7.65094

> <CNNscore>
0.3168804646

> <CNNaffinity>
6.8030519485

> <CNN_VS>
2.1557543278

> <CNNaffinity_variance>
0.2035197914

$$$$
[H]c1nc(N([H])c2c([H])c(OC([H])([H])[H])c(OC([H])([H])[H])c(OC([H])([H])[H])c2[H])nc(N([H])c2c([H])c([H])c(C([H])([H])N3C([H])([H])C([H])([H])N(C([H])([H])[H])C([H])([H])C3([H])[H])c([H])c2[H])c1C#N


 38 41  0  0  0  0  0  0  0  0999 V2000
   40.7643   13.2869  -15.2933 C   0  0  0  0  0  0  0  0  0  0  0  0
   41.2698   12.6677  -16.3663 N   0  0  0  0  0  0  0  0  0  0  0  0
   42.5756   12.4353  -16.5722 C   0  0  0  0  0  0  0  0  0  0  0  0
   43.4398   12.8726  -15.5986 C   0  0  0  0  0  0  0  0  0  0  0  0
   42.9845   13.5284  -14.4481 C   0  0  0  0  0  0  0  0  0  0  0  0
   41.6687   13.6899  -14.3771 N   0  0  0  0  0  0  0  0  0  0  0  0
   39.3836   13.5225  -15.0966 N   0  0  0  0  0  0  0  0  0  0  0  0
   39.1711   14.4219  -14.5300 H   0  0  0  0  0  0  0  0  0  0  0  0
   36.0413   11.9797  -15.0954 C   0  0  0  0  0  0  0  0  0  0  0  0
   37.1398   12.7323  -14.7522 C   0  0  0  0  0  0  0  0  0  0  0  0
   38.3042   12.7327  -15.5417 C   0  0  0  0  0  0  0  0  0  0  0  0
   38.2777   11.9463  -16.6596 C   0  0  0  0  0  0  0  0  0  0  0  0
   37.1522   11.1795  -17.0057 C   0  0  0  0  0  0  0  0  0  0  0  0
   36.0244   11.1911  -16.2247 C   0  0  0  0  0  0  0  0  0  0  0  0
   34.8121   12.8987  -13.2221 C   0  0  0  0  0  0  0  0  0  0  0  0
   34.8825   11.9745  -14.3168 O   0  0  0  0  0  0  0  0  0  0  0  0
   37.1457   10.3885  -18.1451 O   0  0  0  0  0  0  0  0  0  0  0  0
   38.0369   10.6074  -19.2205 C   0  0  0  0  0  0  0  0  0  0  0  0
   34.8981   10.4413  -16.5461 O   0  0  0  0  0  0  0  0  0  0  0  0
   33.7694   11.1186  -17.1073 C   0  0  0  0  0  0  0  0  0  0  0  0
   44.8195   12.6371  -15.7966 C   0  0  0  0  0  0  0  0  0  0  0  0
   45.9513   12.4610  -15.9575 N   0  0  0  0  0  0  0  0  0  0  0  0
   43.9485   13.9479  -13.5200 N   0  0  0  0  0  0  0  0  0  0  0  0
   44.7819   14.5146  -13.8975 H   0  0  0  0  0  0  0  0  0  0  0  0
   43.9734   13.7136  -12.1197 C   0  0  0  0  0  0  0  0  0  0  0  0
   44.5621   12.6420  -11.4993 C   0  0  0  0  0  0  0  0  0  0  0  0
   44.5189   12.4781  -10.1064 C   0  0  0  0  0  0  0  0  0  0  0  0
   43.8863   13.3791   -9.2854 C   0  0  0  0  0  0  0  0  0  0  0  0
   43.2928   14.4591   -9.9027 C   0  0  0  0  0  0  0  0  0  0  0  0
   43.3310   14.6258  -11.2640 C   0  0  0  0  0  0  0  0  0  0  0  0
   43.8304   13.2135   -7.8106 C   0  0  0  0  0  0  0  0  0  0  0  0
   42.5904   13.6425   -7.2274 N   0  0  0  0  0  0  0  0  0  0  0  0
   41.7277   12.4794   -7.0096 C   0  0  0  0  0  0  0  0  0  0  0  0
   42.3220   11.4448   -6.1421 C   0  0  0  0  0  0  0  0  0  0  0  0
   42.9830   11.8901   -4.9708 N   0  0  0  0  0  0  0  0  0  0  0  0
   43.8852   10.9362   -4.3938 C   0  0  0  0  0  0  0  0  0  0  0  0
   43.4543   13.2279   -4.9630 C   0  0  0  0  0  0  0  0  0  0  0  0
   42.7702   14.1737   -5.8698 C   0  0  0  0  0  0  0  0  0  0  0  0
 15 16  1  0  0  0
 16  9  1  0  0  0
  9 10  2  0  0  0
 10 11  1  0  0  0
 11  7  1  0  0  0
  7  1  1  0  0  0
  1  2  2  0  0  0
  2  3  1  0  0  0
  3  4  2  0  0  0
  4 21  1  0  0  0
 21 22  3  0  0  0
  4  5  1  0  0  0
  5 23  1  0  0  0
 23 25  1  0  0  0
 25 26  2  0  0  0
 26 27  1  0  0  0
 27 28  2  0  0  0
 28 31  1  0  0  0
 31 32  1  0  0  0
 32 33  1  0  0  0
 33 34  1  0  0  0
 34 35  1  0  0  0
 35 36  1  0  0  0
 35 37  1  0  0  0
 37 38  1  0  0  0
 28 29  1  0  0  0
 29 30  2  0  0  0
  5  6  2  0  0  0
 11 12  2  0  0  0
 12 13  1  0  0  0
 13 17  1  0  0  0
 17 18  1  0  0  0
 13 14  2  0  0  0
 14 19  1  0  0  0
 19 20  1  0  0  0
 14  9  1  0  0  0
  6  1  1  0  0  0
 30 25  1  0  0  0
 38 32  1  0  0  0
  7  8  1  0  0  0
 23 24  1  0  0  0
M  END
> <minimizedAffinity>
-7.53339

> <CNNscore>
0.2706372142

> <CNNaffinity>
6.7733511925

> <CNN_VS>
1.8331209421

> <CNNaffinity_variance>
0.1319411695

$$$$
[H]c1nc(N([H])c2c([H])c(OC([H])([H])[H])c(OC([H])([H])[H])c(OC([H])([H])[H])c2[H])nc(N([H])c2c([H])c([H])c(C([H])([H])N3C([H])([H])C([H])([H])N(C([H])([H])[H])C([H])([H])C3([H])[H])c([H])c2[H])c1C#N


 38 41  0  0  0  0  0  0  0  0999 V2000
   40.6472   13.3562  -15.2151 C   0  0  0  0  0  0  0  0  0  0  0  0
   41.1309   12.8245  -16.3437 N   0  0  0  0  0  0  0  0  0  0  0  0
   42.4277   12.5667  -16.5745 C   0  0  0  0  0  0  0  0  0  0  0  0
   43.3064   12.8782  -15.5662 C   0  0  0  0  0  0  0  0  0  0  0  0
   42.8741   13.4371  -14.3571 C   0  0  0  0  0  0  0  0  0  0  0  0
   41.5648   13.6377  -14.2673 N   0  0  0  0  0  0  0  0  0  0  0  0
   39.2756   13.6208  -14.9929 N   0  0  0  0  0  0  0  0  0  0  0  0
   39.0913   14.5418  -14.4517 H   0  0  0  0  0  0  0  0  0  0  0  0
   35.9129   12.1291  -14.8557 C   0  0  0  0  0  0  0  0  0  0  0  0
   37.0310   12.8749  -14.5648 C   0  0  0  0  0  0  0  0  0  0  0  0
   38.1733   12.8345  -15.3850 C   0  0  0  0  0  0  0  0  0  0  0  0
   38.1051   12.0159  -16.4777 C   0  0  0  0  0  0  0  0  0  0  0  0
   36.9597   11.2562  -16.7703 C   0  0  0  0  0  0  0  0  0  0  0  0
   35.8539   11.3079  -15.9600 C   0  0  0  0  0  0  0  0  0  0  0  0
   33.9744   13.3537  -14.0761 C   0  0  0  0  0  0  0  0  0  0  0  0
   34.7758   12.1645  -14.0464 O   0  0  0  0  0  0  0  0  0  0  0  0
   36.9108   10.4321  -17.8849 O   0  0  0  0  0  0  0  0  0  0  0  0
   37.8270   10.5548  -18.9546 C   0  0  0  0  0  0  0  0  0  0  0  0
   34.7087   10.5660  -16.2284 O   0  0  0  0  0  0  0  0  0  0  0  0
   33.7211   11.1321  -17.0954 C   0  0  0  0  0  0  0  0  0  0  0  0
   44.6769   12.6139  -15.7896 C   0  0  0  0  0  0  0  0  0  0  0  0
   45.8002   12.4132  -15.9787 N   0  0  0  0  0  0  0  0  0  0  0  0
   43.8519   13.7317  -13.3960 N   0  0  0  0  0  0  0  0  0  0  0  0
   44.8662   13.8347  -13.7408 H   0  0  0  0  0  0  0  0  0  0  0  0
   43.6774   13.9099  -11.9981 C   0  0  0  0  0  0  0  0  0  0  0  0
   43.9737   12.9838  -11.0315 C   0  0  0  0  0  0  0  0  0  0  0  0
   43.7473   13.2372   -9.6701 C   0  0  0  0  0  0  0  0  0  0  0  0
   43.2174   14.4243   -9.2275 C   0  0  0  0  0  0  0  0  0  0  0  0
   42.9178   15.3600  -10.1941 C   0  0  0  0  0  0  0  0  0  0  0  0
   43.1363   15.1193  -11.5270 C   0  0  0  0  0  0  0  0  0  0  0  0
   42.9694   14.7016   -7.7897 C   0  0  0  0  0  0  0  0  0  0  0  0
   42.5214   13.5560   -7.0489 N   0  0  0  0  0  0  0  0  0  0  0  0
   42.5926   13.8461   -5.6154 C   0  0  0  0  0  0  0  0  0  0  0  0
   41.7962   15.0159   -5.1989 C   0  0  0  0  0  0  0  0  0  0  0  0
   40.4912   15.1299   -5.7382 N   0  0  0  0  0  0  0  0  0  0  0  0
   39.9232   16.4444   -5.6574 C   0  0  0  0  0  0  0  0  0  0  0  0
   40.2325   14.4492   -6.9555 C   0  0  0  0  0  0  0  0  0  0  0  0
   41.0927   13.2854   -7.2562 C   0  0  0  0  0  0  0  0  0  0  0  0
 15 16  1  0  0  0
 16  9  1  0  0  0
  9 10  2  0  0  0
 10 11  1  0  0  0
 11  7  1  0  0  0
  7  1  1  0  0  0
  1  2  2  0  0  0
  2  3  1  0  0  0
  3  4  2  0  0  0
  4 21  1  0  0  0
 21 22  3  0  0  0
  4  5  1  0  0  0
  5 23  1  0  0  0
 23 25  1  0  0  0
 25 26  2  0  0  0
 26 27  1  0  0  0
 27 28  2  0  0  0
 28 31  1  0  0  0
 31 32  1  0  0  0
 32 33  1  0  0  0
 33 34  1  0  0  0
 34 35  1  0  0  0
 35 36  1  0  0  0
 35 37  1  0  0  0
 37 38  1  0  0  0
 28 29  1  0  0  0
 29 30  2  0  0  0
  5  6  2  0  0  0
 11 12  2  0  0  0
 12 13  1  0  0  0
 13 17  1  0  0  0
 17 18  1  0  0  0
 13 14  2  0  0  0
 14 19  1  0  0  0
 19 20  1  0  0  0
 14  9  1  0  0  0
  6  1  1  0  0  0
 30 25  1  0  0  0
 38 32  1  0  0  0
  7  8  1  0  0  0
 23 24  1  0  0  0
M  END
> <minimizedAffinity>
-7.32788

> <CNNscore>
0.2540090382

> <CNNaffinity>
6.7392778397

> <CNN_VS>
1.7118375301

> <CNNaffinity_variance>
0.1097454801

$$$$
[H]c1nc([H])c([H])c(-c2c([H])c([H])c(OC([H])([H])C([H])([H])C([H])([H])N3C(=S)N(c4c([H])c([H])c(C#N)c(C(F)(F)F)c4[H])C(=O)C3(C([H])([H])[H])C([H])([H])[H])c([H])c2[H])c1[H]


 37 40  0  0  0  0  0  0  0  0999 V2000
   36.0510   16.3182  -11.7584 C   0  0  0  0  0  0  0  0  0  0  0  0
   36.8936   15.2507  -11.1208 C   0  0  0  0  0  0  0  0  0  0  0  0
   36.4207   15.0748   -9.6914 C   0  0  0  0  0  0  0  0  0  0  0  0
   38.3054   15.5541  -11.1812 N   0  0  0  0  0  0  0  0  0  0  0  0
   38.7528   15.0035  -12.4211 C   0  0  0  0  0  0  0  0  0  0  0  0
   40.1545   15.4619  -13.1520 S   0  0  0  0  0  0  0  0  0  0  0  0
   37.8138   14.0400  -12.8782 N   0  0  0  0  0  0  0  0  0  0  0  0
   36.7849   14.0090  -11.8993 C   0  0  0  0  0  0  0  0  0  0  0  0
   35.9385   13.0621  -11.7504 O   0  0  0  0  0  0  0  0  0  0  0  0
   37.9116   13.2674  -14.0910 C   0  0  0  0  0  0  0  0  0  0  0  0
   39.1310   12.9936  -14.6625 C   0  0  0  0  0  0  0  0  0  0  0  0
   39.2040   12.2559  -15.8224 C   0  0  0  0  0  0  0  0  0  0  0  0
   38.0873   11.7615  -16.4622 C   0  0  0  0  0  0  0  0  0  0  0  0
   36.8723   12.0442  -15.8774 C   0  0  0  0  0  0  0  0  0  0  0  0
   36.7838   12.7812  -14.7167 C   0  0  0  0  0  0  0  0  0  0  0  0
   35.6493   11.5231  -16.5449 C   0  0  0  0  0  0  0  0  0  0  0  0
   34.5681   12.0041  -15.8157 F   0  0  0  0  0  0  0  0  0  0  0  0
   35.5503   11.9590  -17.8583 F   0  0  0  0  0  0  0  0  0  0  0  0
   35.6152   10.1423  -16.4540 F   0  0  0  0  0  0  0  0  0  0  0  0
   38.1813   10.9898  -17.6768 C   0  0  0  0  0  0  0  0  0  0  0  0
   38.2580   10.3486  -18.6481 N   0  0  0  0  0  0  0  0  0  0  0  0
   39.0996   16.2602  -10.2052 C   0  0  0  0  0  0  0  0  0  0  0  0
   40.2612   15.3953   -9.7774 C   0  0  0  0  0  0  0  0  0  0  0  0
   39.8689   14.7744   -8.4290 C   0  0  0  0  0  0  0  0  0  0  0  0
   41.0207   14.8429   -7.6310 O   0  0  0  0  0  0  0  0  0  0  0  0
   41.3966   13.7405   -6.8893 C   0  0  0  0  0  0  0  0  0  0  0  0
   40.7165   13.4120   -5.7261 C   0  0  0  0  0  0  0  0  0  0  0  0
   41.0874   12.3131   -4.9828 C   0  0  0  0  0  0  0  0  0  0  0  0
   42.1564   11.5060   -5.3839 C   0  0  0  0  0  0  0  0  0  0  0  0
   42.8066   11.8628   -6.5420 C   0  0  0  0  0  0  0  0  0  0  0  0
   42.4499   12.9654   -7.3064 C   0  0  0  0  0  0  0  0  0  0  0  0
   42.5094   10.3564   -4.5638 C   0  0  0  0  0  0  0  0  0  0  0  0
   43.5843    9.5681   -4.9137 C   0  0  0  0  0  0  0  0  0  0  0  0
   43.9365    8.4576   -4.1363 C   0  0  0  0  0  0  0  0  0  0  0  0
   43.2156    8.1718   -3.0476 N   0  0  0  0  0  0  0  0  0  0  0  0
   42.1573    8.9073   -2.6601 C   0  0  0  0  0  0  0  0  0  0  0  0
   41.8122   10.0014   -3.4290 C   0  0  0  0  0  0  0  0  0  0  0  0
  1  2  1  0  0  0
  2  3  1  0  0  0
  2  4  1  0  0  0
  4 22  1  0  0  0
 22 23  1  0  0  0
 23 24  1  0  0  0
 24 25  1  0  0  0
 25 26  1  0  0  0
 26 27  2  0  0  0
 27 28  1  0  0  0
 28 29  2  0  0  0
 29 30  1  0  0  0
 30 31  2  0  0  0
 29 32  1  0  0  0
 32 33  2  0  0  0
 33 34  1  0  0  0
 34 35  2  0  0  0
 35 36  1  0  0  0
 36 37  2  0  0  0
  4  5  1  0  0  0
  5  6  2  0  0  0
  5  7  1  0  0  0
  7  8  1  0  0  0
  8  9  2  0  0  0
  7 10  1  0  0  0
 10 11  2  0  0  0
 11 12  1  0  0  0
 12 13  2  0  0  0
 13 20  1  0  0  0
 20 21  3  0  0  0
 13 14  1  0  0  0
 14 15  2  0  0  0
 14 16  1  0  0  0
 16 17  1  0  0  0
 16 18  1  0  0  0
 16 19  1  0  0  0
  8  2  1  0  0  0
 15 10  1  0  0  0
 31 26  1  0  0  0
 37 32  1  0  0  0
M  END
> <minimizedAffinity>
-9.04490

> <CNNscore>
0.3156881630

> <CNNaffinity>
6.4776124954

> <CNN_VS>
2.0449056625

> <CNNaffinity_variance>
0.1290152967

$$$$
[H]c1nc([H])c([H])c(-c2c([H])c([H])c(OC([H])([H])C([H])([H])C([H])([H])N3C(=S)N(c4c([H])c([H])c(C#N)c(C(F)(F)F)c4[H])C(=O)C3(C([H])([H])[H])C([H])([H])[H])c([H])c2[H])c1[H]


 37 40  0  0  0  0  0  0  0  0999 V2000
   36.0664   16.3981  -11.6000 C   0  0  0  0  0  0  0  0  0  0  0  0
   36.8846   15.2786  -11.0225 C   0  0  0  0  0  0  0  0  0  0  0  0
   36.4730   15.0988   -9.5748 C   0  0  0  0  0  0  0  0  0  0  0  0
   38.3051   15.5133  -11.1472 N   0  0  0  0  0  0  0  0  0  0  0  0
   38.6641   14.9652  -12.4166 C   0  0  0  0  0  0  0  0  0  0  0  0
   40.0500   15.3681  -13.2079 S   0  0  0  0  0  0  0  0  0  0  0  0
   37.6571   14.0578  -12.8430 N   0  0  0  0  0  0  0  0  0  0  0  0
   36.6765   14.0587  -11.8153 C   0  0  0  0  0  0  0  0  0  0  0  0
   35.7919   13.1519  -11.6407 O   0  0  0  0  0  0  0  0  0  0  0  0
   37.6575   13.3046  -14.0718 C   0  0  0  0  0  0  0  0  0  0  0  0
   36.5012   12.7500  -14.5655 C   0  0  0  0  0  0  0  0  0  0  0  0
   36.5220   12.0320  -15.7397 C   0  0  0  0  0  0  0  0  0  0  0  0
   37.6740   11.8321  -16.4703 C   0  0  0  0  0  0  0  0  0  0  0  0
   38.8250   12.3940  -15.9627 C   0  0  0  0  0  0  0  0  0  0  0  0
   38.8194   13.1152  -14.7888 C   0  0  0  0  0  0  0  0  0  0  0  0
   40.0839   12.1957  -16.7298 C   0  0  0  0  0  0  0  0  0  0  0  0
   41.1251   12.5165  -15.8666 F   0  0  0  0  0  0  0  0  0  0  0  0
   40.2281   10.8842  -17.1589 F   0  0  0  0  0  0  0  0  0  0  0  0
   40.1408   13.0935  -17.7819 F   0  0  0  0  0  0  0  0  0  0  0  0
   37.6784   11.0774  -17.6991 C   0  0  0  0  0  0  0  0  0  0  0  0
   37.6925   10.4521  -18.6836 N   0  0  0  0  0  0  0  0  0  0  0  0
   39.1798   16.1608  -10.1998 C   0  0  0  0  0  0  0  0  0  0  0  0
   40.2166   15.1762   -9.7142 C   0  0  0  0  0  0  0  0  0  0  0  0
   40.1874   15.2337   -8.1800 C   0  0  0  0  0  0  0  0  0  0  0  0
   41.5107   15.0172   -7.7676 O   0  0  0  0  0  0  0  0  0  0  0  0
   41.8015   13.9277   -6.9707 C   0  0  0  0  0  0  0  0  0  0  0  0
   41.2451   12.6877   -7.2468 C   0  0  0  0  0  0  0  0  0  0  0  0
   41.5322   11.5976   -6.4550 C   0  0  0  0  0  0  0  0  0  0  0  0
   42.3895   11.7172   -5.3569 C   0  0  0  0  0  0  0  0  0  0  0  0
   42.9221   12.9617   -5.1144 C   0  0  0  0  0  0  0  0  0  0  0  0
   42.6466   14.0735   -5.8989 C   0  0  0  0  0  0  0  0  0  0  0  0
   42.6609   10.5357   -4.5512 C   0  0  0  0  0  0  0  0  0  0  0  0
   43.7502    9.7428   -4.8414 C   0  0  0  0  0  0  0  0  0  0  0  0
   44.0248    8.6018   -4.0770 C   0  0  0  0  0  0  0  0  0  0  0  0
   43.2154    8.2913   -3.0595 N   0  0  0  0  0  0  0  0  0  0  0  0
   42.1392    9.0299   -2.7323 C   0  0  0  0  0  0  0  0  0  0  0  0
   41.8708   10.1541   -3.4883 C   0  0  0  0  0  0  0  0  0  0  0  0
  1  2  1  0  0  0
  2  3  1  0  0  0
  2  4  1  0  0  0
  4 22  1  0  0  0
 22 23  1  0  0  0
 23 24  1  0  0  0
 24 25  1  0  0  0
 25 26  1  0  0  0
 26 27  2  0  0  0
 27 28  1  0  0  0
 28 29  2  0  0  0
 29 30  1  0  0  0
 30 31  2  0  0  0
 29 32  1  0  0  0
 32 33  2  0  0  0
 33 34  1  0  0  0
 34 35  2  0  0  0
 35 36  1  0  0  0
 36 37  2  0  0  0
  4  5  1  0  0  0
  5  6  2  0  0  0
  5  7  1  0  0  0
  7  8  1  0  0  0
  8  9  2  0  0  0
  7 10  1  0  0  0
 10 11  2  0  0  0
 11 12  1  0  0  0
 12 13  2  0  0  0
 13 20  1  0  0  0
 20 21  3  0  0  0
 13 14  1  0  0  0
 14 15  2  0  0  0
 14 16  1  0  0  0
 16 17  1  0  0  0
 16 18  1  0  0  0
 16 19  1  0  0  0
  8  2  1  0  0  0
 15 10  1  0  0  0
 31 26  1  0  0  0
 37 32  1  0  0  0
M  END
> <minimizedAffinity>
-9.19752

> <CNNscore>
0.2701295614

> <CNNaffinity>
6.1512322426

> <CNN_VS>
1.6616296768

> <CNNaffinity_variance>
0.1971932352

$$$$
[H]c1nc([H])c([H])c(-c2c([H])c([H])c(OC([H])([H])C([H])([H])C([H])([H])N3C(=S)N(c4c([H])c([H])c(C#N)c(C(F)(F)F)c4[H])C(=O)C3(C([H])([H])[H])C([H])([H])[H])c([H])c2[H])c1[H]


 37 40  0  0  0  0  0  0  0  0999 V2000
   36.0885   16.4070  -11.6736 C   0  0  0  0  0  0  0  0  0  0  0  0
   36.9407   15.3448  -11.0399 C   0  0  0  0  0  0  0  0  0  0  0  0
   36.4599   15.1491   -9.6158 C   0  0  0  0  0  0  0  0  0  0  0  0
   38.3487   15.6674  -11.0872 N   0  0  0  0  0  0  0  0  0  0  0  0
   38.8124   15.1347  -12.3289 C   0  0  0  0  0  0  0  0  0  0  0  0
   40.2130   15.6186  -13.0452 S   0  0  0  0  0  0  0  0  0  0  0  0
   37.8896   14.1631  -12.8019 N   0  0  0  0  0  0  0  0  0  0  0  0
   36.8542   14.1091  -11.8308 C   0  0  0  0  0  0  0  0  0  0  0  0
   36.0195   13.1498  -11.6970 O   0  0  0  0  0  0  0  0  0  0  0  0
   38.0065   13.4035  -14.0211 C   0  0  0  0  0  0  0  0  0  0  0  0
   36.9778   12.6065  -14.4630 C   0  0  0  0  0  0  0  0  0  0  0  0
   37.1090   11.8867  -15.6289 C   0  0  0  0  0  0  0  0  0  0  0  0
   38.2503   11.9217  -16.4015 C   0  0  0  0  0  0  0  0  0  0  0  0
   39.2727   12.7248  -15.9456 C   0  0  0  0  0  0  0  0  0  0  0  0
   39.1557   13.4511  -14.7807 C   0  0  0  0  0  0  0  0  0  0  0  0
   40.5168   12.7834  -16.7589 C   0  0  0  0  0  0  0  0  0  0  0  0
   41.4054   13.5927  -16.0607 F   0  0  0  0  0  0  0  0  0  0  0  0
   41.0791   11.5276  -16.9369 F   0  0  0  0  0  0  0  0  0  0  0  0
   40.2616   13.4117  -17.9657 F   0  0  0  0  0  0  0  0  0  0  0  0
   38.3715   11.1614  -17.6209 C   0  0  0  0  0  0  0  0  0  0  0  0
   38.4870   10.5560  -18.6111 N   0  0  0  0  0  0  0  0  0  0  0  0
   39.1264   16.3747  -10.0987 C   0  0  0  0  0  0  0  0  0  0  0  0
   40.0625   15.4119   -9.4083 C   0  0  0  0  0  0  0  0  0  0  0  0
   41.4274   16.1108   -9.3308 C   0  0  0  0  0  0  0  0  0  0  0  0
   42.3725   15.0828   -9.1963 O   0  0  0  0  0  0  0  0  0  0  0  0
   43.0732   14.6581  -10.3078 C   0  0  0  0  0  0  0  0  0  0  0  0
   43.3044   15.5252  -11.3652 C   0  0  0  0  0  0  0  0  0  0  0  0
   44.0031   15.1065  -12.4762 C   0  0  0  0  0  0  0  0  0  0  0  0
   44.4936   13.7999  -12.5622 C   0  0  0  0  0  0  0  0  0  0  0  0
   44.2449   12.9692  -11.4948 C   0  0  0  0  0  0  0  0  0  0  0  0
   43.5435   13.3699  -10.3657 C   0  0  0  0  0  0  0  0  0  0  0  0
   45.2253   13.4061  -13.7572 C   0  0  0  0  0  0  0  0  0  0  0  0
   46.6033   13.3846  -13.7420 C   0  0  0  0  0  0  0  0  0  0  0  0
   47.3227   13.0095  -14.8837 C   0  0  0  0  0  0  0  0  0  0  0  0
   46.6542   12.6711  -15.9907 N   0  0  0  0  0  0  0  0  0  0  0  0
   45.3103   12.6743  -16.0606 C   0  0  0  0  0  0  0  0  0  0  0  0
   44.6038   13.0452  -14.9333 C   0  0  0  0  0  0  0  0  0  0  0  0
  1  2  1  0  0  0
  2  3  1  0  0  0
  2  4  1  0  0  0
  4 22  1  0  0  0
 22 23  1  0  0  0
 23 24  1  0  0  0
 24 25  1  0  0  0
 25 26  1  0  0  0
 26 27  2  0  0  0
 27 28  1  0  0  0
 28 29  2  0  0  0
 29 30  1  0  0  0
 30 31  2  0  0  0
 29 32  1  0  0  0
 32 33  2  0  0  0
 33 34  1  0  0  0
 34 35  2  0  0  0
 35 36  1  0  0  0
 36 37  2  0  0  0
  4  5  1  0  0  0
  5  6  2  0  0  0
  5  7  1  0  0  0
  7  8  1  0  0  0
  8  9  2  0  0  0
  7 10  1  0  0  0
 10 11  2  0  0  0
 11 12  1  0  0  0
 12 13  2  0  0  0
 13 20  1  0  0  0
 20 21  3  0  0  0
 13 14  1  0  0  0
 14 15  2  0  0  0
 14 16  1  0  0  0
 16 17  1  0  0  0
 16 18  1  0  0  0
 16 19  1  0  0  0
  8  2  1  0  0  0
 15 10  1  0  0  0
 31 26  1  0  0  0
 37 32  1  0  0  0
M  END
> <minimizedAffinity>
-8.53944

> <CNNscore>
0.1847014278

> <CNNaffinity>
6.9118041992

> <CNN_VS>
1.2766201496

> <CNNaffinity_variance>
0.2600658834

$$$$
[H]c1nc([H])c([H])c(-c2c([H])c([H])c(OC([H])([H])C([H])([H])C([H])([H])N3C(=S)N(c4c([H])c([H])c(C#N)c(C(F)(F)F)c4[H])C(=O)C3(C([H])([H])[H])C([H])([H])[H])c([H])c2[H])c1[H]


 37 40  0  0  0  0  0  0  0  0999 V2000
   36.9323   16.7694  -11.2171 C   0  0  0  0  0  0  0  0  0  0  0  0
   37.5271   15.4288  -10.8931 C   0  0  0  0  0  0  0  0  0  0  0  0
   37.8139   15.3930   -9.4051 C   0  0  0  0  0  0  0  0  0  0  0  0
   38.7128   15.1497  -11.6709 N   0  0  0  0  0  0  0  0  0  0  0  0
   38.2382   14.5212  -12.8627 C   0  0  0  0  0  0  0  0  0  0  0  0
   39.1339   14.4173  -14.2396 S   0  0  0  0  0  0  0  0  0  0  0  0
   36.9223   14.0298  -12.6477 N   0  0  0  0  0  0  0  0  0  0  0  0
   36.5988   14.3669  -11.3062 C   0  0  0  0  0  0  0  0  0  0  0  0
   35.6673   13.8279  -10.6156 O   0  0  0  0  0  0  0  0  0  0  0  0
   36.1069   13.3351  -13.6119 C   0  0  0  0  0  0  0  0  0  0  0  0
   34.7399   13.2837  -13.4807 C   0  0  0  0  0  0  0  0  0  0  0  0
   33.9781   12.6134  -14.4108 C   0  0  0  0  0  0  0  0  0  0  0  0
   34.5273   11.9709  -15.5000 C   0  0  0  0  0  0  0  0  0  0  0  0
   35.8986   12.0311  -15.6179 C   0  0  0  0  0  0  0  0  0  0  0  0
   36.6740   12.6983  -14.6949 C   0  0  0  0  0  0  0  0  0  0  0  0
   36.5199   11.3474  -16.7837 C   0  0  0  0  0  0  0  0  0  0  0  0
   36.1492   10.0105  -16.6991 F   0  0  0  0  0  0  0  0  0  0  0  0
   36.0775   11.8733  -17.9890 F   0  0  0  0  0  0  0  0  0  0  0  0
   37.8992   11.3914  -16.6754 F   0  0  0  0  0  0  0  0  0  0  0  0
   33.7146   11.2732  -16.4656 C   0  0  0  0  0  0  0  0  0  0  0  0
   33.0669   10.7190  -17.2617 N   0  0  0  0  0  0  0  0  0  0  0  0
   40.0836   15.4399  -11.3264 C   0  0  0  0  0  0  0  0  0  0  0  0
   40.6335   16.4797  -12.2734 C   0  0  0  0  0  0  0  0  0  0  0  0
   42.1111   16.1272  -12.4974 C   0  0  0  0  0  0  0  0  0  0  0  0
   42.6378   15.8740  -11.2221 O   0  0  0  0  0  0  0  0  0  0  0  0
   43.4248   14.7566  -11.0247 C   0  0  0  0  0  0  0  0  0  0  0  0
   43.5895   13.8260  -12.0396 C   0  0  0  0  0  0  0  0  0  0  0  0
   44.3738   12.7098  -11.8478 C   0  0  0  0  0  0  0  0  0  0  0  0
   45.0198   12.4908  -10.6272 C   0  0  0  0  0  0  0  0  0  0  0  0
   44.8330   13.4349   -9.6448 C   0  0  0  0  0  0  0  0  0  0  0  0
   44.0476   14.5666   -9.8163 C   0  0  0  0  0  0  0  0  0  0  0  0
   45.8370   11.2960  -10.4744 C   0  0  0  0  0  0  0  0  0  0  0  0
   46.2233   10.8853   -9.2168 C   0  0  0  0  0  0  0  0  0  0  0  0
   47.0107    9.7387   -9.0522 C   0  0  0  0  0  0  0  0  0  0  0  0
   47.3830    9.0457  -10.1330 N   0  0  0  0  0  0  0  0  0  0  0  0
   47.0340    9.4014  -11.3830 C   0  0  0  0  0  0  0  0  0  0  0  0
   46.2580   10.5327  -11.5420 C   0  0  0  0  0  0  0  0  0  0  0  0
  1  2  1  0  0  0
  2  3  1  0  0  0
  2  4  1  0  0  0
  4 22  1  0  0  0
 22 23  1  0  0  0
 23 24  1  0  0  0
 24 25  1  0  0  0
 25 26  1  0  0  0
 26 27  2  0  0  0
 27 28  1  0  0  0
 28 29  2  0  0  0
 29 30  1  0  0  0
 30 31  2  0  0  0
 29 32  1  0  0  0
 32 33  2  0  0  0
 33 34  1  0  0  0
 34 35  2  0  0  0
 35 36  1  0  0  0
 36 37  2  0  0  0
  4  5  1  0  0  0
  5  6  2  0  0  0
  5  7  1  0  0  0
  7  8  1  0  0  0
  8  9  2  0  0  0
  7 10  1  0  0  0
 10 11  2  0  0  0
 11 12  1  0  0  0
 12 13  2  0  0  0
 13 20  1  0  0  0
 20 21  3  0  0  0
 13 14  1  0  0  0
 14 15  2  0  0  0
 14 16  1  0  0  0
 16 17  1  0  0  0
 16 18  1  0  0  0
 16 19  1  0  0  0
  8  2  1  0  0  0
 15 10  1  0  0  0
 31 26  1  0  0  0
 37 32  1  0  0  0
M  END
> <minimizedAffinity>
-8.01637

> <CNNscore>
0.1806374490

> <CNNaffinity>
6.4741315842

> <CNN_VS>
1.1694706678

> <CNNaffinity_variance>
0.1140938848

$$$$
[H]c1nc([H])c([H])c(-c2c([H])c([H])c(OC([H])([H])C([H])([H])C([H])([H])N3C(=S)N(c4c([H])c([H])c(C#N)c(C(F)(F)F)c4[H])C(=O)C3(C([H])([H])[H])C([H])([H])[H])c([H])c2[H])c1[H]


 37 40  0  0  0  0  0  0  0  0999 V2000
   36.5748   14.8462  -14.3969 C   0  0  0  0  0  0  0  0  0  0  0  0
   37.1868   14.1140  -13.2370 C   0  0  0  0  0  0  0  0  0  0  0  0
   36.0690   13.4309  -12.4745 C   0  0  0  0  0  0  0  0  0  0  0  0
   37.9600   14.9853  -12.3817 N   0  0  0  0  0  0  0  0  0  0  0  0
   39.2780   14.9759  -12.9328 C   0  0  0  0  0  0  0  0  0  0  0  0
   40.3983   16.1343  -12.5979 S   0  0  0  0  0  0  0  0  0  0  0  0
   39.4312   13.8424  -13.7759 N   0  0  0  0  0  0  0  0  0  0  0  0
   38.1871   13.1580  -13.7324 C   0  0  0  0  0  0  0  0  0  0  0  0
   38.0058   11.9377  -14.0688 O   0  0  0  0  0  0  0  0  0  0  0  0
   40.6178   13.4854  -14.5119 C   0  0  0  0  0  0  0  0  0  0  0  0
   40.5357   12.8388  -15.7217 C   0  0  0  0  0  0  0  0  0  0  0  0
   41.6805   12.5040  -16.4089 C   0  0  0  0  0  0  0  0  0  0  0  0
   42.9436   12.7900  -15.9360 C   0  0  0  0  0  0  0  0  0  0  0  0
   43.0097   13.4382  -14.7221 C   0  0  0  0  0  0  0  0  0  0  0  0
   41.8726   13.7796  -14.0231 C   0  0  0  0  0  0  0  0  0  0  0  0
   44.3595   13.7607  -14.1866 C   0  0  0  0  0  0  0  0  0  0  0  0
   45.0336   12.5512  -14.0650 F   0  0  0  0  0  0  0  0  0  0  0  0
   45.0669   14.5994  -15.0357 F   0  0  0  0  0  0  0  0  0  0  0  0
   44.2467   14.2897  -12.9125 F   0  0  0  0  0  0  0  0  0  0  0  0
   44.1331   12.4325  -16.6688 C   0  0  0  0  0  0  0  0  0  0  0  0
   45.0870   12.1251  -17.2654 N   0  0  0  0  0  0  0  0  0  0  0  0
   37.5073   15.7120  -11.2203 C   0  0  0  0  0  0  0  0  0  0  0  0
   38.0935   15.0910   -9.9751 C   0  0  0  0  0  0  0  0  0  0  0  0
   38.5707   16.2527   -9.0917 C   0  0  0  0  0  0  0  0  0  0  0  0
   37.4874   16.5632   -8.2563 O   0  0  0  0  0  0  0  0  0  0  0  0
   37.1002   17.8808   -8.1118 C   0  0  0  0  0  0  0  0  0  0  0  0
   35.9241   18.1980   -7.4488 C   0  0  0  0  0  0  0  0  0  0  0  0
   35.5335   19.5108   -7.3017 C   0  0  0  0  0  0  0  0  0  0  0  0
   36.3129   20.5510   -7.8173 C   0  0  0  0  0  0  0  0  0  0  0  0
   37.4717   20.1980   -8.4682 C   0  0  0  0  0  0  0  0  0  0  0  0
   37.8845   18.8821   -8.6278 C   0  0  0  0  0  0  0  0  0  0  0  0
   35.8566   21.9212   -7.6361 C   0  0  0  0  0  0  0  0  0  0  0  0
   34.5186   22.2224   -7.7724 C   0  0  0  0  0  0  0  0  0  0  0  0
   34.0631   23.5360   -7.6026 C   0  0  0  0  0  0  0  0  0  0  0  0
   34.9445   24.4959   -7.3054 N   0  0  0  0  0  0  0  0  0  0  0  0
   36.2610   24.2575   -7.1606 C   0  0  0  0  0  0  0  0  0  0  0  0
   36.7072   22.9614   -7.3291 C   0  0  0  0  0  0  0  0  0  0  0  0
  1  2  1  0  0  0
  2  3  1  0  0  0
  2  4  1  0  0  0
  4 22  1  0  0  0
 22 23  1  0  0  0
 23 24  1  0  0  0
 24 25  1  0  0  0
 25 26  1  0  0  0
 26 27  2  0  0  0
 27 28  1  0  0  0
 28 29  2  0  0  0
 29 30  1  0  0  0
 30 31  2  0  0  0
 29 32  1  0  0  0
 32 33  2  0  0  0
 33 34  1  0  0  0
 34 35  2  0  0  0
 35 36  1  0  0  0
 36 37  2  0  0  0
  4  5  1  0  0  0
  5  6  2  0  0  0
  5  7  1  0  0  0
  7  8  1  0  0  0
  8  9  2  0  0  0
  7 10  1  0  0  0
 10 11  2  0  0  0
 11 12  1  0  0  0
 12 13  2  0  0  0
 13 20  1  0  0  0
 20 21  3  0  0  0
 13 14  1  0  0  0
 14 15  2  0  0  0
 14 16  1  0  0  0
 16 17  1  0  0  0
 16 18  1  0  0  0
 16 19  1  0  0  0
  8  2  1  0  0  0
 15 10  1  0  0  0
 31 26  1  0  0  0
 37 32  1  0  0  0
M  END
> <minimizedAffinity>
-8.43392

> <CNNscore>
0.1693466306

> <CNNaffinity>
5.9860978127

> <CNN_VS>
1.0137255192

> <CNNaffinity_variance>
0.1955476105

$$$$
[H]c1nc([H])c([H])c(-c2c([H])c([H])c(OC([H])([H])C([H])([H])C([H])([H])N3C(=S)N(c4c([H])c([H])c(C#N)c(C(F)(F)F)c4[H])C(=O)C3(C([H])([H])[H])C([H])([H])[H])c([H])c2[H])c1[H]


 37 40  0  0  0  0  0  0  0  0999 V2000
   36.1205   16.5675  -11.5925 C   0  0  0  0  0  0  0  0  0  0  0  0
   36.9241   15.4923  -10.9185 C   0  0  0  0  0  0  0  0  0  0  0  0
   36.3787   15.3124   -9.5157 C   0  0  0  0  0  0  0  0  0  0  0  0
   38.3387   15.7878  -10.9062 N   0  0  0  0  0  0  0  0  0  0  0  0
   38.8451   15.2404  -12.1247 C   0  0  0  0  0  0  0  0  0  0  0  0
   40.2843   15.6942  -12.7818 S   0  0  0  0  0  0  0  0  0  0  0  0
   37.9251   14.2844  -12.6333 N   0  0  0  0  0  0  0  0  0  0  0  0
   36.8480   14.2547  -11.7076 C   0  0  0  0  0  0  0  0  0  0  0  0
   35.9899   13.3121  -11.6062 O   0  0  0  0  0  0  0  0  0  0  0  0
   38.0796   13.5169  -13.8434 C   0  0  0  0  0  0  0  0  0  0  0  0
   37.1076   12.6375  -14.2560 C   0  0  0  0  0  0  0  0  0  0  0  0
   37.2744   11.9116  -15.4135 C   0  0  0  0  0  0  0  0  0  0  0  0
   38.3971   12.0210  -16.2062 C   0  0  0  0  0  0  0  0  0  0  0  0
   39.3626   12.9064  -15.7796 C   0  0  0  0  0  0  0  0  0  0  0  0
   39.2095   13.6397  -14.6234 C   0  0  0  0  0  0  0  0  0  0  0  0
   40.5854   13.0465  -16.6151 C   0  0  0  0  0  0  0  0  0  0  0  0
   41.1628   11.7839  -16.6818 F   0  0  0  0  0  0  0  0  0  0  0  0
   40.2893   13.4865  -17.8971 F   0  0  0  0  0  0  0  0  0  0  0  0
   41.4964   13.8740  -15.9815 F   0  0  0  0  0  0  0  0  0  0  0  0
   38.5560   11.2532  -17.4165 C   0  0  0  0  0  0  0  0  0  0  0  0
   38.7048   10.6328  -18.3929 N   0  0  0  0  0  0  0  0  0  0  0  0
   39.0866   16.4848   -9.8880 C   0  0  0  0  0  0  0  0  0  0  0  0
   39.9670   15.5060   -9.1483 C   0  0  0  0  0  0  0  0  0  0  0  0
   40.1199   16.0500   -7.7206 C   0  0  0  0  0  0  0  0  0  0  0  0
   39.4357   15.1452   -6.8952 O   0  0  0  0  0  0  0  0  0  0  0  0
   38.2727   15.5472   -6.2685 C   0  0  0  0  0  0  0  0  0  0  0  0
   37.8507   16.8657   -6.3508 C   0  0  0  0  0  0  0  0  0  0  0  0
   36.6911   17.2717   -5.7277 C   0  0  0  0  0  0  0  0  0  0  0  0
   35.9154   16.3647   -4.9992 C   0  0  0  0  0  0  0  0  0  0  0  0
   36.3654   15.0665   -4.9398 C   0  0  0  0  0  0  0  0  0  0  0  0
   37.5303   14.6356   -5.5599 C   0  0  0  0  0  0  0  0  0  0  0  0
   34.6989   16.8431   -4.3589 C   0  0  0  0  0  0  0  0  0  0  0  0
   34.0085   17.9041   -4.9039 C   0  0  0  0  0  0  0  0  0  0  0  0
   32.8371   18.3778   -4.2996 C   0  0  0  0  0  0  0  0  0  0  0  0
   32.3958   17.7857   -3.1853 N   0  0  0  0  0  0  0  0  0  0  0  0
   33.0301   16.7469   -2.6114 C   0  0  0  0  0  0  0  0  0  0  0  0
   34.1852   16.2825   -3.2093 C   0  0  0  0  0  0  0  0  0  0  0  0
  1  2  1  0  0  0
  2  3  1  0  0  0
  2  4  1  0  0  0
  4 22  1  0  0  0
 22 23  1  0  0  0
 23 24  1  0  0  0
 24 25  1  0  0  0
 25 26  1  0  0  0
 26 27  2  0  0  0
 27 28  1  0  0  0
 28 29  2  0  0  0
 29 30  1  0  0  0
 30 31  2  0  0  0
 29 32  1  0  0  0
 32 33  2  0  0  0
 33 34  1  0  0  0
 34 35  2  0  0  0
 35 36  1  0  0  0
 36 37  2  0  0  0
  4  5  1  0  0  0
  5  6  2  0  0  0
  5  7  1  0  0  0
  7  8  1  0  0  0
  8  9  2  0  0  0
  7 10  1  0  0  0
 10 11  2  0  0  0
 11 12  1  0  0  0
 12 13  2  0  0  0
 13 20  1  0  0  0
 20 21  3  0  0  0
 13 14  1  0  0  0
 14 15  2  0  0  0
 14 16  1  0  0  0
 16 17  1  0  0  0
 16 18  1  0  0  0
 16 19  1  0  0  0
  8  2  1  0  0  0
 15 10  1  0  0  0
 31 26  1  0  0  0
 37 32  1  0  0  0
M  END
> <minimizedAffinity>
-7.93654

> <CNNscore>
0.1687426865

> <CNNaffinity>
6.0636086464

> <CNN_VS>
1.0231896639

> <CNNaffinity_variance>
0.3084681630

$$$$
[H]c1nc([H])c([H])c(-c2c([H])c([H])c(OC([H])([H])C([H])([H])C([H])([H])N3C(=S)N(c4c([H])c([H])c(C#N)c(C(F)(F)F)c4[H])C(=O)C3(C([H])([H])[H])C([H])([H])[H])c([H])c2[H])c1[H]


 37 40  0  0  0  0  0  0  0  0999 V2000
   35.8644   15.9291  -11.8999 C   0  0  0  0  0  0  0  0  0  0  0  0
   36.6954   14.8058  -11.3489 C   0  0  0  0  0  0  0  0  0  0  0  0
   36.2404   14.5427   -9.9272 C   0  0  0  0  0  0  0  0  0  0  0  0
   38.1117   15.0863  -11.4116 N   0  0  0  0  0  0  0  0  0  0  0  0
   38.5300   14.6124  -12.6927 C   0  0  0  0  0  0  0  0  0  0  0  0
   39.9293   15.0930  -13.4137 S   0  0  0  0  0  0  0  0  0  0  0  0
   37.5656   13.6993  -13.1982 N   0  0  0  0  0  0  0  0  0  0  0  0
   36.5510   13.6215  -12.2071 C   0  0  0  0  0  0  0  0  0  0  0  0
   35.6885   12.6826  -12.1084 O   0  0  0  0  0  0  0  0  0  0  0  0
   37.6303   13.0085  -14.4615 C   0  0  0  0  0  0  0  0  0  0  0  0
   36.5072   12.4532  -15.0259 C   0  0  0  0  0  0  0  0  0  0  0  0
   36.5893   11.7953  -16.2322 C   0  0  0  0  0  0  0  0  0  0  0  0
   37.7723   11.6581  -16.9267 C   0  0  0  0  0  0  0  0  0  0  0  0
   38.8895   12.2199  -16.3484 C   0  0  0  0  0  0  0  0  0  0  0  0
   38.8225   12.8813  -15.1417 C   0  0  0  0  0  0  0  0  0  0  0  0
   40.1807   12.0885  -17.0752 C   0  0  0  0  0  0  0  0  0  0  0  0
   41.1760   12.4600  -16.1789 F   0  0  0  0  0  0  0  0  0  0  0  0
   40.4056   10.7874  -17.5009 F   0  0  0  0  0  0  0  0  0  0  0  0
   40.2247   12.9909  -18.1239 F   0  0  0  0  0  0  0  0  0  0  0  0
   37.8412   10.9659  -18.1899 C   0  0  0  0  0  0  0  0  0  0  0  0
   37.8964   10.3882  -19.2017 N   0  0  0  0  0  0  0  0  0  0  0  0
   38.9340   15.7103  -10.4033 C   0  0  0  0  0  0  0  0  0  0  0  0
   38.6549   17.1939  -10.3705 C   0  0  0  0  0  0  0  0  0  0  0  0
   38.7695   17.6266   -8.9017 C   0  0  0  0  0  0  0  0  0  0  0  0
   37.5242   17.3386   -8.3235 O   0  0  0  0  0  0  0  0  0  0  0  0
   36.6983   18.3778   -7.9429 C   0  0  0  0  0  0  0  0  0  0  0  0
   35.4152   18.1221   -7.4830 C   0  0  0  0  0  0  0  0  0  0  0  0
   34.5874   19.1551   -7.1017 C   0  0  0  0  0  0  0  0  0  0  0  0
   35.0221   20.4824   -7.1702 C   0  0  0  0  0  0  0  0  0  0  0  0
   36.2999   20.6969   -7.6310 C   0  0  0  0  0  0  0  0  0  0  0  0
   37.1508   19.6713   -8.0202 C   0  0  0  0  0  0  0  0  0  0  0  0
   34.1095   21.5381   -6.7562 C   0  0  0  0  0  0  0  0  0  0  0  0
   34.5520   22.8418   -6.6933 C   0  0  0  0  0  0  0  0  0  0  0  0
   33.6872   23.8693   -6.2956 C   0  0  0  0  0  0  0  0  0  0  0  0
   32.4241   23.5688   -5.9777 N   0  0  0  0  0  0  0  0  0  0  0  0
   31.9400   22.3140   -6.0219 C   0  0  0  0  0  0  0  0  0  0  0  0
   32.7952   21.3029   -6.4140 C   0  0  0  0  0  0  0  0  0  0  0  0
  1  2  1  0  0  0
  2  3  1  0  0  0
  2  4  1  0  0  0
  4 22  1  0  0  0
 22 23  1  0  0  0
 23 24  1  0  0  0
 24 25  1  0  0  0
 25 26  1  0  0  0
 26 27  2  0  0  0
 27 28  1  0  0  0
 28 29  2  0  0  0
 29 30  1  0  0  0
 30 31  2  0  0  0
 29 32  1  0  0  0
 32 33  2  0  0  0
 33 34  1  0  0  0
 34 35  2  0  0  0
 35 36  1  0  0  0
 36 37  2  0  0  0
  4  5  1  0  0  0
  5  6  2  0  0  0
  5  7  1  0  0  0
  7  8  1  0  0  0
  8  9  2  0  0  0
  7 10  1  0  0  0
 10 11  2  0  0  0
 11 12  1  0  0  0
 12 13  2  0  0  0
 13 20  1  0  0  0
 20 21  3  0  0  0
 13 14  1  0  0  0
 14 15  2  0  0  0
 14 16  1  0  0  0
 16 17  1  0  0  0
 16 18  1  0  0  0
 16 19  1  0  0  0
  8  2  1  0  0  0
 15 10  1  0  0  0
 31 26  1  0  0  0
 37 32  1  0  0  0
M  END
> <minimizedAffinity>
-8.59235

> <CNNscore>
0.1393999308

> <CNNaffinity>
6.1316881180

> <CNN_VS>
0.8547568917

> <CNNaffinity_variance>
0.1838103235

$$$$
[H]c1nc([H])c([H])c(-c2c([H])c([H])c(OC([H])([H])C([H])([H])C([H])([H])N3C(=S)N(c4c([H])c([H])c(C#N)c(C(F)(F)F)c4[H])C(=O)C3(C([H])([H])[H])C([H])([H])[H])c([H])c2[H])c1[H]


 37 40  0  0  0  0  0  0  0  0999 V2000
   36.6864   14.8598  -14.3527 C   0  0  0  0  0  0  0  0  0  0  0  0
   37.3144   14.1414  -13.1926 C   0  0  0  0  0  0  0  0  0  0  0  0
   36.2069   13.4707  -12.4045 C   0  0  0  0  0  0  0  0  0  0  0  0
   38.1022   15.0220  -12.3605 N   0  0  0  0  0  0  0  0  0  0  0  0
   39.4116   15.0027  -12.9312 C   0  0  0  0  0  0  0  0  0  0  0  0
   40.5391   16.1628  -12.6284 S   0  0  0  0  0  0  0  0  0  0  0  0
   39.5498   13.8579  -13.7617 N   0  0  0  0  0  0  0  0  0  0  0  0
   38.3052   13.1769  -13.6905 C   0  0  0  0  0  0  0  0  0  0  0  0
   38.1165   11.9527  -14.0082 O   0  0  0  0  0  0  0  0  0  0  0  0
   40.7245   13.4888  -14.5108 C   0  0  0  0  0  0  0  0  0  0  0  0
   40.6220   12.8978  -15.7471 C   0  0  0  0  0  0  0  0  0  0  0  0
   41.7555   12.5503  -16.4465 C   0  0  0  0  0  0  0  0  0  0  0  0
   43.0270   12.7689  -15.9604 C   0  0  0  0  0  0  0  0  0  0  0  0
   43.1136   13.3620  -14.7199 C   0  0  0  0  0  0  0  0  0  0  0  0
   41.9880   13.7153  -14.0084 C   0  0  0  0  0  0  0  0  0  0  0  0
   44.4729   13.6112  -14.1695 C   0  0  0  0  0  0  0  0  0  0  0  0
   45.0807   14.5257  -15.0218 F   0  0  0  0  0  0  0  0  0  0  0  0
   44.4240   14.1380  -12.8870 F   0  0  0  0  0  0  0  0  0  0  0  0
   45.2231   12.4491  -14.2232 F   0  0  0  0  0  0  0  0  0  0  0  0
   44.2045   12.3991  -16.7063 C   0  0  0  0  0  0  0  0  0  0  0  0
   45.1504   12.0806  -17.3097 N   0  0  0  0  0  0  0  0  0  0  0  0
   37.6684   15.7648  -11.2020 C   0  0  0  0  0  0  0  0  0  0  0  0
   38.0831   15.0330   -9.9480 C   0  0  0  0  0  0  0  0  0  0  0  0
   39.0431   15.9662   -9.1960 C   0  0  0  0  0  0  0  0  0  0  0  0
   38.9382   15.6078   -7.8437 O   0  0  0  0  0  0  0  0  0  0  0  0
   39.7742   14.6337   -7.3350 C   0  0  0  0  0  0  0  0  0  0  0  0
   39.3730   13.8565   -6.2588 C   0  0  0  0  0  0  0  0  0  0  0  0
   40.2031   12.8831   -5.7478 C   0  0  0  0  0  0  0  0  0  0  0  0
   41.4670   12.6579   -6.3020 C   0  0  0  0  0  0  0  0  0  0  0  0
   41.8301   13.4477   -7.3676 C   0  0  0  0  0  0  0  0  0  0  0  0
   41.0098   14.4338   -7.8986 C   0  0  0  0  0  0  0  0  0  0  0  0
   42.3068   11.6180   -5.7257 C   0  0  0  0  0  0  0  0  0  0  0  0
   43.4686   11.2418   -6.3646 C   0  0  0  0  0  0  0  0  0  0  0  0
   44.2872   10.2420   -5.8243 C   0  0  0  0  0  0  0  0  0  0  0  0
   43.9268    9.6564   -4.6780 N   0  0  0  0  0  0  0  0  0  0  0  0
   42.8041    9.9850   -4.0129 C   0  0  0  0  0  0  0  0  0  0  0  0
   41.9987   10.9708   -4.5484 C   0  0  0  0  0  0  0  0  0  0  0  0
  1  2  1  0  0  0
  2  3  1  0  0  0
  2  4  1  0  0  0
  4 22  1  0  0  0
 22 23  1  0  0  0
 23 24  1  0  0  0
 24 25  1  0  0  0
 25 26  1  0  0  0
 26 27  2  0  0  0
 27 28  1  0  0  0
 28 29  2  0  0  0
 29 30  1  0  0  0
 30 31  2  0  0  0
 29 32  1  0  0  0
 32 33  2  0  0  0
 33 34  1  0  0  0
 34 35  2  0  0  0
 35 36  1  0  0  0
 36 37  2  0  0  0
  4  5  1  0  0  0
  5  6  2  0  0  0
  5  7  1  0  0  0
  7  8  1  0  0  0
  8  9  2  0  0  0
  7 10  1  0  0  0
 10 11  2  0  0  0
 11 12  1  0  0  0
 12 13  2  0  0  0
 13 20  1  0  0  0
 20 21  3  0  0  0
 13 14  1  0  0  0
 14 15  2  0  0  0
 14 16  1  0  0  0
 16 17  1  0  0  0
 16 18  1  0  0  0
 16 19  1  0  0  0
  8  2  1  0  0  0
 15 10  1  0  0  0
 31 26  1  0  0  0
 37 32  1  0  0  0
M  END
> <minimizedAffinity>
-7.92765

> <CNNscore>
0.1357623786

> <CNNaffinity>
6.0428099632

> <CNN_VS>
0.8203862309

> <CNNaffinity_variance>
0.2991476953

$$$$
[H]c1nc([H])c([H])c(-c2c([H])c([H])c(OC([H])([H])C([H])([H])C([H])([H])N3C(=S)N(c4c([H])c([H])c(C#N)c(C(F)(F)F)c4[H])C(=O)C3(C([H])([H])[H])C([H])([H])[H])c([H])c2[H])c1[H]


 37 40  0  0  0  0  0  0  0  0999 V2000
   36.1597   16.6250  -11.6301 C   0  0  0  0  0  0  0  0  0  0  0  0
   36.9824   15.5235  -11.0252 C   0  0  0  0  0  0  0  0  0  0  0  0
   36.6148   15.4183   -9.5585 C   0  0  0  0  0  0  0  0  0  0  0  0
   38.4010   15.7332  -11.2051 N   0  0  0  0  0  0  0  0  0  0  0  0
   38.7132   15.1206  -12.4573 C   0  0  0  0  0  0  0  0  0  0  0  0
   40.0780   15.4670  -13.3096 S   0  0  0  0  0  0  0  0  0  0  0  0
   37.6826   14.2074  -12.8082 N   0  0  0  0  0  0  0  0  0  0  0  0
   36.7350   14.2701  -11.7517 C   0  0  0  0  0  0  0  0  0  0  0  0
   35.8459   13.3845  -11.5065 O   0  0  0  0  0  0  0  0  0  0  0  0
   37.6353   13.3967  -13.9988 C   0  0  0  0  0  0  0  0  0  0  0  0
   36.4595   12.8260  -14.4235 C   0  0  0  0  0  0  0  0  0  0  0  0
   36.4347   12.0529  -15.5621 C   0  0  0  0  0  0  0  0  0  0  0  0
   37.5586   11.8117  -16.3234 C   0  0  0  0  0  0  0  0  0  0  0  0
   38.7295   12.3904  -15.8851 C   0  0  0  0  0  0  0  0  0  0  0  0
   38.7696   13.1665  -14.7475 C   0  0  0  0  0  0  0  0  0  0  0  0
   39.9590   12.1485  -16.6867 C   0  0  0  0  0  0  0  0  0  0  0  0
   40.0424   10.7736  -16.8736 F   0  0  0  0  0  0  0  0  0  0  0  0
   39.9050   12.7792  -17.9213 F   0  0  0  0  0  0  0  0  0  0  0  0
   41.0760   12.5256  -15.9614 F   0  0  0  0  0  0  0  0  0  0  0  0
   37.5153   10.9995  -17.5142 C   0  0  0  0  0  0  0  0  0  0  0  0
   37.4990   10.3490  -18.4822 N   0  0  0  0  0  0  0  0  0  0  0  0
   39.3128   16.4134  -10.3174 C   0  0  0  0  0  0  0  0  0  0  0  0
   40.2397   15.4078   -9.6773 C   0  0  0  0  0  0  0  0  0  0  0  0
   41.6196   16.0766   -9.5965 C   0  0  0  0  0  0  0  0  0  0  0  0
   42.4504   15.3354  -10.4498 O   0  0  0  0  0  0  0  0  0  0  0  0
   43.5227   15.9573  -11.0584 C   0  0  0  0  0  0  0  0  0  0  0  0
   43.3740   16.5569  -12.3000 C   0  0  0  0  0  0  0  0  0  0  0  0
   44.4405   17.1788  -12.9113 C   0  0  0  0  0  0  0  0  0  0  0  0
   45.6946   17.2188  -12.2943 C   0  0  0  0  0  0  0  0  0  0  0  0
   45.8038   16.6138  -11.0642 C   0  0  0  0  0  0  0  0  0  0  0  0
   44.7428   15.9817  -10.4300 C   0  0  0  0  0  0  0  0  0  0  0  0
   46.7897   17.8877  -12.9814 C   0  0  0  0  0  0  0  0  0  0  0  0
   47.4203   18.9592  -12.3867 C   0  0  0  0  0  0  0  0  0  0  0  0
   48.4747   19.6149  -13.0348 C   0  0  0  0  0  0  0  0  0  0  0  0
   48.8630   19.1867  -14.2401 N   0  0  0  0  0  0  0  0  0  0  0  0
   48.2830   18.1462  -14.8659 C   0  0  0  0  0  0  0  0  0  0  0  0
   47.2432   17.5020  -14.2245 C   0  0  0  0  0  0  0  0  0  0  0  0
  1  2  1  0  0  0
  2  3  1  0  0  0
  2  4  1  0  0  0
  4 22  1  0  0  0
 22 23  1  0  0  0
 23 24  1  0  0  0
 24 25  1  0  0  0
 25 26  1  0  0  0
 26 27  2  0  0  0
 27 28  1  0  0  0
 28 29  2  0  0  0
 29 30  1  0  0  0
 30 31  2  0  0  0
 29 32  1  0  0  0
 32 33  2  0  0  0
 33 34  1  0  0  0
 34 35  2  0  0  0
 35 36  1  0  0  0
 36 37  2  0  0  0
  4  5  1  0  0  0
  5  6  2  0  0  0
  5  7  1  0  0  0
  7  8  1  0  0  0
  8  9  2  0  0  0
  7 10  1  0  0  0
 10 11  2  0  0  0
 11 12  1  0  0  0
 12 13  2  0  0  0
 13 20  1  0  0  0
 20 21  3  0  0  0
 13 14  1  0  0  0
 14 15  2  0  0  0
 14 16  1  0  0  0
 16 17  1  0  0  0
 16 18  1  0  0  0
 16 19  1  0  0  0
  8  2  1  0  0  0
 15 10  1  0  0  0
 31 26  1  0  0  0
 37 32  1  0  0  0
M  END
> <minimizedAffinity>
-8.13483

> <CNNscore>
0.1267238855

> <CNNaffinity>
6.2324666977

> <CNN_VS>
0.7898023725

> <CNNaffinity_variance>
0.3439910412

$$$$
[H]OC([H])([H])C(=O)[C@@]1([H])C([H])([H])C([H])([H])[C@]2(O[H])C([H])([H])[C@@]3([H])[C@]4([H])C([H])([H])C([H])([H])C([H])([H])[C@]([H])(O[H])C([H])([H])[C@]4(C([H])([H])[H])[C@@]3(C([H])([H])[H])[C@@]([H])(O[H])C([H])([H])[C@]2(C([H])([H])[H])[C@]([H])(C([H])([H])C([H])([H])[H])C1([H])[H]


 35 38  0  0  0  0  0  0  0  0999 V2000
   43.1937   15.4839   -6.4569 C   0  0  0  0  0  0  0  0  0  0  0  0
   41.7495   15.1981   -6.1378 C   0  0  0  0  0  0  0  0  0  0  0  0
   41.4720   13.8130   -5.6469 C   0  0  0  0  0  0  0  0  0  0  0  0
   42.0168   12.8181   -6.6181 C   0  0  0  0  0  0  0  0  0  0  0  0
   41.8269   13.3843   -7.9593 C   0  0  0  0  0  0  0  0  0  0  0  0
   43.0058   14.0768   -8.5953 C   0  0  0  0  0  0  0  0  0  0  0  0
   42.2733   14.7241   -9.6602 O   0  0  0  0  0  0  0  0  0  0  0  0
   43.8508   13.1073   -9.2970 C   0  0  0  0  0  0  0  0  0  0  0  0
   45.1504   12.6347   -8.8505 C   0  0  0  0  0  0  0  0  0  0  0  0
   45.7625   11.7517   -9.9638 C   0  0  0  0  0  0  0  0  0  0  0  0
   46.2226   10.4321   -9.4600 C   0  0  0  0  0  0  0  0  0  0  0  0
   46.6273    9.5545  -10.6021 C   0  0  0  0  0  0  0  0  0  0  0  0
   47.1544   10.3366  -11.7814 C   0  0  0  0  0  0  0  0  0  0  0  0
   48.3474   11.1671  -11.4357 C   0  0  0  0  0  0  0  0  0  0  0  0
   49.3671   10.2602  -11.0550 O   0  0  0  0  0  0  0  0  0  0  0  0
   48.1594   12.1046  -10.2954 C   0  0  0  0  0  0  0  0  0  0  0  0
   46.7791   12.7727  -10.2837 C   0  0  0  0  0  0  0  0  0  0  0  0
   46.6786   13.5409  -11.5653 C   0  0  0  0  0  0  0  0  0  0  0  0
   46.3775   13.4640   -9.0748 C   0  0  0  0  0  0  0  0  0  0  0  0
   47.3767   13.3232   -7.9251 C   0  0  0  0  0  0  0  0  0  0  0  0
   45.8679   14.8822   -9.0487 C   0  0  0  0  0  0  0  0  0  0  0  0
   45.2684   15.3198  -10.1667 O   0  0  0  0  0  0  0  0  0  0  0  0
   45.1584   15.0001   -7.7486 C   0  0  0  0  0  0  0  0  0  0  0  0
   43.6331   15.1999   -7.8453 C   0  0  0  0  0  0  0  0  0  0  0  0
   43.5363   16.5399   -8.6106 C   0  0  0  0  0  0  0  0  0  0  0  0
   41.9902   14.0021  -10.2762 H   0  0  0  0  0  0  0  0  0  0  0  0
   50.1741   10.7493  -10.7599 H   0  0  0  0  0  0  0  0  0  0  0  0
   45.6344   16.1553  -10.5642 H   0  0  0  0  0  0  0  0  0  0  0  0
   44.0055   16.2306   -4.2028 C   0  0  0  0  0  0  0  0  0  0  0  0
   44.0453   15.1439   -5.2999 C   0  0  0  0  0  0  0  0  0  0  0  0
   39.9798   13.6634   -5.6174 C   0  0  0  0  0  0  0  0  0  0  0  0
   39.5120   12.5531   -5.7898 O   0  0  0  0  0  0  0  0  0  0  0  0
   39.0374   14.7567   -5.3963 C   0  0  0  0  0  0  0  0  0  0  0  0
   37.8077   14.4289   -5.9564 O   0  0  0  0  0  0  0  0  0  0  0  0
   37.6852   13.4409   -5.8681 H   0  0  0  0  0  0  0  0  0  0  0  0
 29 30  1  0  0  0
 30  1  1  0  0  0
  1  2  1  0  0  0
  2  3  1  0  0  0
  3  4  1  0  0  0
  4  5  1  0  0  0
  5  6  1  0  0  0
  6  7  1  0  0  0
  6  8  1  0  0  0
  8  9  1  0  0  0
  9 10  1  0  0  0
 10 11  1  0  0  0
 11 12  1  0  0  0
 12 13  1  0  0  0
 13 14  1  0  0  0
 14 15  1  0  0  0
 14 16  1  0  0  0
 16 17  1  0  0  0
 17 18  1  0  0  0
 17 19  1  0  0  0
 19 20  1  0  0  0
 19 21  1  0  0  0
 21 22  1  0  0  0
 21 23  1  0  0  0
 23 24  1  0  0  0
 24 25  1  0  0  0
  3 31  1  0  0  0
 31 32  2  0  0  0
 31 33  1  0  0  0
 33 34  1  0  0  0
 24  1  1  0  0  0
 24  6  1  0  0  0
 19  9  1  0  0  0
 17 10  1  0  0  0
  7 26  1  0  0  0
 15 27  1  0  0  0
 22 28  1  0  0  0
 34 35  1  0  0  0
M  END
> <minimizedAffinity>
-5.23291

> <CNNscore>
0.6475035548

> <CNNaffinity>
5.2936639786

> <CNN_VS>
3.4276661873

> <CNNaffinity_variance>
0.1656031907

$$$$
[H]OC([H])([H])C(=O)[C@@]1([H])C([H])([H])C([H])([H])[C@]2(O[H])C([H])([H])[C@@]3([H])[C@]4([H])C([H])([H])C([H])([H])C([H])([H])[C@]([H])(O[H])C([H])([H])[C@]4(C([H])([H])[H])[C@@]3(C([H])([H])[H])[C@@]([H])(O[H])C([H])([H])[C@]2(C([H])([H])[H])[C@]([H])(C([H])([H])C([H])([H])[H])C1([H])[H]


 35 38  0  0  0  0  0  0  0  0999 V2000
   37.6763   14.2395   -7.4371 C   0  0  0  0  0  0  0  0  0  0  0  0
   36.6188   14.3281   -6.3681 C   0  0  0  0  0  0  0  0  0  0  0  0
   36.4256   15.6896   -5.7804 C   0  0  0  0  0  0  0  0  0  0  0  0
   37.7345   16.2141   -5.2889 C   0  0  0  0  0  0  0  0  0  0  0  0
   38.4785   15.0673   -4.7530 C   0  0  0  0  0  0  0  0  0  0  0  0
   39.5080   14.4261   -5.6489 C   0  0  0  0  0  0  0  0  0  0  0  0
   39.6909   13.2224   -4.8696 O   0  0  0  0  0  0  0  0  0  0  0  0
   40.7944   15.1164   -5.5254 C   0  0  0  0  0  0  0  0  0  0  0  0
   41.3796   16.0039   -6.5161 C   0  0  0  0  0  0  0  0  0  0  0  0
   42.8083   16.3806   -6.0571 C   0  0  0  0  0  0  0  0  0  0  0  0
   43.0439   17.8473   -6.0640 C   0  0  0  0  0  0  0  0  0  0  0  0
   44.3650   18.1623   -5.4363 C   0  0  0  0  0  0  0  0  0  0  0  0
   45.3763   17.0556   -5.6172 C   0  0  0  0  0  0  0  0  0  0  0  0
   45.6468   16.7512   -7.0548 C   0  0  0  0  0  0  0  0  0  0  0  0
   46.2167   17.9235   -7.6097 O   0  0  0  0  0  0  0  0  0  0  0  0
   44.4459   16.4295   -7.8725 C   0  0  0  0  0  0  0  0  0  0  0  0
   43.4199   15.5677   -7.1264 C   0  0  0  0  0  0  0  0  0  0  0  0
   44.1242   14.2934   -6.7762 C   0  0  0  0  0  0  0  0  0  0  0  0
   42.0973   15.4448   -7.7061 C   0  0  0  0  0  0  0  0  0  0  0  0
   41.8895   16.3074   -8.9522 C   0  0  0  0  0  0  0  0  0  0  0  0
   41.4108   14.1271   -7.9589 C   0  0  0  0  0  0  0  0  0  0  0  0
   41.7674   13.1077   -7.1624 O   0  0  0  0  0  0  0  0  0  0  0  0
   39.9728   14.4754   -8.0953 C   0  0  0  0  0  0  0  0  0  0  0  0
   39.0550   13.9366   -6.9802 C   0  0  0  0  0  0  0  0  0  0  0  0
   39.2336   12.4083   -7.1328 C   0  0  0  0  0  0  0  0  0  0  0  0
   40.1562   13.5008   -4.0408 H   0  0  0  0  0  0  0  0  0  0  0  0
   46.3721   17.8085   -8.5793 H   0  0  0  0  0  0  0  0  0  0  0  0
   42.0822   12.2816   -7.6190 H   0  0  0  0  0  0  0  0  0  0  0  0
   36.3991   14.7543   -9.5350 C   0  0  0  0  0  0  0  0  0  0  0  0
   37.4216   15.2459   -8.4867 C   0  0  0  0  0  0  0  0  0  0  0  0
   35.5209   15.5171   -4.5964 C   0  0  0  0  0  0  0  0  0  0  0  0
   35.2803   16.4946   -3.9123 O   0  0  0  0  0  0  0  0  0  0  0  0
   34.9018   14.2560   -4.1981 C   0  0  0  0  0  0  0  0  0  0  0  0
   33.5467   14.4593   -3.9619 O   0  0  0  0  0  0  0  0  0  0  0  0
   33.2288   15.1653   -4.5939 H   0  0  0  0  0  0  0  0  0  0  0  0
 29 30  1  0  0  0
 30  1  1  0  0  0
  1  2  1  0  0  0
  2  3  1  0  0  0
  3  4  1  0  0  0
  4  5  1  0  0  0
  5  6  1  0  0  0
  6  7  1  0  0  0
  6  8  1  0  0  0
  8  9  1  0  0  0
  9 10  1  0  0  0
 10 11  1  0  0  0
 11 12  1  0  0  0
 12 13  1  0  0  0
 13 14  1  0  0  0
 14 15  1  0  0  0
 14 16  1  0  0  0
 16 17  1  0  0  0
 17 18  1  0  0  0
 17 19  1  0  0  0
 19 20  1  0  0  0
 19 21  1  0  0  0
 21 22  1  0  0  0
 21 23  1  0  0  0
 23 24  1  0  0  0
 24 25  1  0  0  0
  3 31  1  0  0  0
 31 32  2  0  0  0
 31 33  1  0  0  0
 33 34  1  0  0  0
 24  1  1  0  0  0
 24  6  1  0  0  0
 19  9  1  0  0  0
 17 10  1  0  0  0
  7 26  1  0  0  0
 15 27  1  0  0  0
 22 28  1  0  0  0
 34 35  1  0  0  0
M  END
> <minimizedAffinity>
-5.11193

> <CNNscore>
0.5434688926

> <CNNaffinity>
5.2947373390

> <CNN_VS>
2.8775250912

> <CNNaffinity_variance>
0.1885447055

$$$$
[H]OC([H])([H])C(=O)[C@@]1([H])C([H])([H])C([H])([H])[C@]2(O[H])C([H])([H])[C@@]3([H])[C@]4([H])C([H])([H])C([H])([H])C([H])([H])[C@]([H])(O[H])C([H])([H])[C@]4(C([H])([H])[H])[C@@]3(C([H])([H])[H])[C@@]([H])(O[H])C([H])([H])[C@]2(C([H])([H])[H])[C@]([H])(C([H])([H])C([H])([H])[H])C1([H])[H]


 35 38  0  0  0  0  0  0  0  0999 V2000
   42.4778   13.8768   -6.3571 C   0  0  0  0  0  0  0  0  0  0  0  0
   43.4191   14.3496   -7.4339 C   0  0  0  0  0  0  0  0  0  0  0  0
   43.6950   15.8194   -7.4327 C   0  0  0  0  0  0  0  0  0  0  0  0
   42.4057   16.5717   -7.4751 C   0  0  0  0  0  0  0  0  0  0  0  0
   41.4893   15.7986   -8.3226 C   0  0  0  0  0  0  0  0  0  0  0  0
   40.4975   14.8967   -7.6323 C   0  0  0  0  0  0  0  0  0  0  0  0
   40.1037   14.1441   -8.8020 O   0  0  0  0  0  0  0  0  0  0  0  0
   39.2876   15.6431   -7.2783 C   0  0  0  0  0  0  0  0  0  0  0  0
   38.9104   16.0620   -5.9388 C   0  0  0  0  0  0  0  0  0  0  0  0
   37.4903   16.6732   -5.9956 C   0  0  0  0  0  0  0  0  0  0  0  0
   37.4168   18.0114   -5.3547 C   0  0  0  0  0  0  0  0  0  0  0  0
   36.0784   18.6319   -5.6039 C   0  0  0  0  0  0  0  0  0  0  0  0
   34.9782   17.6080   -5.7512 C   0  0  0  0  0  0  0  0  0  0  0  0
   34.8307   16.7424   -4.5424 C   0  0  0  0  0  0  0  0  0  0  0  0
   34.4532   17.6016   -3.4810 O   0  0  0  0  0  0  0  0  0  0  0  0
   36.0698   16.0424   -4.1077 C   0  0  0  0  0  0  0  0  0  0  0  0
   36.9113   15.5203   -5.2786 C   0  0  0  0  0  0  0  0  0  0  0  0
   36.0401   14.5514   -6.0168 C   0  0  0  0  0  0  0  0  0  0  0  0
   38.2670   15.0938   -4.9941 C   0  0  0  0  0  0  0  0  0  0  0  0
   38.6981   15.3398   -3.5472 C   0  0  0  0  0  0  0  0  0  0  0  0
   38.8298   13.7570   -5.4038 C   0  0  0  0  0  0  0  0  0  0  0  0
   38.2823   13.1881   -6.4888 O   0  0  0  0  0  0  0  0  0  0  0  0
   40.3033   13.9376   -5.3420 C   0  0  0  0  0  0  0  0  0  0  0  0
   41.0338   13.8690   -6.6976 C   0  0  0  0  0  0  0  0  0  0  0  0
   40.7080   12.4304   -7.1613 C   0  0  0  0  0  0  0  0  0  0  0  0
   39.5858   14.7699   -9.3687 H   0  0  0  0  0  0  0  0  0  0  0  0
   34.3902   17.0980   -2.6325 H   0  0  0  0  0  0  0  0  0  0  0  0
   37.9303   12.2648   -6.3715 H   0  0  0  0  0  0  0  0  0  0  0  0
   44.0514   13.4171   -4.4571 C   0  0  0  0  0  0  0  0  0  0  0  0
   42.9500   14.3331   -5.0349 C   0  0  0  0  0  0  0  0  0  0  0  0
   44.4447   16.1123   -8.6984 C   0  0  0  0  0  0  0  0  0  0  0  0
   44.6622   17.2765   -8.9790 O   0  0  0  0  0  0  0  0  0  0  0  0
   44.9376   15.0995   -9.6277 C   0  0  0  0  0  0  0  0  0  0  0  0
   44.2115   15.1645  -10.8118 O   0  0  0  0  0  0  0  0  0  0  0  0
   43.9652   16.1205  -10.9673 H   0  0  0  0  0  0  0  0  0  0  0  0
 29 30  1  0  0  0
 30  1  1  0  0  0
  1  2  1  0  0  0
  2  3  1  0  0  0
  3  4  1  0  0  0
  4  5  1  0  0  0
  5  6  1  0  0  0
  6  7  1  0  0  0
  6  8  1  0  0  0
  8  9  1  0  0  0
  9 10  1  0  0  0
 10 11  1  0  0  0
 11 12  1  0  0  0
 12 13  1  0  0  0
 13 14  1  0  0  0
 14 15  1  0  0  0
 14 16  1  0  0  0
 16 17  1  0  0  0
 17 18  1  0  0  0
 17 19  1  0  0  0
 19 20  1  0  0  0
 19 21  1  0  0  0
 21 22  1  0  0  0
 21 23  1  0  0  0
 23 24  1  0  0  0
 24 25  1  0  0  0
  3 31  1  0  0  0
 31 32  2  0  0  0
 31 33  1  0  0  0
 33 34  1  0  0  0
 24  1  1  0  0  0
 24  6  1  0  0  0
 19  9  1  0  0  0
 17 10  1  0  0  0
  7 26  1  0  0  0
 15 27  1  0  0  0
 22 28  1  0  0  0
 34 35  1  0  0  0
M  END
> <minimizedAffinity>
-5.19816

> <CNNscore>
0.5432825685

> <CNNaffinity>
5.4112830162

> <CNN_VS>
2.9398558140

> <CNNaffinity_variance>
0.0911011621

$$$$
[H]OC([H])([H])C(=O)[C@@]1([H])C([H])([H])C([H])([H])[C@]2(O[H])C([H])([H])[C@@]3([H])[C@]4([H])C([H])([H])C([H])([H])C([H])([H])[C@]([H])(O[H])C([H])([H])[C@]4(C([H])([H])[H])[C@@]3(C([H])([H])[H])[C@@]([H])(O[H])C([H])([H])[C@]2(C([H])([H])[H])[C@]([H])(C([H])([H])C([H])([H])[H])C1([H])[H]


 35 38  0  0  0  0  0  0  0  0999 V2000
   34.9323   17.0393   -5.8684 C   0  0  0  0  0  0  0  0  0  0  0  0
   33.6216   16.3229   -6.0634 C   0  0  0  0  0  0  0  0  0  0  0  0
   33.5201   14.9938   -5.3856 C   0  0  0  0  0  0  0  0  0  0  0  0
   34.6707   14.1336   -5.7933 C   0  0  0  0  0  0  0  0  0  0  0  0
   34.9534   14.4399   -7.2011 C   0  0  0  0  0  0  0  0  0  0  0  0
   36.0715   15.4092   -7.4910 C   0  0  0  0  0  0  0  0  0  0  0  0
   35.7448   15.6409   -8.8800 O   0  0  0  0  0  0  0  0  0  0  0  0
   37.3553   14.7060   -7.5508 C   0  0  0  0  0  0  0  0  0  0  0  0
   38.3980   14.7558   -6.5397 C   0  0  0  0  0  0  0  0  0  0  0  0
   39.6404   14.0061   -7.0763 C   0  0  0  0  0  0  0  0  0  0  0  0
   40.1514   12.9884   -6.1223 C   0  0  0  0  0  0  0  0  0  0  0  0
   41.2267   12.1704   -6.7648 C   0  0  0  0  0  0  0  0  0  0  0  0
   42.0003   12.9393   -7.8092 C   0  0  0  0  0  0  0  0  0  0  0  0
   42.6628   14.1583   -7.2546 C   0  0  0  0  0  0  0  0  0  0  0  0
   43.6044   13.7003   -6.3002 O   0  0  0  0  0  0  0  0  0  0  0  0
   41.7596   15.1051   -6.5461 C   0  0  0  0  0  0  0  0  0  0  0  0
   40.3958   15.2648   -7.2290 C   0  0  0  0  0  0  0  0  0  0  0  0
   40.6777   15.7969   -8.6002 C   0  0  0  0  0  0  0  0  0  0  0  0
   39.3413   15.9178   -6.4792 C   0  0  0  0  0  0  0  0  0  0  0  0
   39.7310   16.2592   -5.0399 C   0  0  0  0  0  0  0  0  0  0  0  0
   38.5292   17.0735   -7.0052 C   0  0  0  0  0  0  0  0  0  0  0  0
   38.3939   17.1478   -8.3382 O   0  0  0  0  0  0  0  0  0  0  0  0
   37.3158   17.0978   -6.1480 C   0  0  0  0  0  0  0  0  0  0  0  0
   35.9945   16.7583   -6.8655 C   0  0  0  0  0  0  0  0  0  0  0  0
   35.9062   17.8868   -7.9189 C   0  0  0  0  0  0  0  0  0  0  0  0
   35.9567   14.7983   -9.3554 H   0  0  0  0  0  0  0  0  0  0  0  0
   44.0442   14.4642   -5.8524 H   0  0  0  0  0  0  0  0  0  0  0  0
   38.6708   18.0046   -8.7616 H   0  0  0  0  0  0  0  0  0  0  0  0
   34.4450   18.2745   -3.7389 C   0  0  0  0  0  0  0  0  0  0  0  0
   35.2426   17.1458   -4.4290 C   0  0  0  0  0  0  0  0  0  0  0  0
   32.2609   14.3541   -5.8907 C   0  0  0  0  0  0  0  0  0  0  0  0
   32.0149   13.2159   -5.5367 O   0  0  0  0  0  0  0  0  0  0  0  0
   31.2997   14.9974   -6.7821 C   0  0  0  0  0  0  0  0  0  0  0  0
   30.2110   15.4467   -6.0430 O   0  0  0  0  0  0  0  0  0  0  0  0
   30.5460   15.7247   -5.1434 H   0  0  0  0  0  0  0  0  0  0  0  0
 29 30  1  0  0  0
 30  1  1  0  0  0
  1  2  1  0  0  0
  2  3  1  0  0  0
  3  4  1  0  0  0
  4  5  1  0  0  0
  5  6  1  0  0  0
  6  7  1  0  0  0
  6  8  1  0  0  0
  8  9  1  0  0  0
  9 10  1  0  0  0
 10 11  1  0  0  0
 11 12  1  0  0  0
 12 13  1  0  0  0
 13 14  1  0  0  0
 14 15  1  0  0  0
 14 16  1  0  0  0
 16 17  1  0  0  0
 17 18  1  0  0  0
 17 19  1  0  0  0
 19 20  1  0  0  0
 19 21  1  0  0  0
 21 22  1  0  0  0
 21 23  1  0  0  0
 23 24  1  0  0  0
 24 25  1  0  0  0
  3 31  1  0  0  0
 31 32  2  0  0  0
 31 33  1  0  0  0
 33 34  1  0  0  0
 24  1  1  0  0  0
 24  6  1  0  0  0
 19  9  1  0  0  0
 17 10  1  0  0  0
  7 26  1  0  0  0
 15 27  1  0  0  0
 22 28  1  0  0  0
 34 35  1  0  0  0
M  END
> <minimizedAffinity>
-6.45086

> <CNNscore>
0.4965296388

> <CNNaffinity>
5.3625640869

> <CNN_VS>
2.6626720428

> <CNNaffinity_variance>
0.2320721149

$$$$
[H]OC([H])([H])C(=O)[C@@]1([H])C([H])([H])C([H])([H])[C@]2(O[H])C([H])([H])[C@@]3([H])[C@]4([H])C([H])([H])C([H])([H])C([H])([H])[C@]([H])(O[H])C([H])([H])[C@]4(C([H])([H])[H])[C@@]3(C([H])([H])[H])[C@@]([H])(O[H])C([H])([H])[C@]2(C([H])([H])[H])[C@]([H])(C([H])([H])C([H])([H])[H])C1([H])[H]


 35 38  0  0  0  0  0  0  0  0999 V2000
   37.7145   16.0129   -8.1080 C   0  0  0  0  0  0  0  0  0  0  0  0
   36.9348   17.1554   -7.5115 C   0  0  0  0  0  0  0  0  0  0  0  0
   37.7461   18.3634   -7.1665 C   0  0  0  0  0  0  0  0  0  0  0  0
   38.8839   17.9680   -6.2839 C   0  0  0  0  0  0  0  0  0  0  0  0
   38.3911   16.8979   -5.4076 C   0  0  0  0  0  0  0  0  0  0  0  0
   38.7046   15.4766   -5.8016 C   0  0  0  0  0  0  0  0  0  0  0  0
   37.7742   14.8369   -4.8989 O   0  0  0  0  0  0  0  0  0  0  0  0
   40.0164   15.0799   -5.2838 C   0  0  0  0  0  0  0  0  0  0  0  0
   41.2262   14.9174   -6.0723 C   0  0  0  0  0  0  0  0  0  0  0  0
   42.3326   14.3336   -5.1621 C   0  0  0  0  0  0  0  0  0  0  0  0
   43.5946   15.1151   -5.2216 C   0  0  0  0  0  0  0  0  0  0  0  0
   44.5580   14.6221   -4.1885 C   0  0  0  0  0  0  0  0  0  0  0  0
   44.3855   13.1534   -3.8827 C   0  0  0  0  0  0  0  0  0  0  0  0
   44.5690   12.2883   -5.0870 C   0  0  0  0  0  0  0  0  0  0  0  0
   45.9111   12.4664   -5.5044 O   0  0  0  0  0  0  0  0  0  0  0  0
   43.7084   12.6307   -6.2517 C   0  0  0  0  0  0  0  0  0  0  0  0
   42.2826   13.0302   -5.8528 C   0  0  0  0  0  0  0  0  0  0  0  0
   41.6995   11.8427   -5.1509 C   0  0  0  0  0  0  0  0  0  0  0  0
   41.4557   13.6642   -6.8602 C   0  0  0  0  0  0  0  0  0  0  0  0
   42.1910   13.9443   -8.1720 C   0  0  0  0  0  0  0  0  0  0  0  0
   40.0672   13.2011   -7.2197 C   0  0  0  0  0  0  0  0  0  0  0  0
   39.3831   12.5667   -6.2552 O   0  0  0  0  0  0  0  0  0  0  0  0
   39.4500   14.3671   -7.9031 C   0  0  0  0  0  0  0  0  0  0  0  0
   38.2745   15.0246   -7.1536 C   0  0  0  0  0  0  0  0  0  0  0  0
   37.2535   13.8654   -7.0850 C   0  0  0  0  0  0  0  0  0  0  0  0
   38.1372   14.9754   -3.9879 H   0  0  0  0  0  0  0  0  0  0  0  0
   46.0863   11.9597   -6.3351 H   0  0  0  0  0  0  0  0  0  0  0  0
   39.0320   11.6645   -6.4852 H   0  0  0  0  0  0  0  0  0  0  0  0
   37.6319   16.6187  -10.5420 C   0  0  0  0  0  0  0  0  0  0  0  0
   38.4960   16.4839   -9.2686 C   0  0  0  0  0  0  0  0  0  0  0  0
   36.8450   19.2712   -6.3831 C   0  0  0  0  0  0  0  0  0  0  0  0
   37.3583   20.0685   -5.6201 O   0  0  0  0  0  0  0  0  0  0  0  0
   35.3871   19.2716   -6.4660 C   0  0  0  0  0  0  0  0  0  0  0  0
   34.9862   20.0108   -7.5734 O   0  0  0  0  0  0  0  0  0  0  0  0
   35.6751   19.8899   -8.2873 H   0  0  0  0  0  0  0  0  0  0  0  0
 29 30  1  0  0  0
 30  1  1  0  0  0
  1  2  1  0  0  0
  2  3  1  0  0  0
  3  4  1  0  0  0
  4  5  1  0  0  0
  5  6  1  0  0  0
  6  7  1  0  0  0
  6  8  1  0  0  0
  8  9  1  0  0  0
  9 10  1  0  0  0
 10 11  1  0  0  0
 11 12  1  0  0  0
 12 13  1  0  0  0
 13 14  1  0  0  0
 14 15  1  0  0  0
 14 16  1  0  0  0
 16 17  1  0  0  0
 17 18  1  0  0  0
 17 19  1  0  0  0
 19 20  1  0  0  0
 19 21  1  0  0  0
 21 22  1  0  0  0
 21 23  1  0  0  0
 23 24  1  0  0  0
 24 25  1  0  0  0
  3 31  1  0  0  0
 31 32  2  0  0  0
 31 33  1  0  0  0
 33 34  1  0  0  0
 24  1  1  0  0  0
 24  6  1  0  0  0
 19  9  1  0  0  0
 17 10  1  0  0  0
  7 26  1  0  0  0
 15 27  1  0  0  0
 22 28  1  0  0  0
 34 35  1  0  0  0
M  END
> <minimizedAffinity>
-6.02254

> <CNNscore>
0.4924128354

> <CNNaffinity>
5.2933244705

> <CNN_VS>
2.6065008640

> <CNNaffinity_variance>
0.2179267406

$$$$
[H]OC([H])([H])C(=O)[C@@]1([H])C([H])([H])C([H])([H])[C@]2(O[H])C([H])([H])[C@@]3([H])[C@]4([H])C([H])([H])C([H])([H])C([H])([H])[C@]([H])(O[H])C([H])([H])[C@]4(C([H])([H])[H])[C@@]3(C([H])([H])[H])[C@@]([H])(O[H])C([H])([H])[C@]2(C([H])([H])[H])[C@]([H])(C([H])([H])C([H])([H])[H])C1([H])[H]


 35 38  0  0  0  0  0  0  0  0999 V2000
   38.9993   16.0073   -8.1128 C   0  0  0  0  0  0  0  0  0  0  0  0
   39.9579   15.2189   -7.2592 C   0  0  0  0  0  0  0  0  0  0  0  0
   39.6370   13.7644   -7.1254 C   0  0  0  0  0  0  0  0  0  0  0  0
   38.2314   13.6029   -6.6477 C   0  0  0  0  0  0  0  0  0  0  0  0
   37.9714   14.7023   -5.7099 C   0  0  0  0  0  0  0  0  0  0  0  0
   37.2455   15.9126   -6.2411 C   0  0  0  0  0  0  0  0  0  0  0  0
   37.5299   16.7885   -5.1269 O   0  0  0  0  0  0  0  0  0  0  0  0
   35.7961   15.7144   -6.1636 C   0  0  0  0  0  0  0  0  0  0  0  0
   34.9141   15.4527   -7.2885 C   0  0  0  0  0  0  0  0  0  0  0  0
   33.4520   15.4735   -6.7832 C   0  0  0  0  0  0  0  0  0  0  0  0
   32.6884   14.2657   -7.1894 C   0  0  0  0  0  0  0  0  0  0  0  0
   31.3506   14.2495   -6.5198 C   0  0  0  0  0  0  0  0  0  0  0  0
   30.8210   15.6356   -6.2394 C   0  0  0  0  0  0  0  0  0  0  0  0
   30.6699   16.4567   -7.4785 C   0  0  0  0  0  0  0  0  0  0  0  0
   29.7003   15.7997   -8.2757 O   0  0  0  0  0  0  0  0  0  0  0  0
   31.8969   16.5813   -8.3111 C   0  0  0  0  0  0  0  0  0  0  0  0
   33.1762   16.7443   -7.4813 C   0  0  0  0  0  0  0  0  0  0  0  0
   32.9988   18.0015   -6.6871 C   0  0  0  0  0  0  0  0  0  0  0  0
   34.4446   16.5754   -8.1619 C   0  0  0  0  0  0  0  0  0  0  0  0
   34.3059   16.1401   -9.6218 C   0  0  0  0  0  0  0  0  0  0  0  0
   35.5691   17.5773   -8.1024 C   0  0  0  0  0  0  0  0  0  0  0  0
   35.6237   18.3460   -7.0039 O   0  0  0  0  0  0  0  0  0  0  0  0
   36.7736   16.8115   -8.5154 C   0  0  0  0  0  0  0  0  0  0  0  0
   37.8359   16.6101   -7.4168 C   0  0  0  0  0  0  0  0  0  0  0  0
   38.2362   18.0677   -7.0913 C   0  0  0  0  0  0  0  0  0  0  0  0
   37.0020   16.4416   -4.3641 H   0  0  0  0  0  0  0  0  0  0  0  0
   29.5900   16.2645   -9.1413 H   0  0  0  0  0  0  0  0  0  0  0  0
   35.6342   19.3295   -7.1549 H   0  0  0  0  0  0  0  0  0  0  0  0
   39.7589   16.0139  -10.5046 C   0  0  0  0  0  0  0  0  0  0  0  0
   38.8525   15.3663   -9.4345 C   0  0  0  0  0  0  0  0  0  0  0  0
   40.5517   13.2229   -6.0671 C   0  0  0  0  0  0  0  0  0  0  0  0
   40.3294   12.1074   -5.6340 O   0  0  0  0  0  0  0  0  0  0  0  0
   41.6978   13.9374   -5.5117 C   0  0  0  0  0  0  0  0  0  0  0  0
   42.6731   13.0229   -5.1298 O   0  0  0  0  0  0  0  0  0  0  0  0
   42.6367   12.2533   -5.7663 H   0  0  0  0  0  0  0  0  0  0  0  0
 29 30  1  0  0  0
 30  1  1  0  0  0
  1  2  1  0  0  0
  2  3  1  0  0  0
  3  4  1  0  0  0
  4  5  1  0  0  0
  5  6  1  0  0  0
  6  7  1  0  0  0
  6  8  1  0  0  0
  8  9  1  0  0  0
  9 10  1  0  0  0
 10 11  1  0  0  0
 11 12  1  0  0  0
 12 13  1  0  0  0
 13 14  1  0  0  0
 14 15  1  0  0  0
 14 16  1  0  0  0
 16 17  1  0  0  0
 17 18  1  0  0  0
 17 19  1  0  0  0
 19 20  1  0  0  0
 19 21  1  0  0  0
 21 22  1  0  0  0
 21 23  1  0  0  0
 23 24  1  0  0  0
 24 25  1  0  0  0
  3 31  1  0  0  0
 31 32  2  0  0  0
 31 33  1  0  0  0
 33 34  1  0  0  0
 24  1  1  0  0  0
 24  6  1  0  0  0
 19  9  1  0  0  0
 17 10  1  0  0  0
  7 26  1  0  0  0
 15 27  1  0  0  0
 22 28  1  0  0  0
 34 35  1  0  0  0
M  END
> <minimizedAffinity>
-6.59319

> <CNNscore>
0.4783813357

> <CNNaffinity>
5.5768899918

> <CNN_VS>
2.6678800583

> <CNNaffinity_variance>
0.0761166140

$$$$
[H]OC([H])([H])C(=O)[C@@]1([H])C([H])([H])C([H])([H])[C@]2(O[H])C([H])([H])[C@@]3([H])[C@]4([H])C([H])([H])C([H])([H])C([H])([H])[C@]([H])(O[H])C([H])([H])[C@]4(C([H])([H])[H])[C@@]3(C([H])([H])[H])[C@@]([H])(O[H])C([H])([H])[C@]2(C([H])([H])[H])[C@]([H])(C([H])([H])C([H])([H])[H])C1([H])[H]


 35 38  0  0  0  0  0  0  0  0999 V2000
   40.9425   13.5876   -5.6589 C   0  0  0  0  0  0  0  0  0  0  0  0
   39.4465   13.6809   -5.5098 C   0  0  0  0  0  0  0  0  0  0  0  0
   38.6627   13.2347   -6.7027 C   0  0  0  0  0  0  0  0  0  0  0  0
   39.1308   13.9712   -7.9145 C   0  0  0  0  0  0  0  0  0  0  0  0
   39.4698   15.3324   -7.4810 C   0  0  0  0  0  0  0  0  0  0  0  0
   40.9217   15.6340   -7.2079 C   0  0  0  0  0  0  0  0  0  0  0  0
   40.7121   16.8878   -6.5196 O   0  0  0  0  0  0  0  0  0  0  0  0
   41.6033   16.0280   -8.4434 C   0  0  0  0  0  0  0  0  0  0  0  0
   42.5473   15.2125   -9.1888 C   0  0  0  0  0  0  0  0  0  0  0  0
   43.1468   16.0704  -10.3282 C   0  0  0  0  0  0  0  0  0  0  0  0
   43.0580   15.4050  -11.6535 C   0  0  0  0  0  0  0  0  0  0  0  0
   43.4756   16.3495  -12.7359 C   0  0  0  0  0  0  0  0  0  0  0  0
   44.4950   17.3605  -12.2678 C   0  0  0  0  0  0  0  0  0  0  0  0
   45.7434   16.7232  -11.7501 C   0  0  0  0  0  0  0  0  0  0  0  0
   46.3213   16.0331  -12.8442 O   0  0  0  0  0  0  0  0  0  0  0  0
   45.5431   15.7212  -10.6683 C   0  0  0  0  0  0  0  0  0  0  0  0
   44.4616   16.1283   -9.6602 C   0  0  0  0  0  0  0  0  0  0  0  0
   44.9256   17.4149   -9.0502 C   0  0  0  0  0  0  0  0  0  0  0  0
   43.9756   15.1116   -8.7489 C   0  0  0  0  0  0  0  0  0  0  0  0
   44.5550   13.7208   -9.0137 C   0  0  0  0  0  0  0  0  0  0  0  0
   43.9090   15.2872   -7.2534 C   0  0  0  0  0  0  0  0  0  0  0  0
   43.7751   16.5458   -6.8075 O   0  0  0  0  0  0  0  0  0  0  0  0
   42.9499   14.2479   -6.7978 C   0  0  0  0  0  0  0  0  0  0  0  0
   41.6279   14.7817   -6.2119 C   0  0  0  0  0  0  0  0  0  0  0  0
   42.1256   15.5952   -4.9948 C   0  0  0  0  0  0  0  0  0  0  0  0
   40.4038   17.5299   -7.2077 H   0  0  0  0  0  0  0  0  0  0  0  0
   47.1287   15.5405  -12.5564 H   0  0  0  0  0  0  0  0  0  0  0  0
   44.4574   16.8557   -6.1528 H   0  0  0  0  0  0  0  0  0  0  0  0
   41.8315   11.3705   -4.8895 C   0  0  0  0  0  0  0  0  0  0  0  0
   41.3266   12.2240   -6.0740 C   0  0  0  0  0  0  0  0  0  0  0  0
   37.2373   13.6244   -6.4449 C   0  0  0  0  0  0  0  0  0  0  0  0
   36.4694   13.6445   -7.3889 O   0  0  0  0  0  0  0  0  0  0  0  0
   36.6960   13.9850   -5.1375 C   0  0  0  0  0  0  0  0  0  0  0  0
   35.9195   12.9383   -4.6529 O   0  0  0  0  0  0  0  0  0  0  0  0
   36.3263   12.0828   -4.9715 H   0  0  0  0  0  0  0  0  0  0  0  0
 29 30  1  0  0  0
 30  1  1  0  0  0
  1  2  1  0  0  0
  2  3  1  0  0  0
  3  4  1  0  0  0
  4  5  1  0  0  0
  5  6  1  0  0  0
  6  7  1  0  0  0
  6  8  1  0  0  0
  8  9  1  0  0  0
  9 10  1  0  0  0
 10 11  1  0  0  0
 11 12  1  0  0  0
 12 13  1  0  0  0
 13 14  1  0  0  0
 14 15  1  0  0  0
 14 16  1  0  0  0
 16 17  1  0  0  0
 17 18  1  0  0  0
 17 19  1  0  0  0
 19 20  1  0  0  0
 19 21  1  0  0  0
 21 22  1  0  0  0
 21 23  1  0  0  0
 23 24  1  0  0  0
 24 25  1  0  0  0
  3 31  1  0  0  0
 31 32  2  0  0  0
 31 33  1  0  0  0
 33 34  1  0  0  0
 24  1  1  0  0  0
 24  6  1  0  0  0
 19  9  1  0  0  0
 17 10  1  0  0  0
  7 26  1  0  0  0
 15 27  1  0  0  0
 22 28  1  0  0  0
 34 35  1  0  0  0
M  END
> <minimizedAffinity>
-6.12073

> <CNNscore>
0.4568907619

> <CNNaffinity>
5.1544256210

> <CNN_VS>
2.3550095558

> <CNNaffinity_variance>
0.2099314630

$$$$
[H]OC([H])([H])C(=O)[C@@]1([H])C([H])([H])C([H])([H])[C@]2(O[H])C([H])([H])[C@@]3([H])[C@]4([H])C([H])([H])C([H])([H])C([H])([H])[C@]([H])(O[H])C([H])([H])[C@]4(C([H])([H])[H])[C@@]3(C([H])([H])[H])[C@@]([H])(O[H])C([H])([H])[C@]2(C([H])([H])[H])[C@]([H])(C([H])([H])C([H])([H])[H])C1([H])[H]


 35 38  0  0  0  0  0  0  0  0999 V2000
   37.1914   16.5983   -6.2617 C   0  0  0  0  0  0  0  0  0  0  0  0
   35.7552   16.1443   -6.2434 C   0  0  0  0  0  0  0  0  0  0  0  0
   35.4003   15.2121   -5.1292 C   0  0  0  0  0  0  0  0  0  0  0  0
   36.3342   14.0469   -5.1334 C   0  0  0  0  0  0  0  0  0  0  0  0
   36.6316   13.7447   -6.5391 C   0  0  0  0  0  0  0  0  0  0  0  0
   37.9173   14.2873   -7.1102 C   0  0  0  0  0  0  0  0  0  0  0  0
   37.6039   14.0488   -8.5011 O   0  0  0  0  0  0  0  0  0  0  0  0
   39.0246   13.3660   -6.8427 C   0  0  0  0  0  0  0  0  0  0  0  0
   40.0850   13.5733   -5.8710 C   0  0  0  0  0  0  0  0  0  0  0  0
   41.1277   12.4416   -6.0310 C   0  0  0  0  0  0  0  0  0  0  0  0
   41.4449   11.7691   -4.7449 C   0  0  0  0  0  0  0  0  0  0  0  0
   42.3068   10.5703   -4.9863 C   0  0  0  0  0  0  0  0  0  0  0  0
   43.1911   10.7218   -6.2010 C   0  0  0  0  0  0  0  0  0  0  0  0
   44.1090   11.8967   -6.1029 C   0  0  0  0  0  0  0  0  0  0  0  0
   44.9634   11.6436   -5.0014 O   0  0  0  0  0  0  0  0  0  0  0  0
   43.4441   13.2016   -5.8391 C   0  0  0  0  0  0  0  0  0  0  0  0
   42.1232   13.3713   -6.5995 C   0  0  0  0  0  0  0  0  0  0  0  0
   42.4678   13.2874   -8.0544 C   0  0  0  0  0  0  0  0  0  0  0  0
   41.2506   14.4561   -6.1965 C   0  0  0  0  0  0  0  0  0  0  0  0
   41.7462   15.2196   -4.9671 C   0  0  0  0  0  0  0  0  0  0  0  0
   40.6808   15.4738   -7.1511 C   0  0  0  0  0  0  0  0  0  0  0  0
   40.5234   15.0744   -8.4225 O   0  0  0  0  0  0  0  0  0  0  0  0
   39.5255   16.0613   -6.4246 C   0  0  0  0  0  0  0  0  0  0  0  0
   38.1413   15.7572   -7.0309 C   0  0  0  0  0  0  0  0  0  0  0  0
   38.2575   16.4070   -8.4291 C   0  0  0  0  0  0  0  0  0  0  0  0
   37.6216   13.0658   -8.6212 H   0  0  0  0  0  0  0  0  0  0  0  0
   45.5657   12.4120   -4.8456 H   0  0  0  0  0  0  0  0  0  0  0  0
   40.9594   15.6372   -9.1178 H   0  0  0  0  0  0  0  0  0  0  0  0
   37.3329   18.6917   -4.8850 C   0  0  0  0  0  0  0  0  0  0  0  0
   37.5606   17.1652   -4.9495 C   0  0  0  0  0  0  0  0  0  0  0  0
   34.0210   14.7022   -5.4246 C   0  0  0  0  0  0  0  0  0  0  0  0
   33.5937   13.7830   -4.7508 O   0  0  0  0  0  0  0  0  0  0  0  0
   33.1443   15.2280   -6.4673 C   0  0  0  0  0  0  0  0  0  0  0  0
   33.0610   14.3106   -7.5088 O   0  0  0  0  0  0  0  0  0  0  0  0
   33.1204   13.3942   -7.1145 H   0  0  0  0  0  0  0  0  0  0  0  0
 29 30  1  0  0  0
 30  1  1  0  0  0
  1  2  1  0  0  0
  2  3  1  0  0  0
  3  4  1  0  0  0
  4  5  1  0  0  0
  5  6  1  0  0  0
  6  7  1  0  0  0
  6  8  1  0  0  0
  8  9  1  0  0  0
  9 10  1  0  0  0
 10 11  1  0  0  0
 11 12  1  0  0  0
 12 13  1  0  0  0
 13 14  1  0  0  0
 14 15  1  0  0  0
 14 16  1  0  0  0
 16 17  1  0  0  0
 17 18  1  0  0  0
 17 19  1  0  0  0
 19 20  1  0  0  0
 19 21  1  0  0  0
 21 22  1  0  0  0
 21 23  1  0  0  0
 23 24  1  0  0  0
 24 25  1  0  0  0
  3 31  1  0  0  0
 31 32  2  0  0  0
 31 33  1  0  0  0
 33 34  1  0  0  0
 24  1  1  0  0  0
 24  6  1  0  0  0
 19  9  1  0  0  0
 17 10  1  0  0  0
  7 26  1  0  0  0
 15 27  1  0  0  0
 22 28  1  0  0  0
 34 35  1  0  0  0
M  END
> <minimizedAffinity>
-6.19764

> <CNNscore>
0.4501759112

> <CNNaffinity>
5.1994743347

> <CNN_VS>
2.3406782150

> <CNNaffinity_variance>
0.0925773233

$$$$
[H]OC([H])([H])C(=O)[C@@]1([H])C([H])([H])C([H])([H])[C@]2(O[H])C([H])([H])[C@@]3([H])[C@]4([H])C([H])([H])C([H])([H])C([H])([H])[C@]([H])(O[H])C([H])([H])[C@]4(C([H])([H])[H])[C@@]3(C([H])([H])[H])[C@@]([H])(O[H])C([H])([H])[C@]2(C([H])([H])[H])[C@]([H])(C([H])([H])C([H])([H])[H])C1([H])[H]


 35 38  0  0  0  0  0  0  0  0999 V2000
   43.4794   11.4281   -5.6205 C   0  0  0  0  0  0  0  0  0  0  0  0
   42.1626   12.0939   -5.3176 C   0  0  0  0  0  0  0  0  0  0  0  0
   41.1264   11.9634   -6.3881 C   0  0  0  0  0  0  0  0  0  0  0  0
   41.6855   12.4403   -7.6880 C   0  0  0  0  0  0  0  0  0  0  0  0
   42.5682   13.5729   -7.3820 C   0  0  0  0  0  0  0  0  0  0  0  0
   44.0474   13.2959   -7.2867 C   0  0  0  0  0  0  0  0  0  0  0  0
   44.4182   14.5456   -6.6618 O   0  0  0  0  0  0  0  0  0  0  0  0
   44.6687   13.3742   -8.6111 C   0  0  0  0  0  0  0  0  0  0  0  0
   45.1306   12.2444   -9.3998 C   0  0  0  0  0  0  0  0  0  0  0  0
   45.8652   12.7840  -10.6499 C   0  0  0  0  0  0  0  0  0  0  0  0
   45.3659   12.1808  -11.9124 C   0  0  0  0  0  0  0  0  0  0  0  0
   45.9740   12.8715  -13.0920 C   0  0  0  0  0  0  0  0  0  0  0  0
   47.3512   13.4191  -12.8023 C   0  0  0  0  0  0  0  0  0  0  0  0
   48.3165   12.3589  -12.3821 C   0  0  0  0  0  0  0  0  0  0  0  0
   48.4475   11.4798  -13.4854 O   0  0  0  0  0  0  0  0  0  0  0  0
   47.8857   11.5313  -11.2228 C   0  0  0  0  0  0  0  0  0  0  0  0
   47.1749   12.3422  -10.1324 C   0  0  0  0  0  0  0  0  0  0  0  0
   48.1657   13.3609   -9.6600 C   0  0  0  0  0  0  0  0  0  0  0  0
   46.4555   11.6082   -9.1106 C   0  0  0  0  0  0  0  0  0  0  0  0
   46.4239   10.0971   -9.3462 C   0  0  0  0  0  0  0  0  0  0  0  0
   46.6469   11.8228   -7.6311 C   0  0  0  0  0  0  0  0  0  0  0  0
   47.0588   13.0433   -7.2552 O   0  0  0  0  0  0  0  0  0  0  0  0
   45.4288   11.2422   -7.0090 C   0  0  0  0  0  0  0  0  0  0  0  0
   44.4935   12.2551   -6.3197 C   0  0  0  0  0  0  0  0  0  0  0  0
   45.4104   12.8353   -5.2182 C   0  0  0  0  0  0  0  0  0  0  0  0
   44.2948   15.2445   -7.3527 H   0  0  0  0  0  0  0  0  0  0  0  0
   49.0355   10.7191  -13.2550 H   0  0  0  0  0  0  0  0  0  0  0  0
   47.8832   13.0777   -6.6990 H   0  0  0  0  0  0  0  0  0  0  0  0
   43.3674    9.0704   -4.7681 C   0  0  0  0  0  0  0  0  0  0  0  0
   43.2605   10.0146   -5.9860 C   0  0  0  0  0  0  0  0  0  0  0  0
   40.0009   12.8773   -6.0039 C   0  0  0  0  0  0  0  0  0  0  0  0
   39.9661   13.2941   -4.8609 O   0  0  0  0  0  0  0  0  0  0  0  0
   38.9345   13.3089   -6.9035 C   0  0  0  0  0  0  0  0  0  0  0  0
   37.8259   12.4865   -6.7360 O   0  0  0  0  0  0  0  0  0  0  0  0
   37.7911   12.2121   -5.7756 H   0  0  0  0  0  0  0  0  0  0  0  0
 29 30  1  0  0  0
 30  1  1  0  0  0
  1  2  1  0  0  0
  2  3  1  0  0  0
  3  4  1  0  0  0
  4  5  1  0  0  0
  5  6  1  0  0  0
  6  7  1  0  0  0
  6  8  1  0  0  0
  8  9  1  0  0  0
  9 10  1  0  0  0
 10 11  1  0  0  0
 11 12  1  0  0  0
 12 13  1  0  0  0
 13 14  1  0  0  0
 14 15  1  0  0  0
 14 16  1  0  0  0
 16 17  1  0  0  0
 17 18  1  0  0  0
 17 19  1  0  0  0
 19 20  1  0  0  0
 19 21  1  0  0  0
 21 22  1  0  0  0
 21 23  1  0  0  0
 23 24  1  0  0  0
 24 25  1  0  0  0
  3 31  1  0  0  0
 31 32  2  0  0  0
 31 33  1  0  0  0
 33 34  1  0  0  0
 24  1  1  0  0  0
 24  6  1  0  0  0
 19  9  1  0  0  0
 17 10  1  0  0  0
  7 26  1  0  0  0
 15 27  1  0  0  0
 22 28  1  0  0  0
 34 35  1  0  0  0
M  END
> <minimizedAffinity>
-5.93044

> <CNNscore>
0.4336015284

> <CNNaffinity>
5.1430454254

> <CNN_VS>
2.2300324440

> <CNNaffinity_variance>
0.3431361318

$$$$
[H]c1c([H])c([H])c2c(c1[H])c1c3c(c4c5c([H])c([H])c([H])c([H])c5n5c4c1n2[C@@]1(C([H])([H])[H])O[C@]5([H])C([H])([H])[C@@]([H])(N([H])C([H])([H])[H])[C@@]1([H])OC([H])([H])[H])C(=O)N([H])C3([H])[H]


 37 44  0  0  0  0  0  0  0  0999 V2000
   36.7870   15.0641  -13.2459 C   0  0  0  0  0  0  0  0  0  0  0  0
   38.2101   14.7669  -13.0733 C   0  0  0  0  0  0  0  0  0  0  0  0
   38.4965   13.3209  -12.9763 C   0  0  0  0  0  0  0  0  0  0  0  0
   37.5571   12.4416  -12.7545 O   0  0  0  0  0  0  0  0  0  0  0  0
   36.2647   12.5707  -13.2559 C   0  0  0  0  0  0  0  0  0  0  0  0
   35.5025   11.6181  -12.3252 C   0  0  0  0  0  0  0  0  0  0  0  0
   35.8019   13.9416  -13.0781 C   0  0  0  0  0  0  0  0  0  0  0  0
   36.2687   12.0760  -14.6439 N   0  0  0  0  0  0  0  0  0  0  0  0
   35.2485   11.5666  -15.3317 C   0  0  0  0  0  0  0  0  0  0  0  0
   33.9287   11.3751  -15.0306 C   0  0  0  0  0  0  0  0  0  0  0  0
   33.0532   10.8191  -15.9362 C   0  0  0  0  0  0  0  0  0  0  0  0
   33.4803   10.4256  -17.2083 C   0  0  0  0  0  0  0  0  0  0  0  0
   34.7916   10.6144  -17.5124 C   0  0  0  0  0  0  0  0  0  0  0  0
   35.6531   11.1686  -16.6031 C   0  0  0  0  0  0  0  0  0  0  0  0
   36.9898   11.4569  -16.6838 C   0  0  0  0  0  0  0  0  0  0  0  0
   37.9467   11.2938  -17.6880 C   0  0  0  0  0  0  0  0  0  0  0  0
   37.8096   10.7280  -19.0496 C   0  0  0  0  0  0  0  0  0  0  0  0
   39.0948   10.7964  -19.6627 N   0  0  0  0  0  0  0  0  0  0  0  0
   40.0056   11.3807  -18.7257 C   0  0  0  0  0  0  0  0  0  0  0  0
   41.1917   11.5519  -19.0136 O   0  0  0  0  0  0  0  0  0  0  0  0
   39.2738   11.6812  -17.5094 C   0  0  0  0  0  0  0  0  0  0  0  0
   39.6022   12.2360  -16.2931 C   0  0  0  0  0  0  0  0  0  0  0  0
   40.7663   12.7436  -15.7450 C   0  0  0  0  0  0  0  0  0  0  0  0
   42.0400   12.8669  -16.2247 C   0  0  0  0  0  0  0  0  0  0  0  0
   43.0116   13.4298  -15.4204 C   0  0  0  0  0  0  0  0  0  0  0  0
   42.7116   13.8628  -14.1542 C   0  0  0  0  0  0  0  0  0  0  0  0
   41.4322   13.7448  -13.6574 C   0  0  0  0  0  0  0  0  0  0  0  0
   40.4776   13.1864  -14.4610 C   0  0  0  0  0  0  0  0  0  0  0  0
   39.2016   12.9650  -14.2242 N   0  0  0  0  0  0  0  0  0  0  0  0
   38.6318   12.3958  -15.2887 C   0  0  0  0  0  0  0  0  0  0  0  0
   37.3190   12.0024  -15.4849 C   0  0  0  0  0  0  0  0  0  0  0  0
   39.3084   10.4681  -20.6338 H   0  0  0  0  0  0  0  0  0  0  0  0
   37.8662   15.6094  -15.3190 C   0  0  0  0  0  0  0  0  0  0  0  0
   36.6258   15.7036  -14.5715 N   0  0  0  0  0  0  0  0  0  0  0  0
   35.9119   15.2028  -15.1426 H   0  0  0  0  0  0  0  0  0  0  0  0
   34.7124   14.3312  -13.8538 O   0  0  0  0  0  0  0  0  0  0  0  0
   33.5327   14.4353  -13.1272 C   0  0  0  0  0  0  0  0  0  0  0  0
 33 34  1  0  0  0
 34  1  1  0  0  0
  1  2  1  0  0  0
  2  3  1  0  0  0
  3  4  1  0  0  0
  4  5  1  0  0  0
  5  6  1  0  0  0
  5  7  1  0  0  0
  7 36  1  0  0  0
 36 37  1  0  0  0
  5  8  1  0  0  0
  8  9  1  0  0  0
  9 10  2  0  0  0
 10 11  1  0  0  0
 11 12  2  0  0  0
 12 13  1  0  0  0
 13 14  2  0  0  0
 14 15  1  0  0  0
 15 16  2  0  0  0
 16 17  1  0  0  0
 17 18  1  0  0  0
 18 19  1  0  0  0
 19 20  2  0  0  0
 19 21  1  0  0  0
 21 22  2  0  0  0
 22 23  1  0  0  0
 23 24  2  0  0  0
 24 25  1  0  0  0
 25 26  2  0  0  0
 26 27  1  0  0  0
 27 28  2  0  0  0
 28 29  1  0  0  0
 29 30  1  0  0  0
 30 31  2  0  0  0
  7  1  1  0  0  0
 31  8  1  0  0  0
 29  3  1  0  0  0
 14  9  1  0  0  0
 31 15  1  0  0  0
 21 16  1  0  0  0
 30 22  1  0  0  0
 28 23  1  0  0  0
 34 35  1  0  0  0
 18 32  1  0  0  0
M  END
> <minimizedAffinity>
-7.00294

> <CNNscore>
0.7400333285

> <CNNaffinity>
7.6930375099

> <CNN_VS>
5.6931042671

> <CNNaffinity_variance>
0.1844412386

$$$$
[H]c1c([H])c([H])c2c(c1[H])c1c3c(c4c5c([H])c([H])c([H])c([H])c5n5c4c1n2[C@@]1(C([H])([H])[H])O[C@]5([H])C([H])([H])[C@@]([H])(N([H])C([H])([H])[H])[C@@]1([H])OC([H])([H])[H])C(=O)N([H])C3([H])[H]


 37 44  0  0  0  0  0  0  0  0999 V2000
   36.0231   20.3044   -6.5330 C   0  0  0  0  0  0  0  0  0  0  0  0
   37.3674   20.1639   -5.9706 C   0  0  0  0  0  0  0  0  0  0  0  0
   37.4025   19.3473   -4.7400 C   0  0  0  0  0  0  0  0  0  0  0  0
   36.3203   19.0566   -4.0700 O   0  0  0  0  0  0  0  0  0  0  0  0
   35.0904   18.8254   -4.6803 C   0  0  0  0  0  0  0  0  0  0  0  0
   34.1402   19.0409   -3.4949 C   0  0  0  0  0  0  0  0  0  0  0  0
   34.8572   19.8269   -5.7137 C   0  0  0  0  0  0  0  0  0  0  0  0
   35.0703   17.4245   -5.1365 N   0  0  0  0  0  0  0  0  0  0  0  0
   34.0092   16.6408   -5.3194 C   0  0  0  0  0  0  0  0  0  0  0  0
   32.6644   16.8549   -5.1974 C   0  0  0  0  0  0  0  0  0  0  0  0
   31.7473   15.8603   -5.4531 C   0  0  0  0  0  0  0  0  0  0  0  0
   32.1560   14.5834   -5.8506 C   0  0  0  0  0  0  0  0  0  0  0  0
   33.4920   14.3660   -5.9737 C   0  0  0  0  0  0  0  0  0  0  0  0
   34.3949   15.3633   -5.7166 C   0  0  0  0  0  0  0  0  0  0  0  0
   35.7633   15.3816   -5.7775 C   0  0  0  0  0  0  0  0  0  0  0  0
   36.7210   14.4202   -6.1078 C   0  0  0  0  0  0  0  0  0  0  0  0
   36.5489   13.0069   -6.5150 C   0  0  0  0  0  0  0  0  0  0  0  0
   37.8523   12.4732   -6.7360 N   0  0  0  0  0  0  0  0  0  0  0  0
   38.8075   13.5075   -6.4778 C   0  0  0  0  0  0  0  0  0  0  0  0
   40.0168   13.3009   -6.5971 O   0  0  0  0  0  0  0  0  0  0  0  0
   38.0856   14.7048   -6.0901 C   0  0  0  0  0  0  0  0  0  0  0  0
   38.4504   15.9829   -5.7319 C   0  0  0  0  0  0  0  0  0  0  0  0
   39.6588   16.6447   -5.6096 C   0  0  0  0  0  0  0  0  0  0  0  0
   40.9544   16.2509   -5.7941 C   0  0  0  0  0  0  0  0  0  0  0  0
   41.9716   17.1627   -5.5900 C   0  0  0  0  0  0  0  0  0  0  0  0
   41.6950   18.4500   -5.2065 C   0  0  0  0  0  0  0  0  0  0  0  0
   40.3940   18.8610   -5.0167 C   0  0  0  0  0  0  0  0  0  0  0  0
   39.3943   17.9514   -5.2212 C   0  0  0  0  0  0  0  0  0  0  0  0
   38.0903   18.0932   -5.1080 N   0  0  0  0  0  0  0  0  0  0  0  0
   37.4788   16.9435   -5.4011 C   0  0  0  0  0  0  0  0  0  0  0  0
   36.1281   16.6403   -5.4226 C   0  0  0  0  0  0  0  0  0  0  0  0
   38.0487   11.4893   -7.0356 H   0  0  0  0  0  0  0  0  0  0  0  0
   37.3675   19.6760   -8.4191 C   0  0  0  0  0  0  0  0  0  0  0  0
   36.0281   19.6498   -7.8610 N   0  0  0  0  0  0  0  0  0  0  0  0
   35.7740   18.6420   -7.7808 H   0  0  0  0  0  0  0  0  0  0  0  0
   33.8826   19.5216   -6.6609 O   0  0  0  0  0  0  0  0  0  0  0  0
   32.7593   20.3345   -6.5718 C   0  0  0  0  0  0  0  0  0  0  0  0
 33 34  1  0  0  0
 34  1  1  0  0  0
  1  2  1  0  0  0
  2  3  1  0  0  0
  3  4  1  0  0  0
  4  5  1  0  0  0
  5  6  1  0  0  0
  5  7  1  0  0  0
  7 36  1  0  0  0
 36 37  1  0  0  0
  5  8  1  0  0  0
  8  9  1  0  0  0
  9 10  2  0  0  0
 10 11  1  0  0  0
 11 12  2  0  0  0
 12 13  1  0  0  0
 13 14  2  0  0  0
 14 15  1  0  0  0
 15 16  2  0  0  0
 16 17  1  0  0  0
 17 18  1  0  0  0
 18 19  1  0  0  0
 19 20  2  0  0  0
 19 21  1  0  0  0
 21 22  2  0  0  0
 22 23  1  0  0  0
 23 24  2  0  0  0
 24 25  1  0  0  0
 25 26  2  0  0  0
 26 27  1  0  0  0
 27 28  2  0  0  0
 28 29  1  0  0  0
 29 30  1  0  0  0
 30 31  2  0  0  0
  7  1  1  0  0  0
 31  8  1  0  0  0
 29  3  1  0  0  0
 14  9  1  0  0  0
 31 15  1  0  0  0
 21 16  1  0  0  0
 30 22  1  0  0  0
 28 23  1  0  0  0
 34 35  1  0  0  0
 18 32  1  0  0  0
M  END
> <minimizedAffinity>
-5.25037

> <CNNscore>
0.2917253673

> <CNNaffinity>
5.4645805359

> <CNN_VS>
1.5941567421

> <CNNaffinity_variance>
0.0890124887

$$$$
[H]c1c([H])c([H])c2c(c1[H])c1c3c(c4c5c([H])c([H])c([H])c([H])c5n5c4c1n2[C@@]1(C([H])([H])[H])O[C@]5([H])C([H])([H])[C@@]([H])(N([H])C([H])([H])[H])[C@@]1([H])OC([H])([H])[H])C(=O)N([H])C3([H])[H]


 37 44  0  0  0  0  0  0  0  0999 V2000
   41.6430   15.0751   -8.8702 C   0  0  0  0  0  0  0  0  0  0  0  0
   42.3812   14.1790   -7.9784 C   0  0  0  0  0  0  0  0  0  0  0  0
   43.5838   13.5929   -8.6052 C   0  0  0  0  0  0  0  0  0  0  0  0
   43.7794   13.6274   -9.8956 O   0  0  0  0  0  0  0  0  0  0  0  0
   43.3805   14.6959  -10.6942 C   0  0  0  0  0  0  0  0  0  0  0  0
   43.3744   14.0303  -12.0768 C   0  0  0  0  0  0  0  0  0  0  0  0
   42.0352   15.1149  -10.3204 C   0  0  0  0  0  0  0  0  0  0  0  0
   44.4189   15.7375  -10.6045 N   0  0  0  0  0  0  0  0  0  0  0  0
   44.7183   16.6711  -11.5056 C   0  0  0  0  0  0  0  0  0  0  0  0
   44.1826   16.9945  -12.7211 C   0  0  0  0  0  0  0  0  0  0  0  0
   44.6801   18.0313  -13.4785 C   0  0  0  0  0  0  0  0  0  0  0  0
   45.7596   18.8003  -13.0327 C   0  0  0  0  0  0  0  0  0  0  0  0
   46.2953   18.4828  -11.8245 C   0  0  0  0  0  0  0  0  0  0  0  0
   45.7917   17.4492  -11.0801 C   0  0  0  0  0  0  0  0  0  0  0  0
   46.1555   16.9567   -9.8547 C   0  0  0  0  0  0  0  0  0  0  0  0
   47.1479   17.3075   -8.9368 C   0  0  0  0  0  0  0  0  0  0  0  0
   48.1713   18.3757   -9.0043 C   0  0  0  0  0  0  0  0  0  0  0  0
   48.9351   18.3002   -7.8029 N   0  0  0  0  0  0  0  0  0  0  0  0
   48.4152   17.2276   -7.0104 C   0  0  0  0  0  0  0  0  0  0  0  0
   48.9055   16.9512   -5.9138 O   0  0  0  0  0  0  0  0  0  0  0  0
   47.3089   16.6263   -7.7312 C   0  0  0  0  0  0  0  0  0  0  0  0
   46.4411   15.5870   -7.4827 C   0  0  0  0  0  0  0  0  0  0  0  0
   46.2678   14.7024   -6.4336 C   0  0  0  0  0  0  0  0  0  0  0  0
   46.9214   14.5339   -5.2453 C   0  0  0  0  0  0  0  0  0  0  0  0
   46.5056   13.5388   -4.3825 C   0  0  0  0  0  0  0  0  0  0  0  0
   45.4505   12.7244   -4.7053 C   0  0  0  0  0  0  0  0  0  0  0  0
   44.7823   12.8826   -5.8995 C   0  0  0  0  0  0  0  0  0  0  0  0
   45.2013   13.8701   -6.7467 C   0  0  0  0  0  0  0  0  0  0  0  0
   44.7371   14.2194   -7.9282 N   0  0  0  0  0  0  0  0  0  0  0  0
   45.4455   15.2415   -8.4131 C   0  0  0  0  0  0  0  0  0  0  0  0
   45.3034   15.9293   -9.6062 C   0  0  0  0  0  0  0  0  0  0  0  0
   49.7346   18.9336   -7.5661 H   0  0  0  0  0  0  0  0  0  0  0  0
   41.9333   16.3384   -6.8503 C   0  0  0  0  0  0  0  0  0  0  0  0
   41.6978   16.4316   -8.2793 N   0  0  0  0  0  0  0  0  0  0  0  0
   42.5007   16.9737   -8.6642 H   0  0  0  0  0  0  0  0  0  0  0  0
   41.6448   16.3846  -10.7400 O   0  0  0  0  0  0  0  0  0  0  0  0
   40.6116   16.3603  -11.6686 C   0  0  0  0  0  0  0  0  0  0  0  0
 33 34  1  0  0  0
 34  1  1  0  0  0
  1  2  1  0  0  0
  2  3  1  0  0  0
  3  4  1  0  0  0
  4  5  1  0  0  0
  5  6  1  0  0  0
  5  7  1  0  0  0
  7 36  1  0  0  0
 36 37  1  0  0  0
  5  8  1  0  0  0
  8  9  1  0  0  0
  9 10  2  0  0  0
 10 11  1  0  0  0
 11 12  2  0  0  0
 12 13  1  0  0  0
 13 14  2  0  0  0
 14 15  1  0  0  0
 15 16  2  0  0  0
 16 17  1  0  0  0
 17 18  1  0  0  0
 18 19  1  0  0  0
 19 20  2  0  0  0
 19 21  1  0  0  0
 21 22  2  0  0  0
 22 23  1  0  0  0
 23 24  2  0  0  0
 24 25  1  0  0  0
 25 26  2  0  0  0
 26 27  1  0  0  0
 27 28  2  0  0  0
 28 29  1  0  0  0
 29 30  1  0  0  0
 30 31  2  0  0  0
  7  1  1  0  0  0
 31  8  1  0  0  0
 29  3  1  0  0  0
 14  9  1  0  0  0
 31 15  1  0  0  0
 21 16  1  0  0  0
 30 22  1  0  0  0
 28 23  1  0  0  0
 34 35  1  0  0  0
 18 32  1  0  0  0
M  END
> <minimizedAffinity>
-4.75037

> <CNNscore>
0.2795498371

> <CNNaffinity>
5.3606123924

> <CNN_VS>
1.4985582829

> <CNNaffinity_variance>
0.0923332125

$$$$
[H]c1c([H])c([H])c2c(c1[H])c1c3c(c4c5c([H])c([H])c([H])c([H])c5n5c4c1n2[C@@]1(C([H])([H])[H])O[C@]5([H])C([H])([H])[C@@]([H])(N([H])C([H])([H])[H])[C@@]1([H])OC([H])([H])[H])C(=O)N([H])C3([H])[H]


 37 44  0  0  0  0  0  0  0  0999 V2000
   35.5878   12.5336  -12.7236 C   0  0  0  0  0  0  0  0  0  0  0  0
   35.5983   12.2752  -14.1646 C   0  0  0  0  0  0  0  0  0  0  0  0
   36.0594   13.4308  -14.9611 C   0  0  0  0  0  0  0  0  0  0  0  0
   36.1422   14.6320  -14.4561 O   0  0  0  0  0  0  0  0  0  0  0  0
   36.5048   14.8747  -13.1339 C   0  0  0  0  0  0  0  0  0  0  0  0
   35.9652   16.2991  -12.9485 C   0  0  0  0  0  0  0  0  0  0  0  0
   35.8095   13.9437  -12.2535 C   0  0  0  0  0  0  0  0  0  0  0  0
   37.9760   14.8439  -13.0575 N   0  0  0  0  0  0  0  0  0  0  0  0
   38.7608   15.4637  -12.1781 C   0  0  0  0  0  0  0  0  0  0  0  0
   38.4977   16.2539  -11.0939 C   0  0  0  0  0  0  0  0  0  0  0  0
   39.5078   16.7847  -10.3233 C   0  0  0  0  0  0  0  0  0  0  0  0
   40.8515   16.5358  -10.6196 C   0  0  0  0  0  0  0  0  0  0  0  0
   41.1180   15.7503  -11.6964 C   0  0  0  0  0  0  0  0  0  0  0  0
   40.1046   15.2279  -12.4555 C   0  0  0  0  0  0  0  0  0  0  0  0
   40.1279   14.4199  -13.5615 C   0  0  0  0  0  0  0  0  0  0  0  0
   41.1597   13.8491  -14.3100 C   0  0  0  0  0  0  0  0  0  0  0  0
   42.6270   13.9442  -14.1347 C   0  0  0  0  0  0  0  0  0  0  0  0
   43.2237   13.1714  -15.1736 N   0  0  0  0  0  0  0  0  0  0  0  0
   42.1754   12.6125  -15.9720 C   0  0  0  0  0  0  0  0  0  0  0  0
   42.4281   11.8974  -16.9437 O   0  0  0  0  0  0  0  0  0  0  0  0
   40.9053   13.0447  -15.4198 C   0  0  0  0  0  0  0  0  0  0  0  0
   39.5847   12.8352  -15.7473 C   0  0  0  0  0  0  0  0  0  0  0  0
   38.9362   12.1137  -16.7332 C   0  0  0  0  0  0  0  0  0  0  0  0
   39.3882   11.3421  -17.7666 C   0  0  0  0  0  0  0  0  0  0  0  0
   38.4735   10.7339  -18.6039 C   0  0  0  0  0  0  0  0  0  0  0  0
   37.1258   10.8963  -18.4089 C   0  0  0  0  0  0  0  0  0  0  0  0
   36.6557   11.6712  -17.3715 C   0  0  0  0  0  0  0  0  0  0  0  0
   37.5688   12.2690  -16.5483 C   0  0  0  0  0  0  0  0  0  0  0  0
   37.3784   13.0463  -15.5029 N   0  0  0  0  0  0  0  0  0  0  0  0
   38.5534   13.4143  -14.9876 C   0  0  0  0  0  0  0  0  0  0  0  0
   38.8270   14.2123  -13.8898 C   0  0  0  0  0  0  0  0  0  0  0  0
   44.2552   13.0503  -15.3067 H   0  0  0  0  0  0  0  0  0  0  0  0
   37.4431   11.0644  -13.1223 C   0  0  0  0  0  0  0  0  0  0  0  0
   36.5715   11.6178  -12.1024 N   0  0  0  0  0  0  0  0  0  0  0  0
   37.1957   12.1318  -11.4444 H   0  0  0  0  0  0  0  0  0  0  0  0
   36.3377   13.7928  -10.9734 O   0  0  0  0  0  0  0  0  0  0  0  0
   35.7418   14.6251  -10.0340 C   0  0  0  0  0  0  0  0  0  0  0  0
 33 34  1  0  0  0
 34  1  1  0  0  0
  1  2  1  0  0  0
  2  3  1  0  0  0
  3  4  1  0  0  0
  4  5  1  0  0  0
  5  6  1  0  0  0
  5  7  1  0  0  0
  7 36  1  0  0  0
 36 37  1  0  0  0
  5  8  1  0  0  0
  8  9  1  0  0  0
  9 10  2  0  0  0
 10 11  1  0  0  0
 11 12  2  0  0  0
 12 13  1  0  0  0
 13 14  2  0  0  0
 14 15  1  0  0  0
 15 16  2  0  0  0
 16 17  1  0  0  0
 17 18  1  0  0  0
 18 19  1  0  0  0
 19 20  2  0  0  0
 19 21  1  0  0  0
 21 22  2  0  0  0
 22 23  1  0  0  0
 23 24  2  0  0  0
 24 25  1  0  0  0
 25 26  2  0  0  0
 26 27  1  0  0  0
 27 28  2  0  0  0
 28 29  1  0  0  0
 29 30  1  0  0  0
 30 31  2  0  0  0
  7  1  1  0  0  0
 31  8  1  0  0  0
 29  3  1  0  0  0
 14  9  1  0  0  0
 31 15  1  0  0  0
 21 16  1  0  0  0
 30 22  1  0  0  0
 28 23  1  0  0  0
 34 35  1  0  0  0
 18 32  1  0  0  0
M  END
> <minimizedAffinity>
-7.81701

> <CNNscore>
0.2322955579

> <CNNaffinity>
6.3245744705

> <CNN_VS>
1.4691705704

> <CNNaffinity_variance>
0.1288398057

$$$$
[H]c1c([H])c([H])c2c(c1[H])c1c3c(c4c5c([H])c([H])c([H])c([H])c5n5c4c1n2[C@@]1(C([H])([H])[H])O[C@]5([H])C([H])([H])[C@@]([H])(N([H])C([H])([H])[H])[C@@]1([H])OC([H])([H])[H])C(=O)N([H])C3([H])[H]


 37 44  0  0  0  0  0  0  0  0999 V2000
   42.1695   15.7675   -8.3202 C   0  0  0  0  0  0  0  0  0  0  0  0
   43.3819   16.5604   -8.5316 C   0  0  0  0  0  0  0  0  0  0  0  0
   44.3905   16.3790   -7.4675 C   0  0  0  0  0  0  0  0  0  0  0  0
   44.0980   15.8232   -6.3228 O   0  0  0  0  0  0  0  0  0  0  0  0
   43.1787   14.7850   -6.1974 C   0  0  0  0  0  0  0  0  0  0  0  0
   42.8537   14.8728   -4.7004 C   0  0  0  0  0  0  0  0  0  0  0  0
   41.9952   15.0757   -6.9975 C   0  0  0  0  0  0  0  0  0  0  0  0
   43.8732   13.5269   -6.5231 N   0  0  0  0  0  0  0  0  0  0  0  0
   43.5795   12.2992   -6.0991 C   0  0  0  0  0  0  0  0  0  0  0  0
   42.5821   11.8044   -5.3057 C   0  0  0  0  0  0  0  0  0  0  0  0
   42.4907   10.4626   -5.0104 C   0  0  0  0  0  0  0  0  0  0  0  0
   43.4194    9.5459   -5.5130 C   0  0  0  0  0  0  0  0  0  0  0  0
   44.4126   10.0331   -6.3027 C   0  0  0  0  0  0  0  0  0  0  0  0
   44.4931   11.3701   -6.5895 C   0  0  0  0  0  0  0  0  0  0  0  0
   45.3835   12.0789   -7.3519 C   0  0  0  0  0  0  0  0  0  0  0  0
   46.5103   11.7180   -8.0938 C   0  0  0  0  0  0  0  0  0  0  0  0
   47.1284   10.3880   -8.2984 C   0  0  0  0  0  0  0  0  0  0  0  0
   48.2614   10.5783   -9.1427 N   0  0  0  0  0  0  0  0  0  0  0  0
   48.3544   11.9716   -9.4570 C   0  0  0  0  0  0  0  0  0  0  0  0
   49.2565   12.4022  -10.1782 O   0  0  0  0  0  0  0  0  0  0  0  0
   47.2604   12.6592   -8.7973 C   0  0  0  0  0  0  0  0  0  0  0  0
   46.8389   13.9679   -8.7294 C   0  0  0  0  0  0  0  0  0  0  0  0
   47.2858   15.1569   -9.2769 C   0  0  0  0  0  0  0  0  0  0  0  0
   48.3392   15.4645  -10.0914 C   0  0  0  0  0  0  0  0  0  0  0  0
   48.5307   16.7761  -10.4794 C   0  0  0  0  0  0  0  0  0  0  0  0
   47.6794   17.7652  -10.0577 C   0  0  0  0  0  0  0  0  0  0  0  0
   46.6135   17.4700   -9.2366 C   0  0  0  0  0  0  0  0  0  0  0  0
   46.4324   16.1690   -8.8580 C   0  0  0  0  0  0  0  0  0  0  0  0
   45.5047   15.6365   -8.0905 N   0  0  0  0  0  0  0  0  0  0  0  0
   45.7034   14.3211   -7.9798 C   0  0  0  0  0  0  0  0  0  0  0  0
   44.9730   13.3715   -7.2860 C   0  0  0  0  0  0  0  0  0  0  0  0
   48.8994    9.8122   -9.4628 H   0  0  0  0  0  0  0  0  0  0  0  0
   42.8822   15.2466  -10.5519 C   0  0  0  0  0  0  0  0  0  0  0  0
   42.0775   14.7942   -9.4321 N   0  0  0  0  0  0  0  0  0  0  0  0
   42.4735   13.8710   -9.1532 H   0  0  0  0  0  0  0  0  0  0  0  0
   41.1665   13.9948   -7.2895 O   0  0  0  0  0  0  0  0  0  0  0  0
   39.9133   14.0905   -6.6972 C   0  0  0  0  0  0  0  0  0  0  0  0
 33 34  1  0  0  0
 34  1  1  0  0  0
  1  2  1  0  0  0
  2  3  1  0  0  0
  3  4  1  0  0  0
  4  5  1  0  0  0
  5  6  1  0  0  0
  5  7  1  0  0  0
  7 36  1  0  0  0
 36 37  1  0  0  0
  5  8  1  0  0  0
  8  9  1  0  0  0
  9 10  2  0  0  0
 10 11  1  0  0  0
 11 12  2  0  0  0
 12 13  1  0  0  0
 13 14  2  0  0  0
 14 15  1  0  0  0
 15 16  2  0  0  0
 16 17  1  0  0  0
 17 18  1  0  0  0
 18 19  1  0  0  0
 19 20  2  0  0  0
 19 21  1  0  0  0
 21 22  2  0  0  0
 22 23  1  0  0  0
 23 24  2  0  0  0
 24 25  1  0  0  0
 25 26  2  0  0  0
 26 27  1  0  0  0
 27 28  2  0  0  0
 28 29  1  0  0  0
 29 30  1  0  0  0
 30 31  2  0  0  0
  7  1  1  0  0  0
 31  8  1  0  0  0
 29  3  1  0  0  0
 14  9  1  0  0  0
 31 15  1  0  0  0
 21 16  1  0  0  0
 30 22  1  0  0  0
 28 23  1  0  0  0
 34 35  1  0  0  0
 18 32  1  0  0  0
M  END
> <minimizedAffinity>
-5.01162

> <CNNscore>
0.1776753068

> <CNNaffinity>
5.1258711815

> <CNN_VS>
0.9107407331

> <CNNaffinity_variance>
0.2284524441

$$$$
[H]c1c([H])c([H])c2c(c1[H])c1c3c(c4c5c([H])c([H])c([H])c([H])c5n5c4c1n2[C@@]1(C([H])([H])[H])O[C@]5([H])C([H])([H])[C@@]([H])(N([H])C([H])([H])[H])[C@@]1([H])OC([H])([H])[H])C(=O)N([H])C3([H])[H]


 37 44  0  0  0  0  0  0  0  0999 V2000
   38.6116   15.9205   -9.9546 C   0  0  0  0  0  0  0  0  0  0  0  0
   37.1892   15.5945   -9.8365 C   0  0  0  0  0  0  0  0  0  0  0  0
   36.8629   14.8442   -8.6064 C   0  0  0  0  0  0  0  0  0  0  0  0
   37.7837   14.2723   -7.8786 O   0  0  0  0  0  0  0  0  0  0  0  0
   39.0554   14.8116   -7.7045 C   0  0  0  0  0  0  0  0  0  0  0  0
   39.8291   13.5703   -7.2405 C   0  0  0  0  0  0  0  0  0  0  0  0
   39.5680   15.2876   -8.9835 C   0  0  0  0  0  0  0  0  0  0  0  0
   38.9733   15.8232   -6.6362 N   0  0  0  0  0  0  0  0  0  0  0  0
   39.9450   16.2314   -5.8224 C   0  0  0  0  0  0  0  0  0  0  0  0
   41.2705   15.9110   -5.7246 C   0  0  0  0  0  0  0  0  0  0  0  0
   42.0866   16.4884   -4.7777 C   0  0  0  0  0  0  0  0  0  0  0  0
   41.5903   17.4315   -3.8723 C   0  0  0  0  0  0  0  0  0  0  0  0
   40.2731   17.7536   -3.9660 C   0  0  0  0  0  0  0  0  0  0  0  0
   39.4712   17.1726   -4.9123 C   0  0  0  0  0  0  0  0  0  0  0  0
   38.1417   17.3402   -5.1969 C   0  0  0  0  0  0  0  0  0  0  0  0
   37.1358   18.1354   -4.6435 C   0  0  0  0  0  0  0  0  0  0  0  0
   37.1935   19.0950   -3.5171 C   0  0  0  0  0  0  0  0  0  0  0  0
   35.8846   19.6383   -3.3625 N   0  0  0  0  0  0  0  0  0  0  0  0
   35.0358   19.0450   -4.3505 C   0  0  0  0  0  0  0  0  0  0  0  0
   33.8436   19.3479   -4.4299 O   0  0  0  0  0  0  0  0  0  0  0  0
   35.8307   18.1173   -5.1331 C   0  0  0  0  0  0  0  0  0  0  0  0
   35.5751   17.2771   -6.1932 C   0  0  0  0  0  0  0  0  0  0  0  0
   34.4533   16.9886   -6.9491 C   0  0  0  0  0  0  0  0  0  0  0  0
   33.1636   17.4383   -6.9033 C   0  0  0  0  0  0  0  0  0  0  0  0
   32.2474   16.9519   -7.8151 C   0  0  0  0  0  0  0  0  0  0  0  0
   32.6176   16.0284   -8.7591 C   0  0  0  0  0  0  0  0  0  0  0  0
   33.9139   15.5661   -8.8172 C   0  0  0  0  0  0  0  0  0  0  0  0
   34.8134   16.0535   -7.9105 C   0  0  0  0  0  0  0  0  0  0  0  0
   36.0913   15.7757   -7.7590 N   0  0  0  0  0  0  0  0  0  0  0  0
   36.5945   16.4804   -6.7431 C   0  0  0  0  0  0  0  0  0  0  0  0
   37.8842   16.5112   -6.2409 C   0  0  0  0  0  0  0  0  0  0  0  0
   35.6173   20.3487   -2.6411 H   0  0  0  0  0  0  0  0  0  0  0  0
   37.4175   18.0013  -10.0194 C   0  0  0  0  0  0  0  0  0  0  0  0
   38.7323   17.3956   -9.9167 N   0  0  0  0  0  0  0  0  0  0  0  0
   39.1208   17.7145   -9.0034 H   0  0  0  0  0  0  0  0  0  0  0  0
   40.6329   16.1839   -8.9271 O   0  0  0  0  0  0  0  0  0  0  0  0
   41.7906   15.6963   -9.5208 C   0  0  0  0  0  0  0  0  0  0  0  0
 33 34  1  0  0  0
 34  1  1  0  0  0
  1  2  1  0  0  0
  2  3  1  0  0  0
  3  4  1  0  0  0
  4  5  1  0  0  0
  5  6  1  0  0  0
  5  7  1  0  0  0
  7 36  1  0  0  0
 36 37  1  0  0  0
  5  8  1  0  0  0
  8  9  1  0  0  0
  9 10  2  0  0  0
 10 11  1  0  0  0
 11 12  2  0  0  0
 12 13  1  0  0  0
 13 14  2  0  0  0
 14 15  1  0  0  0
 15 16  2  0  0  0
 16 17  1  0  0  0
 17 18  1  0  0  0
 18 19  1  0  0  0
 19 20  2  0  0  0
 19 21  1  0  0  0
 21 22  2  0  0  0
 22 23  1  0  0  0
 23 24  2  0  0  0
 24 25  1  0  0  0
 25 26  2  0  0  0
 26 27  1  0  0  0
 27 28  2  0  0  0
 28 29  1  0  0  0
 29 30  1  0  0  0
 30 31  2  0  0  0
  7  1  1  0  0  0
 31  8  1  0  0  0
 29  3  1  0  0  0
 14  9  1  0  0  0
 31 15  1  0  0  0
 21 16  1  0  0  0
 30 22  1  0  0  0
 28 23  1  0  0  0
 34 35  1  0  0  0
 18 32  1  0  0  0
M  END
> <minimizedAffinity>
-5.85309

> <CNNscore>
0.1499677747

> <CNNaffinity>
5.3980431557

> <CNN_VS>
0.8095325232

> <CNNaffinity_variance>
0.2332634628

$$$$
[H]c1c([H])c([H])c2c(c1[H])c1c3c(c4c5c([H])c([H])c([H])c([H])c5n5c4c1n2[C@@]1(C([H])([H])[H])O[C@]5([H])C([H])([H])[C@@]([H])(N([H])C([H])([H])[H])[C@@]1([H])OC([H])([H])[H])C(=O)N([H])C3([H])[H]


 37 44  0  0  0  0  0  0  0  0999 V2000
   45.1877   15.7222   -6.3298 C   0  0  0  0  0  0  0  0  0  0  0  0
   45.6469   15.3130   -7.6583 C   0  0  0  0  0  0  0  0  0  0  0  0
   44.9077   14.1540   -8.1996 C   0  0  0  0  0  0  0  0  0  0  0  0
   44.1554   13.3984   -7.4460 O   0  0  0  0  0  0  0  0  0  0  0  0
   43.4147   13.8935   -6.3761 C   0  0  0  0  0  0  0  0  0  0  0  0
   43.1651   12.6040   -5.5827 C   0  0  0  0  0  0  0  0  0  0  0  0
   44.2282   14.8232   -5.6020 C   0  0  0  0  0  0  0  0  0  0  0  0
   42.1585   14.4441   -6.9146 N   0  0  0  0  0  0  0  0  0  0  0  0
   40.9894   14.5720   -6.2898 C   0  0  0  0  0  0  0  0  0  0  0  0
   40.5834   14.2969   -5.0136 C   0  0  0  0  0  0  0  0  0  0  0  0
   39.2903   14.5270   -4.6002 C   0  0  0  0  0  0  0  0  0  0  0  0
   38.3341   15.0546   -5.4736 C   0  0  0  0  0  0  0  0  0  0  0  0
   38.7333   15.3301   -6.7433 C   0  0  0  0  0  0  0  0  0  0  0  0
   40.0225   15.0970   -7.1429 C   0  0  0  0  0  0  0  0  0  0  0  0
   40.6461   15.2973   -8.3461 C   0  0  0  0  0  0  0  0  0  0  0  0
   40.2146   15.7924   -9.5786 C   0  0  0  0  0  0  0  0  0  0  0  0
   38.8791   16.2796   -9.9932 C   0  0  0  0  0  0  0  0  0  0  0  0
   38.9821   16.6714  -11.3601 N   0  0  0  0  0  0  0  0  0  0  0  0
   40.3275   16.4399  -11.7903 C   0  0  0  0  0  0  0  0  0  0  0  0
   40.6801   16.6978  -12.9428 O   0  0  0  0  0  0  0  0  0  0  0  0
   41.0738   15.8953  -10.6716 C   0  0  0  0  0  0  0  0  0  0  0  0
   42.3745   15.4863  -10.4817 C   0  0  0  0  0  0  0  0  0  0  0  0
   43.5006   15.4424  -11.2836 C   0  0  0  0  0  0  0  0  0  0  0  0
   43.7250   15.7873  -12.5868 C   0  0  0  0  0  0  0  0  0  0  0  0
   44.9890   15.6246  -13.1191 C   0  0  0  0  0  0  0  0  0  0  0  0
   46.0134   15.1238  -12.3571 C   0  0  0  0  0  0  0  0  0  0  0  0
   45.8020   14.7719  -11.0421 C   0  0  0  0  0  0  0  0  0  0  0  0
   44.5476   14.9365  -10.5245 C   0  0  0  0  0  0  0  0  0  0  0  0
   44.0951   14.6795   -9.3151 N   0  0  0  0  0  0  0  0  0  0  0  0
   42.7990   14.9894   -9.2371 C   0  0  0  0  0  0  0  0  0  0  0  0
   41.9294   14.8929   -8.1643 C   0  0  0  0  0  0  0  0  0  0  0  0
   38.1927   17.0591  -11.9284 H   0  0  0  0  0  0  0  0  0  0  0  0
   45.1809   17.7412   -7.6272 C   0  0  0  0  0  0  0  0  0  0  0  0
   44.6277   17.0870   -6.4558 N   0  0  0  0  0  0  0  0  0  0  0  0
   43.5971   17.0543   -6.6095 H   0  0  0  0  0  0  0  0  0  0  0  0
   43.5403   15.6842   -4.7501 O   0  0  0  0  0  0  0  0  0  0  0  0
   43.8917   15.5290   -3.4148 C   0  0  0  0  0  0  0  0  0  0  0  0
 33 34  1  0  0  0
 34  1  1  0  0  0
  1  2  1  0  0  0
  2  3  1  0  0  0
  3  4  1  0  0  0
  4  5  1  0  0  0
  5  6  1  0  0  0
  5  7  1  0  0  0
  7 36  1  0  0  0
 36 37  1  0  0  0
  5  8  1  0  0  0
  8  9  1  0  0  0
  9 10  2  0  0  0
 10 11  1  0  0  0
 11 12  2  0  0  0
 12 13  1  0  0  0
 13 14  2  0  0  0
 14 15  1  0  0  0
 15 16  2  0  0  0
 16 17  1  0  0  0
 17 18  1  0  0  0
 18 19  1  0  0  0
 19 20  2  0  0  0
 19 21  1  0  0  0
 21 22  2  0  0  0
 22 23  1  0  0  0
 23 24  2  0  0  0
 24 25  1  0  0  0
 25 26  2  0  0  0
 26 27  1  0  0  0
 27 28  2  0  0  0
 28 29  1  0  0  0
 29 30  1  0  0  0
 30 31  2  0  0  0
  7  1  1  0  0  0
 31  8  1  0  0  0
 29  3  1  0  0  0
 14  9  1  0  0  0
 31 15  1  0  0  0
 21 16  1  0  0  0
 30 22  1  0  0  0
 28 23  1  0  0  0
 34 35  1  0  0  0
 18 32  1  0  0  0
M  END
> <minimizedAffinity>
-6.29361

> <CNNscore>
0.1366097182

> <CNNaffinity>
5.2215762138

> <CNN_VS>
0.7133180499

> <CNNaffinity_variance>
0.1984195262

$$$$
[H]c1c([H])c([H])c2c(c1[H])c1c3c(c4c5c([H])c([H])c([H])c([H])c5n5c4c1n2[C@@]1(C([H])([H])[H])O[C@]5([H])C([H])([H])[C@@]([H])(N([H])C([H])([H])[H])[C@@]1([H])OC([H])([H])[H])C(=O)N([H])C3([H])[H]


 37 44  0  0  0  0  0  0  0  0999 V2000
   37.3921   15.3528   -9.4633 C   0  0  0  0  0  0  0  0  0  0  0  0
   35.9458   15.1298   -9.4194 C   0  0  0  0  0  0  0  0  0  0  0  0
   35.4854   14.5368   -8.1470 C   0  0  0  0  0  0  0  0  0  0  0  0
   36.3127   13.9900   -7.2977 O   0  0  0  0  0  0  0  0  0  0  0  0
   37.6041   14.4651   -7.0848 C   0  0  0  0  0  0  0  0  0  0  0  0
   38.2564   13.2350   -6.4400 C   0  0  0  0  0  0  0  0  0  0  0  0
   38.2342   14.7692   -8.3638 C   0  0  0  0  0  0  0  0  0  0  0  0
   37.5198   15.5881   -6.1345 N   0  0  0  0  0  0  0  0  0  0  0  0
   38.4599   16.0200   -5.2961 C   0  0  0  0  0  0  0  0  0  0  0  0
   39.7503   15.6305   -5.0672 C   0  0  0  0  0  0  0  0  0  0  0  0
   40.5381   16.2541   -4.1257 C   0  0  0  0  0  0  0  0  0  0  0  0
   40.0480   17.3174   -3.3611 C   0  0  0  0  0  0  0  0  0  0  0  0
   38.7658   17.7084   -3.5855 C   0  0  0  0  0  0  0  0  0  0  0  0
   37.9917   17.0804   -4.5249 C   0  0  0  0  0  0  0  0  0  0  0  0
   36.6995   17.2986   -4.9238 C   0  0  0  0  0  0  0  0  0  0  0  0
   35.7159   18.2090   -4.5313 C   0  0  0  0  0  0  0  0  0  0  0  0
   35.7632   19.2779   -3.5075 C   0  0  0  0  0  0  0  0  0  0  0  0
   34.4876   19.9145   -3.5076 N   0  0  0  0  0  0  0  0  0  0  0  0
   33.6688   19.2728   -4.4908 C   0  0  0  0  0  0  0  0  0  0  0  0
   32.5087   19.6386   -4.6896 O   0  0  0  0  0  0  0  0  0  0  0  0
   34.4490   18.2194   -5.1129 C   0  0  0  0  0  0  0  0  0  0  0  0
   34.2083   17.2883   -6.0978 C   0  0  0  0  0  0  0  0  0  0  0  0
   33.1233   16.9907   -6.9022 C   0  0  0  0  0  0  0  0  0  0  0  0
   31.8677   17.5216   -6.9992 C   0  0  0  0  0  0  0  0  0  0  0  0
   30.9840   16.9982   -7.9227 C   0  0  0  0  0  0  0  0  0  0  0  0
   31.3527   15.9582   -8.7371 C   0  0  0  0  0  0  0  0  0  0  0  0
   32.6148   15.4130   -8.6505 C   0  0  0  0  0  0  0  0  0  0  0  0
   33.4821   15.9379   -7.7335 C   0  0  0  0  0  0  0  0  0  0  0  0
   34.7245   15.5993   -7.4592 N   0  0  0  0  0  0  0  0  0  0  0  0
   35.2051   16.3760   -6.4857 C   0  0  0  0  0  0  0  0  0  0  0  0
   36.4567   16.3804   -5.8941 C   0  0  0  0  0  0  0  0  0  0  0  0
   34.2218   20.7130   -2.8845 H   0  0  0  0  0  0  0  0  0  0  0  0
   36.7829   17.3633  -10.6237 C   0  0  0  0  0  0  0  0  0  0  0  0
   37.6120   16.8133   -9.5671 N   0  0  0  0  0  0  0  0  0  0  0  0
   37.3158   17.2979   -8.6930 H   0  0  0  0  0  0  0  0  0  0  0  0
   39.3523   15.5989   -8.3196 O   0  0  0  0  0  0  0  0  0  0  0  0
   40.5370   14.9368   -8.6171 C   0  0  0  0  0  0  0  0  0  0  0  0
 33 34  1  0  0  0
 34  1  1  0  0  0
  1  2  1  0  0  0
  2  3  1  0  0  0
  3  4  1  0  0  0
  4  5  1  0  0  0
  5  6  1  0  0  0
  5  7  1  0  0  0
  7 36  1  0  0  0
 36 37  1  0  0  0
  5  8  1  0  0  0
  8  9  1  0  0  0
  9 10  2  0  0  0
 10 11  1  0  0  0
 11 12  2  0  0  0
 12 13  1  0  0  0
 13 14  2  0  0  0
 14 15  1  0  0  0
 15 16  2  0  0  0
 16 17  1  0  0  0
 17 18  1  0  0  0
 18 19  1  0  0  0
 19 20  2  0  0  0
 19 21  1  0  0  0
 21 22  2  0  0  0
 22 23  1  0  0  0
 23 24  2  0  0  0
 24 25  1  0  0  0
 25 26  2  0  0  0
 26 27  1  0  0  0
 27 28  2  0  0  0
 28 29  1  0  0  0
 29 30  1  0  0  0
 30 31  2  0  0  0
  7  1  1  0  0  0
 31  8  1  0  0  0
 29  3  1  0  0  0
 14  9  1  0  0  0
 31 15  1  0  0  0
 21 16  1  0  0  0
 30 22  1  0  0  0
 28 23  1  0  0  0
 34 35  1  0  0  0
 18 32  1  0  0  0
M  END
> <minimizedAffinity>
-6.06829

> <CNNscore>
0.1305533350

> <CNNaffinity>
5.4454736710

> <CNN_VS>
0.7109247446

> <CNNaffinity_variance>
0.1668576896

$$$$
[H]c1c([H])c([H])c2c(c1[H])c1c3c(c4c5c([H])c([H])c([H])c([H])c5n5c4c1n2[C@@]1(C([H])([H])[H])O[C@]5([H])C([H])([H])[C@@]([H])(N([H])C([H])([H])[H])[C@@]1([H])OC([H])([H])[H])C(=O)N([H])C3([H])[H]


 37 44  0  0  0  0  0  0  0  0999 V2000
   37.8317   17.2838   -9.8047 C   0  0  0  0  0  0  0  0  0  0  0  0
   36.7256   16.7781  -10.6197 C   0  0  0  0  0  0  0  0  0  0  0  0
   36.4018   15.3622  -10.3495 C   0  0  0  0  0  0  0  0  0  0  0  0
   37.2138   14.5788   -9.6925 O   0  0  0  0  0  0  0  0  0  0  0  0
   38.0123   15.0241   -8.6425 C   0  0  0  0  0  0  0  0  0  0  0  0
   39.0661   13.9097   -8.5949 C   0  0  0  0  0  0  0  0  0  0  0  0
   38.6273   16.2974   -8.9970 C   0  0  0  0  0  0  0  0  0  0  0  0
   37.1867   15.0347   -7.4220 N   0  0  0  0  0  0  0  0  0  0  0  0
   37.5944   14.9154   -6.1599 C   0  0  0  0  0  0  0  0  0  0  0  0
   38.8315   14.7918   -5.5912 C   0  0  0  0  0  0  0  0  0  0  0  0
   38.9940   14.6861   -4.2280 C   0  0  0  0  0  0  0  0  0  0  0  0
   37.8941   14.7011   -3.3646 C   0  0  0  0  0  0  0  0  0  0  0  0
   36.6621   14.8243   -3.9254 C   0  0  0  0  0  0  0  0  0  0  0  0
   36.5131   14.9288   -5.2829 C   0  0  0  0  0  0  0  0  0  0  0  0
   35.3944   15.0657   -6.0615 C   0  0  0  0  0  0  0  0  0  0  0  0
   34.0298   15.1413   -5.7740 C   0  0  0  0  0  0  0  0  0  0  0  0
   33.3283   15.0934   -4.4708 C   0  0  0  0  0  0  0  0  0  0  0  0
   31.9336   15.2126   -4.7414 N   0  0  0  0  0  0  0  0  0  0  0  0
   31.7625   15.3299   -6.1576 C   0  0  0  0  0  0  0  0  0  0  0  0
   30.6409   15.4461   -6.6554 O   0  0  0  0  0  0  0  0  0  0  0  0
   33.0732   15.2835   -6.7780 C   0  0  0  0  0  0  0  0  0  0  0  0
   33.5350   15.3476   -8.0733 C   0  0  0  0  0  0  0  0  0  0  0  0
   32.9306   15.4955   -9.3086 C   0  0  0  0  0  0  0  0  0  0  0  0
   31.6253   15.6219   -9.6930 C   0  0  0  0  0  0  0  0  0  0  0  0
   31.3278   15.7571  -11.0349 C   0  0  0  0  0  0  0  0  0  0  0  0
   32.3235   15.7657  -11.9781 C   0  0  0  0  0  0  0  0  0  0  0  0
   33.6436   15.6392  -11.6053 C   0  0  0  0  0  0  0  0  0  0  0  0
   33.9278   15.5059  -10.2749 C   0  0  0  0  0  0  0  0  0  0  0  0
   35.0900   15.3710   -9.6713 N   0  0  0  0  0  0  0  0  0  0  0  0
   34.9106   15.2705   -8.3524 C   0  0  0  0  0  0  0  0  0  0  0  0
   35.8449   15.1270   -7.3409 C   0  0  0  0  0  0  0  0  0  0  0  0
   31.1840   15.2114   -4.0102 H   0  0  0  0  0  0  0  0  0  0  0  0
   37.8510   19.6331   -9.3146 C   0  0  0  0  0  0  0  0  0  0  0  0
   37.2883   18.3507   -8.9338 N   0  0  0  0  0  0  0  0  0  0  0  0
   36.2576   18.4451   -9.0587 H   0  0  0  0  0  0  0  0  0  0  0  0
   39.1313   17.0548   -7.9421 O   0  0  0  0  0  0  0  0  0  0  0  0
   40.4899   16.8584   -7.7276 C   0  0  0  0  0  0  0  0  0  0  0  0
 33 34  1  0  0  0
 34  1  1  0  0  0
  1  2  1  0  0  0
  2  3  1  0  0  0
  3  4  1  0  0  0
  4  5  1  0  0  0
  5  6  1  0  0  0
  5  7  1  0  0  0
  7 36  1  0  0  0
 36 37  1  0  0  0
  5  8  1  0  0  0
  8  9  1  0  0  0
  9 10  2  0  0  0
 10 11  1  0  0  0
 11 12  2  0  0  0
 12 13  1  0  0  0
 13 14  2  0  0  0
 14 15  1  0  0  0
 15 16  2  0  0  0
 16 17  1  0  0  0
 17 18  1  0  0  0
 18 19  1  0  0  0
 19 20  2  0  0  0
 19 21  1  0  0  0
 21 22  2  0  0  0
 22 23  1  0  0  0
 23 24  2  0  0  0
 24 25  1  0  0  0
 25 26  2  0  0  0
 26 27  1  0  0  0
 27 28  2  0  0  0
 28 29  1  0  0  0
 29 30  1  0  0  0
 30 31  2  0  0  0
  7  1  1  0  0  0
 31  8  1  0  0  0
 29  3  1  0  0  0
 14  9  1  0  0  0
 31 15  1  0  0  0
 21 16  1  0  0  0
 30 22  1  0  0  0
 28 23  1  0  0  0
 34 35  1  0  0  0
 18 32  1  0  0  0
M  END
> <minimizedAffinity>
-5.38107

> <CNNscore>
0.1270100325

> <CNNaffinity>
5.5534143448

> <CNN_VS>
0.7053393126

> <CNNaffinity_variance>
0.1316618770

$$$$
[H]O[C@@]1([H])[C@@]([H])(n2c(=O)n([H])c3c4c([H])c([H])c([H])c([H])c4n(C([H])([H])[H])c(=O)c32)C([H])([H])[C@]([H])(/C([H])=C(\[H])c2c([H])c([H])c([H])c([H])c2[H])[C@@]([H])(O[H])[C@@]1([H])O[H]


 37 41  0  0  0  0  0  0  0  0999 V2000
   39.4897   14.5516   -5.7574 C   0  0  0  0  0  0  0  0  0  0  0  0
   40.0672   15.9129   -5.3335 C   0  0  0  0  0  0  0  0  0  0  0  0
   41.4297   15.9847   -5.6253 O   0  0  0  0  0  0  0  0  0  0  0  0
   39.3507   16.8960   -6.2067 C   0  0  0  0  0  0  0  0  0  0  0  0
   39.9657   16.8020   -7.4787 O   0  0  0  0  0  0  0  0  0  0  0  0
   37.8830   16.7514   -6.2925 C   0  0  0  0  0  0  0  0  0  0  0  0
   37.5449   16.6365   -7.6476 O   0  0  0  0  0  0  0  0  0  0  0  0
   37.2531   15.6507   -5.4843 C   0  0  0  0  0  0  0  0  0  0  0  0
   38.1360   14.4954   -5.1721 C   0  0  0  0  0  0  0  0  0  0  0  0
   41.6349   15.5388   -6.4737 H   0  0  0  0  0  0  0  0  0  0  0  0
   40.8501   17.2158   -7.4911 H   0  0  0  0  0  0  0  0  0  0  0  0
   37.8015   17.5192   -8.0612 H   0  0  0  0  0  0  0  0  0  0  0  0
   36.0080   15.2915   -6.1584 N   0  0  0  0  0  0  0  0  0  0  0  0
   34.7390   15.7023   -5.9000 C   0  0  0  0  0  0  0  0  0  0  0  0
   33.8911   15.0730   -6.8247 C   0  0  0  0  0  0  0  0  0  0  0  0
   32.5297   15.3213   -6.7845 C   0  0  0  0  0  0  0  0  0  0  0  0
   32.0547   16.1887   -5.8247 C   0  0  0  0  0  0  0  0  0  0  0  0
   30.7008   16.4450   -5.7732 C   0  0  0  0  0  0  0  0  0  0  0  0
   29.8716   15.8226   -6.6859 C   0  0  0  0  0  0  0  0  0  0  0  0
   30.3389   14.9506   -7.6526 C   0  0  0  0  0  0  0  0  0  0  0  0
   31.7097   14.6954   -7.6994 C   0  0  0  0  0  0  0  0  0  0  0  0
   32.8828   16.7748   -4.9568 N   0  0  0  0  0  0  0  0  0  0  0  0
   32.3498   17.6760   -3.9674 C   0  0  0  0  0  0  0  0  0  0  0  0
   34.2153   16.5620   -4.9597 C   0  0  0  0  0  0  0  0  0  0  0  0
   34.9705   17.1197   -4.1414 O   0  0  0  0  0  0  0  0  0  0  0  0
   34.6398   14.3016   -7.6207 N   0  0  0  0  0  0  0  0  0  0  0  0
   35.9052   14.4352   -7.2191 C   0  0  0  0  0  0  0  0  0  0  0  0
   36.8864   13.8475   -7.7498 O   0  0  0  0  0  0  0  0  0  0  0  0
   34.2864   13.7172   -8.3977 H   0  0  0  0  0  0  0  0  0  0  0  0
   40.9227   12.6012   -6.1446 C   0  0  0  0  0  0  0  0  0  0  0  0
   40.4278   13.5271   -5.3499 C   0  0  0  0  0  0  0  0  0  0  0  0
   41.8680   11.5772   -5.7107 C   0  0  0  0  0  0  0  0  0  0  0  0
   42.9704   11.1866   -6.4311 C   0  0  0  0  0  0  0  0  0  0  0  0
   43.8391   10.1968   -5.9581 C   0  0  0  0  0  0  0  0  0  0  0  0
   43.6238    9.5806   -4.7604 C   0  0  0  0  0  0  0  0  0  0  0  0
   42.5284    9.9557   -4.0247 C   0  0  0  0  0  0  0  0  0  0  0  0
   41.6717   10.9286   -4.4863 C   0  0  0  0  0  0  0  0  0  0  0  0
 32 30  1  0  0  0
 30 31  2  0  0  0
 31  1  1  0  0  0
  1  2  1  0  0  0
  2  3  1  0  0  0
  2  4  1  0  0  0
  4  5  1  0  0  0
  4  6  1  0  0  0
  6  7  1  0  0  0
  6  8  1  0  0  0
  8 13  1  0  0  0
 13 14  1  0  0  0
 14 15  2  0  0  0
 15 16  1  0  0  0
 16 17  1  0  0  0
 17 18  2  0  0  0
 18 19  1  0  0  0
 19 20  2  0  0  0
 20 21  1  0  0  0
 17 22  1  0  0  0
 22 23  1  0  0  0
 22 24  1  0  0  0
 24 25  2  0  0  0
 15 26  1  0  0  0
 26 27  1  0  0  0
 27 28  2  0  0  0
  8  9  1  0  0  0
 32 33  2  0  0  0
 33 34  1  0  0  0
 34 35  2  0  0  0
 35 36  1  0  0  0
 36 37  2  0  0  0
 37 32  1  0  0  0
  9  1  1  0  0  0
 27 13  1  0  0  0
 24 14  1  0  0  0
 21 16  2  0  0  0
  3 10  1  0  0  0
  5 11  1  0  0  0
  7 12  1  0  0  0
 26 29  1  0  0  0
M  END
> <minimizedAffinity>
-7.41631

> <CNNscore>
0.2959863245

> <CNNaffinity>
5.3502163887

> <CNN_VS>
1.5835908651

> <CNNaffinity_variance>
0.2808157504

$$$$
[H]O[C@@]1([H])[C@@]([H])(n2c(=O)n([H])c3c4c([H])c([H])c([H])c([H])c4n(C([H])([H])[H])c(=O)c32)C([H])([H])[C@]([H])(/C([H])=C(\[H])c2c([H])c([H])c([H])c([H])c2[H])[C@@]([H])(O[H])[C@@]1([H])O[H]


 37 41  0  0  0  0  0  0  0  0999 V2000
   35.5851   14.7996  -11.8375 C   0  0  0  0  0  0  0  0  0  0  0  0
   34.1483   14.6472  -11.3097 C   0  0  0  0  0  0  0  0  0  0  0  0
   33.7083   15.8342  -10.7231 O   0  0  0  0  0  0  0  0  0  0  0  0
   33.3346   14.4071  -12.5436 C   0  0  0  0  0  0  0  0  0  0  0  0
   33.1901   15.6724  -13.1627 O   0  0  0  0  0  0  0  0  0  0  0  0
   33.8496   13.3898  -13.4830 C   0  0  0  0  0  0  0  0  0  0  0  0
   33.9675   13.9938  -14.7420 O   0  0  0  0  0  0  0  0  0  0  0  0
   35.1220   12.6848  -13.1017 C   0  0  0  0  0  0  0  0  0  0  0  0
   36.0252   13.4355  -12.1894 C   0  0  0  0  0  0  0  0  0  0  0  0
   34.0346   16.6159  -11.2162 H   0  0  0  0  0  0  0  0  0  0  0  0
   32.5611   16.2461  -12.6844 H   0  0  0  0  0  0  0  0  0  0  0  0
   33.0255   14.2284  -15.0134 H   0  0  0  0  0  0  0  0  0  0  0  0
   35.7511   12.2474  -14.3454 N   0  0  0  0  0  0  0  0  0  0  0  0
   37.0292   12.4220  -14.7720 C   0  0  0  0  0  0  0  0  0  0  0  0
   37.1428   11.8194  -16.0345 C   0  0  0  0  0  0  0  0  0  0  0  0
   38.3556   11.8503  -16.7014 C   0  0  0  0  0  0  0  0  0  0  0  0
   39.4181   12.4805  -16.0902 C   0  0  0  0  0  0  0  0  0  0  0  0
   40.6320   12.5190  -16.7432 C   0  0  0  0  0  0  0  0  0  0  0  0
   40.7373   11.9242  -17.9855 C   0  0  0  0  0  0  0  0  0  0  0  0
   39.6768   11.2895  -18.6068 C   0  0  0  0  0  0  0  0  0  0  0  0
   38.4513   11.2541  -17.9409 C   0  0  0  0  0  0  0  0  0  0  0  0
   39.2837   13.0459  -14.8883 N   0  0  0  0  0  0  0  0  0  0  0  0
   40.4167   13.6955  -14.2806 C   0  0  0  0  0  0  0  0  0  0  0  0
   38.1213   13.0393  -14.2030 C   0  0  0  0  0  0  0  0  0  0  0  0
   38.0175   13.5721  -13.0821 O   0  0  0  0  0  0  0  0  0  0  0  0
   35.9551   11.2942  -16.3553 N   0  0  0  0  0  0  0  0  0  0  0  0
   35.1257   11.5521  -15.3425 C   0  0  0  0  0  0  0  0  0  0  0  0
   33.9157   11.1993  -15.3055 O   0  0  0  0  0  0  0  0  0  0  0  0
   35.7385   10.7862  -17.2301 H   0  0  0  0  0  0  0  0  0  0  0  0
   37.0448   14.9224   -9.8724 C   0  0  0  0  0  0  0  0  0  0  0  0
   36.3536   15.5019  -10.8316 C   0  0  0  0  0  0  0  0  0  0  0  0
   37.8126   15.6521   -8.8681 C   0  0  0  0  0  0  0  0  0  0  0  0
   38.8676   15.1230   -8.1656 C   0  0  0  0  0  0  0  0  0  0  0  0
   39.5636   15.8772   -7.2143 C   0  0  0  0  0  0  0  0  0  0  0  0
   39.2198   17.1699   -6.9477 C   0  0  0  0  0  0  0  0  0  0  0  0
   38.1688   17.7181   -7.6383 C   0  0  0  0  0  0  0  0  0  0  0  0
   37.4819   16.9798   -8.5745 C   0  0  0  0  0  0  0  0  0  0  0  0
 32 30  1  0  0  0
 30 31  2  0  0  0
 31  1  1  0  0  0
  1  2  1  0  0  0
  2  3  1  0  0  0
  2  4  1  0  0  0
  4  5  1  0  0  0
  4  6  1  0  0  0
  6  7  1  0  0  0
  6  8  1  0  0  0
  8 13  1  0  0  0
 13 14  1  0  0  0
 14 15  2  0  0  0
 15 16  1  0  0  0
 16 17  1  0  0  0
 17 18  2  0  0  0
 18 19  1  0  0  0
 19 20  2  0  0  0
 20 21  1  0  0  0
 17 22  1  0  0  0
 22 23  1  0  0  0
 22 24  1  0  0  0
 24 25  2  0  0  0
 15 26  1  0  0  0
 26 27  1  0  0  0
 27 28  2  0  0  0
  8  9  1  0  0  0
 32 33  2  0  0  0
 33 34  1  0  0  0
 34 35  2  0  0  0
 35 36  1  0  0  0
 36 37  2  0  0  0
 37 32  1  0  0  0
  9  1  1  0  0  0
 27 13  1  0  0  0
 24 14  1  0  0  0
 21 16  2  0  0  0
  3 10  1  0  0  0
  5 11  1  0  0  0
  7 12  1  0  0  0
 26 29  1  0  0  0
M  END
> <minimizedAffinity>
-9.75130

> <CNNscore>
0.2538599968

> <CNNaffinity>
6.6383218765

> <CNN_VS>
1.6852043867

> <CNNaffinity_variance>
0.4500159323

$$$$
[H]O[C@@]1([H])[C@@]([H])(n2c(=O)n([H])c3c4c([H])c([H])c([H])c([H])c4n(C([H])([H])[H])c(=O)c32)C([H])([H])[C@]([H])(/C([H])=C(\[H])c2c([H])c([H])c([H])c([H])c2[H])[C@@]([H])(O[H])[C@@]1([H])O[H]


 37 41  0  0  0  0  0  0  0  0999 V2000
   37.1406   15.2259  -10.1592 C   0  0  0  0  0  0  0  0  0  0  0  0
   35.7015   15.7693  -10.1679 C   0  0  0  0  0  0  0  0  0  0  0  0
   35.5721   16.8410   -9.2840 O   0  0  0  0  0  0  0  0  0  0  0  0
   35.5210   16.2889  -11.5607 C   0  0  0  0  0  0  0  0  0  0  0  0
   36.2058   17.5276  -11.6021 O   0  0  0  0  0  0  0  0  0  0  0  0
   35.9397   15.3911  -12.6567 C   0  0  0  0  0  0  0  0  0  0  0  0
   36.8528   16.0921  -13.4559 O   0  0  0  0  0  0  0  0  0  0  0  0
   36.4845   14.0438  -12.2703 C   0  0  0  0  0  0  0  0  0  0  0  0
   37.0910   13.9593  -10.9151 C   0  0  0  0  0  0  0  0  0  0  0  0
   36.3742   17.4043   -9.2894 H   0  0  0  0  0  0  0  0  0  0  0  0
   35.7253   18.2296  -11.1227 H   0  0  0  0  0  0  0  0  0  0  0  0
   36.3270   16.8546  -13.8537 H   0  0  0  0  0  0  0  0  0  0  0  0
   37.3691   13.6200  -13.3528 N   0  0  0  0  0  0  0  0  0  0  0  0
   37.0945   12.8506  -14.4384 C   0  0  0  0  0  0  0  0  0  0  0  0
   38.2777   12.7272  -15.1832 C   0  0  0  0  0  0  0  0  0  0  0  0
   38.2762   11.9874  -16.3534 C   0  0  0  0  0  0  0  0  0  0  0  0
   37.0962   11.3931  -16.7457 C   0  0  0  0  0  0  0  0  0  0  0  0
   37.0804   10.6531  -17.9092 C   0  0  0  0  0  0  0  0  0  0  0  0
   38.2481   10.5355  -18.6376 C   0  0  0  0  0  0  0  0  0  0  0  0
   39.4369   11.1281  -18.2520 C   0  0  0  0  0  0  0  0  0  0  0  0
   39.4464   11.8754  -17.0739 C   0  0  0  0  0  0  0  0  0  0  0  0
   35.9841   11.5262  -16.0191 N   0  0  0  0  0  0  0  0  0  0  0  0
   34.7692   10.8906  -16.4609 C   0  0  0  0  0  0  0  0  0  0  0  0
   35.9401   12.2375  -14.8733 C   0  0  0  0  0  0  0  0  0  0  0  0
   34.8916   12.3498  -14.2106 O   0  0  0  0  0  0  0  0  0  0  0  0
   39.2404   13.4108  -14.5546 N   0  0  0  0  0  0  0  0  0  0  0  0
   38.6930   13.9434  -13.4606 C   0  0  0  0  0  0  0  0  0  0  0  0
   39.3155   14.6572  -12.6282 O   0  0  0  0  0  0  0  0  0  0  0  0
   40.2210   13.4990  -14.8723 H   0  0  0  0  0  0  0  0  0  0  0  0
   36.9748   14.4667   -7.8346 C   0  0  0  0  0  0  0  0  0  0  0  0
   37.5781   15.1551   -8.7810 C   0  0  0  0  0  0  0  0  0  0  0  0
   37.4347   14.4105   -6.4504 C   0  0  0  0  0  0  0  0  0  0  0  0
   38.7452   14.5521   -6.0641 C   0  0  0  0  0  0  0  0  0  0  0  0
   39.1210   14.4879   -4.7177 C   0  0  0  0  0  0  0  0  0  0  0  0
   38.1977   14.2818   -3.7351 C   0  0  0  0  0  0  0  0  0  0  0  0
   36.8829   14.1377   -4.0991 C   0  0  0  0  0  0  0  0  0  0  0  0
   36.5094   14.2002   -5.4220 C   0  0  0  0  0  0  0  0  0  0  0  0
 32 30  1  0  0  0
 30 31  2  0  0  0
 31  1  1  0  0  0
  1  2  1  0  0  0
  2  3  1  0  0  0
  2  4  1  0  0  0
  4  5  1  0  0  0
  4  6  1  0  0  0
  6  7  1  0  0  0
  6  8  1  0  0  0
  8 13  1  0  0  0
 13 14  1  0  0  0
 14 15  2  0  0  0
 15 16  1  0  0  0
 16 17  1  0  0  0
 17 18  2  0  0  0
 18 19  1  0  0  0
 19 20  2  0  0  0
 20 21  1  0  0  0
 17 22  1  0  0  0
 22 23  1  0  0  0
 22 24  1  0  0  0
 24 25  2  0  0  0
 15 26  1  0  0  0
 26 27  1  0  0  0
 27 28  2  0  0  0
  8  9  1  0  0  0
 32 33  2  0  0  0
 33 34  1  0  0  0
 34 35  2  0  0  0
 35 36  1  0  0  0
 36 37  2  0  0  0
 37 32  1  0  0  0
  9  1  1  0  0  0
 27 13  1  0  0  0
 24 14  1  0  0  0
 21 16  2  0  0  0
  3 10  1  0  0  0
  5 11  1  0  0  0
  7 12  1  0  0  0
 26 29  1  0  0  0
M  END
> <minimizedAffinity>
-9.55366

> <CNNscore>
0.2010089308

> <CNNaffinity>
6.2686209679

> <CNN_VS>
1.2600487471

> <CNNaffinity_variance>
0.1062778234

$$$$
[H]O[C@@]1([H])[C@@]([H])(n2c(=O)n([H])c3c4c([H])c([H])c([H])c([H])c4n(C([H])([H])[H])c(=O)c32)C([H])([H])[C@]([H])(/C([H])=C(\[H])c2c([H])c([H])c([H])c([H])c2[H])[C@@]([H])(O[H])[C@@]1([H])O[H]


 37 41  0  0  0  0  0  0  0  0999 V2000
   36.9142   15.3778   -9.7612 C   0  0  0  0  0  0  0  0  0  0  0  0
   35.6085   16.1899   -9.8035 C   0  0  0  0  0  0  0  0  0  0  0  0
   35.6644   17.2631   -8.9137 O   0  0  0  0  0  0  0  0  0  0  0  0
   35.5710   16.7398  -11.1958 C   0  0  0  0  0  0  0  0  0  0  0  0
   36.4836   17.8224  -11.2077 O   0  0  0  0  0  0  0  0  0  0  0  0
   35.8385   15.7820  -12.2883 C   0  0  0  0  0  0  0  0  0  0  0  0
   36.8920   16.2956  -13.0565 O   0  0  0  0  0  0  0  0  0  0  0  0
   36.1010   14.3531  -11.8998 C   0  0  0  0  0  0  0  0  0  0  0  0
   36.6414   14.1476  -10.5297 C   0  0  0  0  0  0  0  0  0  0  0  0
   36.5602   17.6601   -8.8925 H   0  0  0  0  0  0  0  0  0  0  0  0
   36.1350   18.6025  -10.7350 H   0  0  0  0  0  0  0  0  0  0  0  0
   36.5351   17.1471  -13.4612 H   0  0  0  0  0  0  0  0  0  0  0  0
   36.9166   13.7699  -12.9621 N   0  0  0  0  0  0  0  0  0  0  0  0
   36.5375   12.9983  -14.0141 C   0  0  0  0  0  0  0  0  0  0  0  0
   37.6906   12.6873  -14.7515 C   0  0  0  0  0  0  0  0  0  0  0  0
   37.5856   11.9051  -15.8890 C   0  0  0  0  0  0  0  0  0  0  0  0
   36.3355   11.4566  -16.2569 C   0  0  0  0  0  0  0  0  0  0  0  0
   36.2164   10.6764  -17.3877 C   0  0  0  0  0  0  0  0  0  0  0  0
   37.3549   10.3739  -18.1090 C   0  0  0  0  0  0  0  0  0  0  0  0
   38.6136   10.8192  -17.7476 C   0  0  0  0  0  0  0  0  0  0  0  0
   38.7274   11.6082  -16.6026 C   0  0  0  0  0  0  0  0  0  0  0  0
   35.2541   11.7670  -15.5380 N   0  0  0  0  0  0  0  0  0  0  0  0
   33.9637   11.2801  -15.9537 C   0  0  0  0  0  0  0  0  0  0  0  0
   35.3100   12.5260  -14.4238 C   0  0  0  0  0  0  0  0  0  0  0  0
   34.2887   12.8046  -13.7678 O   0  0  0  0  0  0  0  0  0  0  0  0
   38.7383   13.2632  -14.1516 N   0  0  0  0  0  0  0  0  0  0  0  0
   38.2712   13.9098  -13.0820 C   0  0  0  0  0  0  0  0  0  0  0  0
   38.9866   14.5694  -12.2802 O   0  0  0  0  0  0  0  0  0  0  0  0
   39.7205   13.2068  -14.4715 H   0  0  0  0  0  0  0  0  0  0  0  0
   36.5747   14.5864   -7.4665 C   0  0  0  0  0  0  0  0  0  0  0  0
   37.2911   15.2184   -8.3726 C   0  0  0  0  0  0  0  0  0  0  0  0
   36.9753   14.4385   -6.0707 C   0  0  0  0  0  0  0  0  0  0  0  0
   36.1399   14.0136   -5.0667 C   0  0  0  0  0  0  0  0  0  0  0  0
   36.5869   13.8930   -3.7462 C   0  0  0  0  0  0  0  0  0  0  0  0
   37.8729   14.1937   -3.4049 C   0  0  0  0  0  0  0  0  0  0  0  0
   38.7242   14.6200   -4.3925 C   0  0  0  0  0  0  0  0  0  0  0  0
   38.2884   14.7399   -5.6922 C   0  0  0  0  0  0  0  0  0  0  0  0
 32 30  1  0  0  0
 30 31  2  0  0  0
 31  1  1  0  0  0
  1  2  1  0  0  0
  2  3  1  0  0  0
  2  4  1  0  0  0
  4  5  1  0  0  0
  4  6  1  0  0  0
  6  7  1  0  0  0
  6  8  1  0  0  0
  8 13  1  0  0  0
 13 14  1  0  0  0
 14 15  2  0  0  0
 15 16  1  0  0  0
 16 17  1  0  0  0
 17 18  2  0  0  0
 18 19  1  0  0  0
 19 20  2  0  0  0
 20 21  1  0  0  0
 17 22  1  0  0  0
 22 23  1  0  0  0
 22 24  1  0  0  0
 24 25  2  0  0  0
 15 26  1  0  0  0
 26 27  1  0  0  0
 27 28  2  0  0  0
  8  9  1  0  0  0
 32 33  2  0  0  0
 33 34  1  0  0  0
 34 35  2  0  0  0
 35 36  1  0  0  0
 36 37  2  0  0  0
 37 32  1  0  0  0
  9  1  1  0  0  0
 27 13  1  0  0  0
 24 14  1  0  0  0
 21 16  2  0  0  0
  3 10  1  0  0  0
  5 11  1  0  0  0
  7 12  1  0  0  0
 26 29  1  0  0  0
M  END
> <minimizedAffinity>
-9.56937

> <CNNscore>
0.1573413163

> <CNNaffinity>
6.1037878990

> <CNN_VS>
0.9603780508

> <CNNaffinity_variance>
0.0987623781

$$$$
[H]O[C@@]1([H])[C@@]([H])(n2c(=O)n([H])c3c4c([H])c([H])c([H])c([H])c4n(C([H])([H])[H])c(=O)c32)C([H])([H])[C@]([H])(/C([H])=C(\[H])c2c([H])c([H])c([H])c([H])c2[H])[C@@]([H])(O[H])[C@@]1([H])O[H]


 37 41  0  0  0  0  0  0  0  0999 V2000
   40.2841   14.0541   -6.4830 C   0  0  0  0  0  0  0  0  0  0  0  0
   41.1479   13.0952   -5.6460 C   0  0  0  0  0  0  0  0  0  0  0  0
   40.3594   12.1072   -5.0552 O   0  0  0  0  0  0  0  0  0  0  0  0
   42.0393   12.4394   -6.6547 C   0  0  0  0  0  0  0  0  0  0  0  0
   41.2370   11.4722   -7.3075 O   0  0  0  0  0  0  0  0  0  0  0  0
   42.7142   13.3350   -7.6164 C   0  0  0  0  0  0  0  0  0  0  0  0
   42.3984   12.8896   -8.9071 O   0  0  0  0  0  0  0  0  0  0  0  0
   42.4578   14.8102   -7.4772 C   0  0  0  0  0  0  0  0  0  0  0  0
   41.1695   15.1817   -6.8339 C   0  0  0  0  0  0  0  0  0  0  0  0
   39.6412   11.8196   -5.6569 H   0  0  0  0  0  0  0  0  0  0  0  0
   41.0636   10.6956   -6.7416 H   0  0  0  0  0  0  0  0  0  0  0  0
   42.8133   11.9740   -8.9811 H   0  0  0  0  0  0  0  0  0  0  0  0
   42.6635   15.4008   -8.7973 N   0  0  0  0  0  0  0  0  0  0  0  0
   43.8119   15.8409   -9.3747 C   0  0  0  0  0  0  0  0  0  0  0  0
   43.4882   16.3244  -10.6520 C   0  0  0  0  0  0  0  0  0  0  0  0
   44.4864   16.8354  -11.4639 C   0  0  0  0  0  0  0  0  0  0  0  0
   45.7763   16.8490  -10.9786 C   0  0  0  0  0  0  0  0  0  0  0  0
   46.7804   17.3553  -11.7767 C   0  0  0  0  0  0  0  0  0  0  0  0
   46.4554   17.8297  -13.0326 C   0  0  0  0  0  0  0  0  0  0  0  0
   45.1641   17.8202  -13.5282 C   0  0  0  0  0  0  0  0  0  0  0  0
   44.1527   17.3067  -12.7159 C   0  0  0  0  0  0  0  0  0  0  0  0
   46.0577   16.3826   -9.7597 N   0  0  0  0  0  0  0  0  0  0  0  0
   47.4179   16.4131   -9.2865 C   0  0  0  0  0  0  0  0  0  0  0  0
   45.1171   15.8760   -8.9355 C   0  0  0  0  0  0  0  0  0  0  0  0
   45.4012   15.4452   -7.8021 O   0  0  0  0  0  0  0  0  0  0  0  0
   42.1715   16.1751  -10.8341 N   0  0  0  0  0  0  0  0  0  0  0  0
   41.6820   15.6222   -9.7228 C   0  0  0  0  0  0  0  0  0  0  0  0
   40.4667   15.3372   -9.5451 O   0  0  0  0  0  0  0  0  0  0  0  0
   41.6475   16.4439  -11.6846 H   0  0  0  0  0  0  0  0  0  0  0  0
   37.8611   14.1814   -6.1368 C   0  0  0  0  0  0  0  0  0  0  0  0
   39.0956   14.3623   -5.7162 C   0  0  0  0  0  0  0  0  0  0  0  0
   36.6769   14.5002   -5.3450 C   0  0  0  0  0  0  0  0  0  0  0  0
   36.6327   15.4726   -4.3760 C   0  0  0  0  0  0  0  0  0  0  0  0
   35.4636   15.7292   -3.6512 C   0  0  0  0  0  0  0  0  0  0  0  0
   34.3203   15.0214   -3.8800 C   0  0  0  0  0  0  0  0  0  0  0  0
   34.3425   14.0453   -4.8437 C   0  0  0  0  0  0  0  0  0  0  0  0
   35.4902   13.7900   -5.5586 C   0  0  0  0  0  0  0  0  0  0  0  0
 32 30  1  0  0  0
 30 31  2  0  0  0
 31  1  1  0  0  0
  1  2  1  0  0  0
  2  3  1  0  0  0
  2  4  1  0  0  0
  4  5  1  0  0  0
  4  6  1  0  0  0
  6  7  1  0  0  0
  6  8  1  0  0  0
  8 13  1  0  0  0
 13 14  1  0  0  0
 14 15  2  0  0  0
 15 16  1  0  0  0
 16 17  1  0  0  0
 17 18  2  0  0  0
 18 19  1  0  0  0
 19 20  2  0  0  0
 20 21  1  0  0  0
 17 22  1  0  0  0
 22 23  1  0  0  0
 22 24  1  0  0  0
 24 25  2  0  0  0
 15 26  1  0  0  0
 26 27  1  0  0  0
 27 28  2  0  0  0
  8  9  1  0  0  0
 32 33  2  0  0  0
 33 34  1  0  0  0
 34 35  2  0  0  0
 35 36  1  0  0  0
 36 37  2  0  0  0
 37 32  1  0  0  0
  9  1  1  0  0  0
 27 13  1  0  0  0
 24 14  1  0  0  0
 21 16  2  0  0  0
  3 10  1  0  0  0
  5 11  1  0  0  0
  7 12  1  0  0  0
 26 29  1  0  0  0
M  END
> <minimizedAffinity>
-6.78222

> <CNNscore>
0.1471818686

> <CNNaffinity>
5.0399971008

> <CNN_VS>
0.7417961955

> <CNNaffinity_variance>
0.1142684594

$$$$
[H]O[C@@]1([H])[C@@]([H])(n2c(=O)n([H])c3c4c([H])c([H])c([H])c([H])c4n(C([H])([H])[H])c(=O)c32)C([H])([H])[C@]([H])(/C([H])=C(\[H])c2c([H])c([H])c([H])c([H])c2[H])[C@@]([H])(O[H])[C@@]1([H])O[H]


 37 41  0  0  0  0  0  0  0  0999 V2000
   37.8244   14.8306   -7.0115 C   0  0  0  0  0  0  0  0  0  0  0  0
   38.4049   14.3354   -5.6758 C   0  0  0  0  0  0  0  0  0  0  0  0
   37.5152   13.4681   -5.0410 O   0  0  0  0  0  0  0  0  0  0  0  0
   39.6150   13.5504   -6.0777 C   0  0  0  0  0  0  0  0  0  0  0  0
   39.1283   12.3108   -6.5592 O   0  0  0  0  0  0  0  0  0  0  0  0
   40.5270   14.1967   -7.0436 C   0  0  0  0  0  0  0  0  0  0  0  0
   40.6853   13.3245   -8.1290 O   0  0  0  0  0  0  0  0  0  0  0  0
   40.1642   15.5792   -7.5111 C   0  0  0  0  0  0  0  0  0  0  0  0
   38.7176   15.9193   -7.4530 C   0  0  0  0  0  0  0  0  0  0  0  0
   37.0559   12.8941   -5.6892 H   0  0  0  0  0  0  0  0  0  0  0  0
   38.8149   11.7333   -5.8369 H   0  0  0  0  0  0  0  0  0  0  0  0
   41.1470   12.5118   -7.7516 H   0  0  0  0  0  0  0  0  0  0  0  0
   40.7704   15.7518   -8.8289 N   0  0  0  0  0  0  0  0  0  0  0  0
   42.0390   16.1147   -9.1526 C   0  0  0  0  0  0  0  0  0  0  0  0
   42.1301   16.1415  -10.5530 C   0  0  0  0  0  0  0  0  0  0  0  0
   43.3293   16.4825  -11.1548 C   0  0  0  0  0  0  0  0  0  0  0  0
   44.4010   16.7864  -10.3433 C   0  0  0  0  0  0  0  0  0  0  0  0
   45.6016   17.1279  -10.9293 C   0  0  0  0  0  0  0  0  0  0  0  0
   45.6847   17.1525  -12.3079 C   0  0  0  0  0  0  0  0  0  0  0  0
   44.6149   16.8492  -13.1305 C   0  0  0  0  0  0  0  0  0  0  0  0
   43.4029   16.5045  -12.5314 C   0  0  0  0  0  0  0  0  0  0  0  0
   44.2881   16.7532   -9.0134 N   0  0  0  0  0  0  0  0  0  0  0  0
   45.4303   17.0769   -8.1974 C   0  0  0  0  0  0  0  0  0  0  0  0
   43.1396   16.4263   -8.3850 C   0  0  0  0  0  0  0  0  0  0  0  0
   43.0558   16.4006   -7.1427 O   0  0  0  0  0  0  0  0  0  0  0  0
   40.9385   15.8001  -11.0559 N   0  0  0  0  0  0  0  0  0  0  0  0
   40.1283   15.5676  -10.0216 C   0  0  0  0  0  0  0  0  0  0  0  0
   38.9207   15.2204  -10.1271 O   0  0  0  0  0  0  0  0  0  0  0  0
   40.7067   15.7340  -12.0619 H   0  0  0  0  0  0  0  0  0  0  0  0
   35.4212   14.6537   -7.4598 C   0  0  0  0  0  0  0  0  0  0  0  0
   36.4335   15.1664   -6.7918 C   0  0  0  0  0  0  0  0  0  0  0  0
   34.0256   15.0082   -7.2206 C   0  0  0  0  0  0  0  0  0  0  0  0
   33.3610   16.0181   -7.8726 C   0  0  0  0  0  0  0  0  0  0  0  0
   32.0202   16.3077   -7.5964 C   0  0  0  0  0  0  0  0  0  0  0  0
   31.3202   15.5963   -6.6667 C   0  0  0  0  0  0  0  0  0  0  0  0
   31.9650   14.5830   -6.0037 C   0  0  0  0  0  0  0  0  0  0  0  0
   33.2835   14.2951   -6.2725 C   0  0  0  0  0  0  0  0  0  0  0  0
 32 30  1  0  0  0
 30 31  2  0  0  0
 31  1  1  0  0  0
  1  2  1  0  0  0
  2  3  1  0  0  0
  2  4  1  0  0  0
  4  5  1  0  0  0
  4  6  1  0  0  0
  6  7  1  0  0  0
  6  8  1  0  0  0
  8 13  1  0  0  0
 13 14  1  0  0  0
 14 15  2  0  0  0
 15 16  1  0  0  0
 16 17  1  0  0  0
 17 18  2  0  0  0
 18 19  1  0  0  0
 19 20  2  0  0  0
 20 21  1  0  0  0
 17 22  1  0  0  0
 22 23  1  0  0  0
 22 24  1  0  0  0
 24 25  2  0  0  0
 15 26  1  0  0  0
 26 27  1  0  0  0
 27 28  2  0  0  0
  8  9  1  0  0  0
 32 33  2  0  0  0
 33 34  1  0  0  0
 34 35  2  0  0  0
 35 36  1  0  0  0
 36 37  2  0  0  0
 37 32  1  0  0  0
  9  1  1  0  0  0
 27 13  1  0  0  0
 24 14  1  0  0  0
 21 16  2  0  0  0
  3 10  1  0  0  0
  5 11  1  0  0  0
  7 12  1  0  0  0
 26 29  1  0  0  0
M  END
> <minimizedAffinity>
-7.03718

> <CNNscore>
0.1370591372

> <CNNaffinity>
5.0279588699

> <CNN_VS>
0.6891276836

> <CNNaffinity_variance>
0.1733579040

$$$$
[H]O[C@@]1([H])[C@@]([H])(n2c(=O)n([H])c3c4c([H])c([H])c([H])c([H])c4n(C([H])([H])[H])c(=O)c32)C([H])([H])[C@]([H])(/C([H])=C(\[H])c2c([H])c([H])c([H])c([H])c2[H])[C@@]([H])(O[H])[C@@]1([H])O[H]


 37 41  0  0  0  0  0  0  0  0999 V2000
   33.9718   15.5088  -10.1435 C   0  0  0  0  0  0  0  0  0  0  0  0
   35.2138   16.1156   -9.4688 C   0  0  0  0  0  0  0  0  0  0  0  0
   35.0403   16.1875   -8.0862 O   0  0  0  0  0  0  0  0  0  0  0  0
   36.2989   15.1232   -9.7518 C   0  0  0  0  0  0  0  0  0  0  0  0
   36.0840   14.0500   -8.8533 O   0  0  0  0  0  0  0  0  0  0  0  0
   36.4154   14.6571  -11.1488 C   0  0  0  0  0  0  0  0  0  0  0  0
   36.3477   13.2574  -11.1377 O   0  0  0  0  0  0  0  0  0  0  0  0
   35.4522   15.2357  -12.1482 C   0  0  0  0  0  0  0  0  0  0  0  0
   34.1622   15.7231  -11.5913 C   0  0  0  0  0  0  0  0  0  0  0  0
   34.5560   15.4052   -7.7483 H   0  0  0  0  0  0  0  0  0  0  0  0
   36.3345   14.2808   -7.9382 H   0  0  0  0  0  0  0  0  0  0  0  0
   37.1666   12.9558  -10.6332 H   0  0  0  0  0  0  0  0  0  0  0  0
   35.3118   14.2511  -13.2181 N   0  0  0  0  0  0  0  0  0  0  0  0
   36.2627   13.7206  -14.0307 C   0  0  0  0  0  0  0  0  0  0  0  0
   35.6270   12.8180  -14.8974 C   0  0  0  0  0  0  0  0  0  0  0  0
   36.3745   12.1294  -15.8375 C   0  0  0  0  0  0  0  0  0  0  0  0
   37.7323   12.3610  -15.8854 C   0  0  0  0  0  0  0  0  0  0  0  0
   38.4890   11.6821  -16.8170 C   0  0  0  0  0  0  0  0  0  0  0  0
   37.8574   10.7952  -17.6670 C   0  0  0  0  0  0  0  0  0  0  0  0
   36.4956   10.5562  -17.6265 C   0  0  0  0  0  0  0  0  0  0  0  0
   35.7356   11.2463  -16.6818 C   0  0  0  0  0  0  0  0  0  0  0  0
   38.3127   13.2249  -15.0492 N   0  0  0  0  0  0  0  0  0  0  0  0
   39.7347   13.4409  -15.1288 C   0  0  0  0  0  0  0  0  0  0  0  0
   37.6234   13.9169  -14.1182 C   0  0  0  0  0  0  0  0  0  0  0  0
   38.1847   14.7177  -13.3470 O   0  0  0  0  0  0  0  0  0  0  0  0
   34.3212   12.8091  -14.6072 N   0  0  0  0  0  0  0  0  0  0  0  0
   34.1369   13.6673  -13.6022 C   0  0  0  0  0  0  0  0  0  0  0  0
   33.0202   13.9112  -13.0701 O   0  0  0  0  0  0  0  0  0  0  0  0
   33.6030   12.2371  -15.0837 H   0  0  0  0  0  0  0  0  0  0  0  0
   32.1820   15.6370   -8.4739 C   0  0  0  0  0  0  0  0  0  0  0  0
   32.8018   16.1071   -9.5362 C   0  0  0  0  0  0  0  0  0  0  0  0
   31.0026   16.2579   -7.8789 C   0  0  0  0  0  0  0  0  0  0  0  0
   29.8393   15.5882   -7.5876 C   0  0  0  0  0  0  0  0  0  0  0  0
   28.7426   16.2432   -7.0163 C   0  0  0  0  0  0  0  0  0  0  0  0
   28.7872   17.5753   -6.7263 C   0  0  0  0  0  0  0  0  0  0  0  0
   29.9397   18.2634   -7.0093 C   0  0  0  0  0  0  0  0  0  0  0  0
   31.0204   17.6229   -7.5710 C   0  0  0  0  0  0  0  0  0  0  0  0
 32 30  1  0  0  0
 30 31  2  0  0  0
 31  1  1  0  0  0
  1  2  1  0  0  0
  2  3  1  0  0  0
  2  4  1  0  0  0
  4  5  1  0  0  0
  4  6  1  0  0  0
  6  7  1  0  0  0
  6  8  1  0  0  0
  8 13  1  0  0  0
 13 14  1  0  0  0
 14 15  2  0  0  0
 15 16  1  0  0  0
 16 17  1  0  0  0
 17 18  2  0  0  0
 18 19  1  0  0  0
 19 20  2  0  0  0
 20 21  1  0  0  0
 17 22  1  0  0  0
 22 23  1  0  0  0
 22 24  1  0  0  0
 24 25  2  0  0  0
 15 26  1  0  0  0
 26 27  1  0  0  0
 27 28  2  0  0  0
  8  9  1  0  0  0
 32 33  2  0  0  0
 33 34  1  0  0  0
 34 35  2  0  0  0
 35 36  1  0  0  0
 36 37  2  0  0  0
 37 32  1  0  0  0
  9  1  1  0  0  0
 27 13  1  0  0  0
 24 14  1  0  0  0
 21 16  2  0  0  0
  3 10  1  0  0  0
  5 11  1  0  0  0
  7 12  1  0  0  0
 26 29  1  0  0  0
M  END
> <minimizedAffinity>
-10.22495

> <CNNscore>
0.1312567890

> <CNNaffinity>
5.8841552734

> <CNN_VS>
0.7723353505

> <CNNaffinity_variance>
0.1907676011

$$$$
[H]O[C@@]1([H])[C@@]([H])(n2c(=O)n([H])c3c4c([H])c([H])c([H])c([H])c4n(C([H])([H])[H])c(=O)c32)C([H])([H])[C@]([H])(/C([H])=C(\[H])c2c([H])c([H])c([H])c([H])c2[H])[C@@]([H])(O[H])[C@@]1([H])O[H]


 37 41  0  0  0  0  0  0  0  0999 V2000
   37.6487   15.4978  -10.3707 C   0  0  0  0  0  0  0  0  0  0  0  0
   36.3285   16.1777   -9.9693 C   0  0  0  0  0  0  0  0  0  0  0  0
   36.5709   17.4171   -9.3760 O   0  0  0  0  0  0  0  0  0  0  0  0
   35.6331   16.4133  -11.2744 C   0  0  0  0  0  0  0  0  0  0  0  0
   36.2715   17.5363  -11.8544 O   0  0  0  0  0  0  0  0  0  0  0  0
   35.5788   15.2684  -12.2064 C   0  0  0  0  0  0  0  0  0  0  0  0
   36.1246   15.6869  -13.4274 O   0  0  0  0  0  0  0  0  0  0  0  0
   36.2055   13.9802  -11.7488 C   0  0  0  0  0  0  0  0  0  0  0  0
   37.2872   14.1145  -10.7371 C   0  0  0  0  0  0  0  0  0  0  0  0
   37.3188   17.8782   -9.8103 H   0  0  0  0  0  0  0  0  0  0  0  0
   36.0268   18.3696  -11.4080 H   0  0  0  0  0  0  0  0  0  0  0  0
   35.5001   16.4019  -13.7663 H   0  0  0  0  0  0  0  0  0  0  0  0
   36.5947   13.2493  -12.9522 N   0  0  0  0  0  0  0  0  0  0  0  0
   37.7473   13.3202  -13.6680 C   0  0  0  0  0  0  0  0  0  0  0  0
   37.6385   12.4211  -14.7404 C   0  0  0  0  0  0  0  0  0  0  0  0
   38.6872   12.2922  -15.6349 C   0  0  0  0  0  0  0  0  0  0  0  0
   39.8120   13.0627  -15.4339 C   0  0  0  0  0  0  0  0  0  0  0  0
   40.8642   12.9446  -16.3174 C   0  0  0  0  0  0  0  0  0  0  0  0
   40.7509   12.0581  -17.3706 C   0  0  0  0  0  0  0  0  0  0  0  0
   39.6263   11.2807  -17.5806 C   0  0  0  0  0  0  0  0  0  0  0  0
   38.5652   11.4049  -16.6832 C   0  0  0  0  0  0  0  0  0  0  0  0
   39.8904   13.9105  -14.4055 N   0  0  0  0  0  0  0  0  0  0  0  0
   41.0824   14.6995  -14.2274 C   0  0  0  0  0  0  0  0  0  0  0  0
   38.8933   14.0680  -13.5101 C   0  0  0  0  0  0  0  0  0  0  0  0
   38.9872   14.8640  -12.5569 O   0  0  0  0  0  0  0  0  0  0  0  0
   36.4438   11.8241  -14.6656 N   0  0  0  0  0  0  0  0  0  0  0  0
   35.8228   12.3219  -13.5948 C   0  0  0  0  0  0  0  0  0  0  0  0
   34.6685   11.9814  -13.2187 O   0  0  0  0  0  0  0  0  0  0  0  0
   36.0851   11.1115  -15.3243 H   0  0  0  0  0  0  0  0  0  0  0  0
   38.7764   14.7970   -8.3105 C   0  0  0  0  0  0  0  0  0  0  0  0
   38.5837   15.6682   -9.2787 C   0  0  0  0  0  0  0  0  0  0  0  0
   39.7256   14.9910   -7.2186 C   0  0  0  0  0  0  0  0  0  0  0  0
   40.3856   13.9716   -6.5768 C   0  0  0  0  0  0  0  0  0  0  0  0
   41.2849   14.2252   -5.5351 C   0  0  0  0  0  0  0  0  0  0  0  0
   41.5409   15.4978   -5.1164 C   0  0  0  0  0  0  0  0  0  0  0  0
   40.8923   16.5310   -5.7439 C   0  0  0  0  0  0  0  0  0  0  0  0
   40.0073   16.2857   -6.7686 C   0  0  0  0  0  0  0  0  0  0  0  0
 32 30  1  0  0  0
 30 31  2  0  0  0
 31  1  1  0  0  0
  1  2  1  0  0  0
  2  3  1  0  0  0
  2  4  1  0  0  0
  4  5  1  0  0  0
  4  6  1  0  0  0
  6  7  1  0  0  0
  6  8  1  0  0  0
  8 13  1  0  0  0
 13 14  1  0  0  0
 14 15  2  0  0  0
 15 16  1  0  0  0
 16 17  1  0  0  0
 17 18  2  0  0  0
 18 19  1  0  0  0
 19 20  2  0  0  0
 20 21  1  0  0  0
 17 22  1  0  0  0
 22 23  1  0  0  0
 22 24  1  0  0  0
 24 25  2  0  0  0
 15 26  1  0  0  0
 26 27  1  0  0  0
 27 28  2  0  0  0
  8  9  1  0  0  0
 32 33  2  0  0  0
 33 34  1  0  0  0
 34 35  2  0  0  0
 35 36  1  0  0  0
 36 37  2  0  0  0
 37 32  1  0  0  0
  9  1  1  0  0  0
 27 13  1  0  0  0
 24 14  1  0  0  0
 21 16  2  0  0  0
  3 10  1  0  0  0
  5 11  1  0  0  0
  7 12  1  0  0  0
 26 29  1  0  0  0
M  END
> <minimizedAffinity>
-9.57549

> <CNNscore>
0.1226345301

> <CNNaffinity>
5.6561498642

> <CNN_VS>
0.6936392784

> <CNNaffinity_variance>
0.1912318617

$$$$
[H]O[C@@]1([H])[C@@]([H])(n2c(=O)n([H])c3c4c([H])c([H])c([H])c([H])c4n(C([H])([H])[H])c(=O)c32)C([H])([H])[C@]([H])(/C([H])=C(\[H])c2c([H])c([H])c([H])c([H])c2[H])[C@@]([H])(O[H])[C@@]1([H])O[H]


 37 41  0  0  0  0  0  0  0  0999 V2000
   36.7661   14.8074  -11.2365 C   0  0  0  0  0  0  0  0  0  0  0  0
   36.5196   16.2978  -11.5269 C   0  0  0  0  0  0  0  0  0  0  0  0
   35.2308   16.4987  -12.0222 O   0  0  0  0  0  0  0  0  0  0  0  0
   36.6083   16.9468  -10.1803 C   0  0  0  0  0  0  0  0  0  0  0  0
   35.3819   16.6608   -9.5327 O   0  0  0  0  0  0  0  0  0  0  0  0
   37.7706   16.5761   -9.3472 C   0  0  0  0  0  0  0  0  0  0  0  0
   37.2829   16.1137   -8.1174 O   0  0  0  0  0  0  0  0  0  0  0  0
   38.7558   15.6046   -9.9364 C   0  0  0  0  0  0  0  0  0  0  0  0
   38.2136   14.6883  -10.9747 C   0  0  0  0  0  0  0  0  0  0  0  0
   34.5848   15.9089  -11.5800 H   0  0  0  0  0  0  0  0  0  0  0  0
   34.6428   17.1847   -9.8970 H   0  0  0  0  0  0  0  0  0  0  0  0
   36.8304   16.9092   -7.6950 H   0  0  0  0  0  0  0  0  0  0  0  0
   39.4031   14.9278   -8.8153 N   0  0  0  0  0  0  0  0  0  0  0  0
   40.6924   15.0012   -8.3932 C   0  0  0  0  0  0  0  0  0  0  0  0
   40.8228   14.1624   -7.2753 C   0  0  0  0  0  0  0  0  0  0  0  0
   42.0487   14.0520   -6.6415 C   0  0  0  0  0  0  0  0  0  0  0  0
   43.1069   14.7804   -7.1405 C   0  0  0  0  0  0  0  0  0  0  0  0
   44.3337   14.6797   -6.5189 C   0  0  0  0  0  0  0  0  0  0  0  0
   44.4556   13.8526   -5.4194 C   0  0  0  0  0  0  0  0  0  0  0  0
   43.3995   13.1178   -4.9115 C   0  0  0  0  0  0  0  0  0  0  0  0
   42.1609   13.2239   -5.5448 C   0  0  0  0  0  0  0  0  0  0  0  0
   42.9563   15.5714   -8.2054 N   0  0  0  0  0  0  0  0  0  0  0  0
   44.0853   16.3178   -8.6985 C   0  0  0  0  0  0  0  0  0  0  0  0
   41.7808   15.7092   -8.8534 C   0  0  0  0  0  0  0  0  0  0  0  0
   41.6615   16.4534   -9.8448 O   0  0  0  0  0  0  0  0  0  0  0  0
   39.6336   13.5995   -7.0342 N   0  0  0  0  0  0  0  0  0  0  0  0
   38.7873   14.0601   -7.9571 C   0  0  0  0  0  0  0  0  0  0  0  0
   37.5704   13.7381   -8.0313 O   0  0  0  0  0  0  0  0  0  0  0  0
   39.4271   12.9336   -6.2699 H   0  0  0  0  0  0  0  0  0  0  0  0
   36.9517   13.3287  -13.1824 C   0  0  0  0  0  0  0  0  0  0  0  0
   36.2314   14.0464  -12.3459 C   0  0  0  0  0  0  0  0  0  0  0  0
   36.3898   12.5692  -14.2950 C   0  0  0  0  0  0  0  0  0  0  0  0
   37.1301   12.0472  -15.3276 C   0  0  0  0  0  0  0  0  0  0  0  0
   36.5292   11.3272  -16.3662 C   0  0  0  0  0  0  0  0  0  0  0  0
   35.1820   11.1157  -16.3927 C   0  0  0  0  0  0  0  0  0  0  0  0
   34.4238   11.6284  -15.3709 C   0  0  0  0  0  0  0  0  0  0  0  0
   35.0109   12.3371  -14.3478 C   0  0  0  0  0  0  0  0  0  0  0  0
 32 30  1  0  0  0
 30 31  2  0  0  0
 31  1  1  0  0  0
  1  2  1  0  0  0
  2  3  1  0  0  0
  2  4  1  0  0  0
  4  5  1  0  0  0
  4  6  1  0  0  0
  6  7  1  0  0  0
  6  8  1  0  0  0
  8 13  1  0  0  0
 13 14  1  0  0  0
 14 15  2  0  0  0
 15 16  1  0  0  0
 16 17  1  0  0  0
 17 18  2  0  0  0
 18 19  1  0  0  0
 19 20  2  0  0  0
 20 21  1  0  0  0
 17 22  1  0  0  0
 22 23  1  0  0  0
 22 24  1  0  0  0
 24 25  2  0  0  0
 15 26  1  0  0  0
 26 27  1  0  0  0
 27 28  2  0  0  0
  8  9  1  0  0  0
 32 33  2  0  0  0
 33 34  1  0  0  0
 34 35  2  0  0  0
 35 36  1  0  0  0
 36 37  2  0  0  0
 37 32  1  0  0  0
  9  1  1  0  0  0
 27 13  1  0  0  0
 24 14  1  0  0  0
 21 16  2  0  0  0
  3 10  1  0  0  0
  5 11  1  0  0  0
  7 12  1  0  0  0
 26 29  1  0  0  0
M  END
> <minimizedAffinity>
-7.70843

> <CNNscore>
0.1075820029

> <CNNaffinity>
5.4803667068

> <CNN_VS>
0.5895888209

> <CNNaffinity_variance>
0.1656823754

$$$$
[H]OC(=O)c1c(C2(N([H])C(=O)c3c([H])c([H])c(Br)c([H])c3O[H])C([H])([H])C([H])([H])N(C(=O)c3nc([H])c([H])c([H])c3C([H])([H])[H])C([H])([H])C2([H])[H])sc2c([H])c([H])c([H])c([H])c12


 41 45  0  0  0  0  0  0  0  0999 V2000
   37.1189   15.1673   -9.5817 C   0  0  0  0  0  0  0  0  0  0  0  0
   38.4026   14.5379   -9.0903 C   0  0  0  0  0  0  0  0  0  0  0  0
   39.6816   15.1814   -9.4943 C   0  0  0  0  0  0  0  0  0  0  0  0
   39.6636   15.8593  -10.7355 N   0  0  0  0  0  0  0  0  0  0  0  0
   40.8383   16.1944  -11.4990 C   0  0  0  0  0  0  0  0  0  0  0  0
   40.5819   16.7740  -12.6273 O   0  0  0  0  0  0  0  0  0  0  0  0
   38.3997   16.3167  -11.3161 C   0  0  0  0  0  0  0  0  0  0  0  0
   37.3538   16.5077  -10.1976 C   0  0  0  0  0  0  0  0  0  0  0  0
   35.9861   15.0978   -8.6434 C   0  0  0  0  0  0  0  0  0  0  0  0
   34.4269   15.8046   -9.0202 S   0  0  0  0  0  0  0  0  0  0  0  0
   33.5853   15.3971   -7.6308 C   0  0  0  0  0  0  0  0  0  0  0  0
   32.2578   15.6588   -7.2559 C   0  0  0  0  0  0  0  0  0  0  0  0
   31.7940   15.2164   -6.0418 C   0  0  0  0  0  0  0  0  0  0  0  0
   32.6775   14.5354   -5.2631 C   0  0  0  0  0  0  0  0  0  0  0  0
   33.9608   14.2875   -5.6366 C   0  0  0  0  0  0  0  0  0  0  0  0
   34.4896   14.7208   -6.8774 C   0  0  0  0  0  0  0  0  0  0  0  0
   35.7519   14.5690   -7.4228 C   0  0  0  0  0  0  0  0  0  0  0  0
   36.7747   13.7972   -6.6790 C   0  0  0  0  0  0  0  0  0  0  0  0
   36.9023   12.4369   -6.6517 O   0  0  0  0  0  0  0  0  0  0  0  0
   37.6569   14.3702   -5.9713 O   0  0  0  0  0  0  0  0  0  0  0  0
   36.6595   11.8968   -5.8254 H   0  0  0  0  0  0  0  0  0  0  0  0
   42.1915   15.9561  -11.1365 C   0  0  0  0  0  0  0  0  0  0  0  0
   42.7587   16.5256  -10.0741 N   0  0  0  0  0  0  0  0  0  0  0  0
   44.0097   16.3511   -9.6690 C   0  0  0  0  0  0  0  0  0  0  0  0
   44.8410   15.5175  -10.3722 C   0  0  0  0  0  0  0  0  0  0  0  0
   44.3219   14.8975  -11.4780 C   0  0  0  0  0  0  0  0  0  0  0  0
   43.0014   15.1035  -11.8759 C   0  0  0  0  0  0  0  0  0  0  0  0
   42.5177   14.3983  -13.0633 C   0  0  0  0  0  0  0  0  0  0  0  0
   35.9412   14.5888  -11.8069 C   0  0  0  0  0  0  0  0  0  0  0  0
   35.2685   15.6545  -11.8296 O   0  0  0  0  0  0  0  0  0  0  0  0
   36.8016   14.3416  -10.7863 N   0  0  0  0  0  0  0  0  0  0  0  0
   37.3549   13.4615  -10.7799 H   0  0  0  0  0  0  0  0  0  0  0  0
   34.4970   10.8820  -16.5174 Br  0  0  0  0  0  0  0  0  0  0  0  0
   35.0013   12.0150  -15.0754 C   0  0  0  0  0  0  0  0  0  0  0  0
   34.0070   12.5727  -14.3025 C   0  0  0  0  0  0  0  0  0  0  0  0
   34.3771   13.3757  -13.2832 C   0  0  0  0  0  0  0  0  0  0  0  0
   35.7094   13.6999  -12.9336 C   0  0  0  0  0  0  0  0  0  0  0  0
   36.6648   13.1245  -13.7272 C   0  0  0  0  0  0  0  0  0  0  0  0
   37.9977   13.3524  -13.5011 O   0  0  0  0  0  0  0  0  0  0  0  0
   36.3159   12.2864  -14.7924 C   0  0  0  0  0  0  0  0  0  0  0  0
   38.7772   13.0012  -13.9936 H   0  0  0  0  0  0  0  0  0  0  0  0
 33 34  1  0  0  0
 34 35  2  0  0  0
 35 36  1  0  0  0
 36 37  2  0  0  0
 37 29  1  0  0  0
 29 30  2  0  0  0
 29 31  1  0  0  0
 31  1  1  0  0  0
  1  2  1  0  0  0
  2  3  1  0  0  0
  3  4  1  0  0  0
  4  5  1  0  0  0
  5  6  2  0  0  0
  5 22  1  0  0  0
 22 23  2  0  0  0
 23 24  1  0  0  0
 24 25  2  0  0  0
 25 26  1  0  0  0
 26 27  2  0  0  0
 27 28  1  0  0  0
  4  7  1  0  0  0
  7  8  1  0  0  0
  1  9  1  0  0  0
  9 10  1  0  0  0
 10 11  1  0  0  0
 11 12  2  0  0  0
 12 13  1  0  0  0
 13 14  2  0  0  0
 14 15  1  0  0  0
 15 16  2  0  0  0
 16 17  1  0  0  0
 17 18  1  0  0  0
 18 19  1  0  0  0
 18 20  2  0  0  0
 37 38  1  0  0  0
 38 39  1  0  0  0
 38 40  2  0  0  0
 40 34  1  0  0  0
  8  1  1  0  0  0
 17  9  2  0  0  0
 27 22  1  0  0  0
 16 11  1  0  0  0
 31 32  1  0  0  0
 19 21  1  0  0  0
 39 41  1  0  0  0
M  END
> <minimizedAffinity>
-9.06394

> <CNNscore>
0.2103577852

> <CNNaffinity>
6.5748510361

> <CNN_VS>
1.3830710649

> <CNNaffinity_variance>
0.0550375767

$$$$
[H]OC(=O)c1c(C2(N([H])C(=O)c3c([H])c([H])c(Br)c([H])c3O[H])C([H])([H])C([H])([H])N(C(=O)c3nc([H])c([H])c([H])c3C([H])([H])[H])C([H])([H])C2([H])[H])sc2c([H])c([H])c([H])c([H])c12


 41 45  0  0  0  0  0  0  0  0999 V2000
   42.2941   15.0768   -8.4838 C   0  0  0  0  0  0  0  0  0  0  0  0
   41.5602   16.3813   -8.2718 C   0  0  0  0  0  0  0  0  0  0  0  0
   40.2554   16.3274   -7.5592 C   0  0  0  0  0  0  0  0  0  0  0  0
   39.5225   15.1270   -7.7085 N   0  0  0  0  0  0  0  0  0  0  0  0
   38.1089   14.9983   -7.4626 C   0  0  0  0  0  0  0  0  0  0  0  0
   37.6399   13.8175   -7.7079 O   0  0  0  0  0  0  0  0  0  0  0  0
   40.1965   13.8859   -8.0946 C   0  0  0  0  0  0  0  0  0  0  0  0
   41.6864   13.9600   -7.6997 C   0  0  0  0  0  0  0  0  0  0  0  0
   43.7625   15.1642   -8.4164 C   0  0  0  0  0  0  0  0  0  0  0  0
   44.5815   16.6404   -7.9441 S   0  0  0  0  0  0  0  0  0  0  0  0
   46.1727   16.1260   -8.0358 C   0  0  0  0  0  0  0  0  0  0  0  0
   47.3716   16.8135   -7.7883 C   0  0  0  0  0  0  0  0  0  0  0  0
   48.5718   16.1641   -7.9393 C   0  0  0  0  0  0  0  0  0  0  0  0
   48.5155   14.8621   -8.3295 C   0  0  0  0  0  0  0  0  0  0  0  0
   47.3486   14.2064   -8.5662 C   0  0  0  0  0  0  0  0  0  0  0  0
   46.0837   14.8287   -8.4251 C   0  0  0  0  0  0  0  0  0  0  0  0
   44.8071   14.3330   -8.6218 C   0  0  0  0  0  0  0  0  0  0  0  0
   44.6318   12.9106   -8.9974 C   0  0  0  0  0  0  0  0  0  0  0  0
   44.1077   12.4403  -10.1685 O   0  0  0  0  0  0  0  0  0  0  0  0
   44.9714   11.9695   -8.2185 O   0  0  0  0  0  0  0  0  0  0  0  0
   43.1861   12.0128  -10.2046 H   0  0  0  0  0  0  0  0  0  0  0  0
   37.2262   16.0087   -6.9942 C   0  0  0  0  0  0  0  0  0  0  0  0
   36.5303   16.7896   -7.8193 N   0  0  0  0  0  0  0  0  0  0  0  0
   35.6861   17.7481   -7.4613 C   0  0  0  0  0  0  0  0  0  0  0  0
   35.4717   18.0019   -6.1308 C   0  0  0  0  0  0  0  0  0  0  0  0
   36.1561   17.2345   -5.2256 C   0  0  0  0  0  0  0  0  0  0  0  0
   37.0365   16.2344   -5.6368 C   0  0  0  0  0  0  0  0  0  0  0  0
   37.7238   15.4512   -4.6095 C   0  0  0  0  0  0  0  0  0  0  0  0
   42.1603   15.3377  -11.0503 C   0  0  0  0  0  0  0  0  0  0  0  0
   42.8474   16.3943  -11.0669 O   0  0  0  0  0  0  0  0  0  0  0  0
   41.8940   14.7103   -9.8763 N   0  0  0  0  0  0  0  0  0  0  0  0
   41.3302   13.8368   -9.8747 H   0  0  0  0  0  0  0  0  0  0  0  0
   40.6361   13.1624  -16.6145 Br  0  0  0  0  0  0  0  0  0  0  0  0
   41.0552   13.8662  -14.8980 C   0  0  0  0  0  0  0  0  0  0  0  0
   42.2550   13.5135  -14.3209 C   0  0  0  0  0  0  0  0  0  0  0  0
   42.5405   14.0180  -13.1024 C   0  0  0  0  0  0  0  0  0  0  0  0
   41.7087   14.8862  -12.3563 C   0  0  0  0  0  0  0  0  0  0  0  0
   40.5274   15.2107  -12.9667 C   0  0  0  0  0  0  0  0  0  0  0  0
   39.6260   16.0444  -12.3565 O   0  0  0  0  0  0  0  0  0  0  0  0
   40.1998   14.7055  -14.2301 C   0  0  0  0  0  0  0  0  0  0  0  0
   38.7491   16.3541  -12.6860 H   0  0  0  0  0  0  0  0  0  0  0  0
 33 34  1  0  0  0
 34 35  2  0  0  0
 35 36  1  0  0  0
 36 37  2  0  0  0
 37 29  1  0  0  0
 29 30  2  0  0  0
 29 31  1  0  0  0
 31  1  1  0  0  0
  1  2  1  0  0  0
  2  3  1  0  0  0
  3  4  1  0  0  0
  4  5  1  0  0  0
  5  6  2  0  0  0
  5 22  1  0  0  0
 22 23  2  0  0  0
 23 24  1  0  0  0
 24 25  2  0  0  0
 25 26  1  0  0  0
 26 27  2  0  0  0
 27 28  1  0  0  0
  4  7  1  0  0  0
  7  8  1  0  0  0
  1  9  1  0  0  0
  9 10  1  0  0  0
 10 11  1  0  0  0
 11 12  2  0  0  0
 12 13  1  0  0  0
 13 14  2  0  0  0
 14 15  1  0  0  0
 15 16  2  0  0  0
 16 17  1  0  0  0
 17 18  1  0  0  0
 18 19  1  0  0  0
 18 20  2  0  0  0
 37 38  1  0  0  0
 38 39  1  0  0  0
 38 40  2  0  0  0
 40 34  1  0  0  0
  8  1  1  0  0  0
 17  9  2  0  0  0
 27 22  1  0  0  0
 16 11  1  0  0  0
 31 32  1  0  0  0
 19 21  1  0  0  0
 39 41  1  0  0  0
M  END
> <minimizedAffinity>
-5.74946

> <CNNscore>
0.1718426794

> <CNNaffinity>
5.9507474899

> <CNN_VS>
1.0225924253

> <CNNaffinity_variance>
0.4403765202

$$$$
[H]OC(=O)c1c(C2(N([H])C(=O)c3c([H])c([H])c(Br)c([H])c3O[H])C([H])([H])C([H])([H])N(C(=O)c3nc([H])c([H])c([H])c3C([H])([H])[H])C([H])([H])C2([H])[H])sc2c([H])c([H])c([H])c([H])c12


 41 45  0  0  0  0  0  0  0  0999 V2000
   37.9075   15.4805  -10.1375 C   0  0  0  0  0  0  0  0  0  0  0  0
   38.8418   14.6680   -9.2701 C   0  0  0  0  0  0  0  0  0  0  0  0
   40.2374   15.1597   -9.1157 C   0  0  0  0  0  0  0  0  0  0  0  0
   40.7554   15.8929  -10.2087 N   0  0  0  0  0  0  0  0  0  0  0  0
   42.1582   16.1098  -10.4539 C   0  0  0  0  0  0  0  0  0  0  0  0
   42.4042   16.7709  -11.5388 O   0  0  0  0  0  0  0  0  0  0  0  0
   39.8552   16.5367  -11.1673 C   0  0  0  0  0  0  0  0  0  0  0  0
   38.4915   16.8074  -10.4976 C   0  0  0  0  0  0  0  0  0  0  0  0
   36.5048   15.5130   -9.6906 C   0  0  0  0  0  0  0  0  0  0  0  0
   35.2115   16.0629  -10.7384 S   0  0  0  0  0  0  0  0  0  0  0  0
   33.9044   15.8547   -9.7123 C   0  0  0  0  0  0  0  0  0  0  0  0
   32.5375   16.1069   -9.9099 C   0  0  0  0  0  0  0  0  0  0  0  0
   31.6457   15.8542   -8.8970 C   0  0  0  0  0  0  0  0  0  0  0  0
   32.1624   15.3629   -7.7385 C   0  0  0  0  0  0  0  0  0  0  0  0
   33.4880   15.1224   -7.5583 C   0  0  0  0  0  0  0  0  0  0  0  0
   34.4499   15.3649   -8.5699 C   0  0  0  0  0  0  0  0  0  0  0  0
   35.8221   15.1884   -8.5712 C   0  0  0  0  0  0  0  0  0  0  0  0
   36.4796   14.6091   -7.3766 C   0  0  0  0  0  0  0  0  0  0  0  0
   36.6035   13.2799   -7.0844 O   0  0  0  0  0  0  0  0  0  0  0  0
   37.0047   15.3413   -6.4847 O   0  0  0  0  0  0  0  0  0  0  0  0
   36.0621   12.8464   -6.3411 H   0  0  0  0  0  0  0  0  0  0  0  0
   43.2448   15.6819   -9.6442 C   0  0  0  0  0  0  0  0  0  0  0  0
   43.6448   16.3576   -8.5680 N   0  0  0  0  0  0  0  0  0  0  0  0
   44.6435   16.0223   -7.7619 C   0  0  0  0  0  0  0  0  0  0  0  0
   45.3656   14.8838   -8.0127 C   0  0  0  0  0  0  0  0  0  0  0  0
   45.0074   14.1395   -9.1056 C   0  0  0  0  0  0  0  0  0  0  0  0
   43.9515   14.5212   -9.9324 C   0  0  0  0  0  0  0  0  0  0  0  0
   43.6239   13.6688  -11.0758 C   0  0  0  0  0  0  0  0  0  0  0  0
   37.2106   13.7551  -11.9292 C   0  0  0  0  0  0  0  0  0  0  0  0
   36.2574   13.2968  -11.2434 O   0  0  0  0  0  0  0  0  0  0  0  0
   37.9828   14.7613  -11.4453 N   0  0  0  0  0  0  0  0  0  0  0  0
   38.7635   15.1349  -12.0214 H   0  0  0  0  0  0  0  0  0  0  0  0
   38.4014   11.1855  -17.4059 Br  0  0  0  0  0  0  0  0  0  0  0  0
   37.9756   11.9631  -15.7233 C   0  0  0  0  0  0  0  0  0  0  0  0
   38.9779   12.5965  -15.0224 C   0  0  0  0  0  0  0  0  0  0  0  0
   38.6640   13.1431  -13.8293 C   0  0  0  0  0  0  0  0  0  0  0  0
   37.3836   13.1236  -13.2272 C   0  0  0  0  0  0  0  0  0  0  0  0
   36.4181   12.4847  -13.9573 C   0  0  0  0  0  0  0  0  0  0  0  0
   35.1314   12.3916  -13.4932 O   0  0  0  0  0  0  0  0  0  0  0  0
   36.7093   11.9071  -15.1985 C   0  0  0  0  0  0  0  0  0  0  0  0
   34.3504   11.9637  -13.9180 H   0  0  0  0  0  0  0  0  0  0  0  0
 33 34  1  0  0  0
 34 35  2  0  0  0
 35 36  1  0  0  0
 36 37  2  0  0  0
 37 29  1  0  0  0
 29 30  2  0  0  0
 29 31  1  0  0  0
 31  1  1  0  0  0
  1  2  1  0  0  0
  2  3  1  0  0  0
  3  4  1  0  0  0
  4  5  1  0  0  0
  5  6  2  0  0  0
  5 22  1  0  0  0
 22 23  2  0  0  0
 23 24  1  0  0  0
 24 25  2  0  0  0
 25 26  1  0  0  0
 26 27  2  0  0  0
 27 28  1  0  0  0
  4  7  1  0  0  0
  7  8  1  0  0  0
  1  9  1  0  0  0
  9 10  1  0  0  0
 10 11  1  0  0  0
 11 12  2  0  0  0
 12 13  1  0  0  0
 13 14  2  0  0  0
 14 15  1  0  0  0
 15 16  2  0  0  0
 16 17  1  0  0  0
 17 18  1  0  0  0
 18 19  1  0  0  0
 18 20  2  0  0  0
 37 38  1  0  0  0
 38 39  1  0  0  0
 38 40  2  0  0  0
 40 34  1  0  0  0
  8  1  1  0  0  0
 17  9  2  0  0  0
 27 22  1  0  0  0
 16 11  1  0  0  0
 31 32  1  0  0  0
 19 21  1  0  0  0
 39 41  1  0  0  0
M  END
> <minimizedAffinity>
-7.83583

> <CNNscore>
0.1561211944

> <CNNaffinity>
6.3560609818

> <CNN_VS>
0.9923158288

> <CNNaffinity_variance>
0.1379259825

$$$$
[H]OC(=O)c1c(C2(N([H])C(=O)c3c([H])c([H])c(Br)c([H])c3O[H])C([H])([H])C([H])([H])N(C(=O)c3nc([H])c([H])c([H])c3C([H])([H])[H])C([H])([H])C2([H])[H])sc2c([H])c([H])c([H])c([H])c12


 41 45  0  0  0  0  0  0  0  0999 V2000
   43.4934   14.8844  -11.7909 C   0  0  0  0  0  0  0  0  0  0  0  0
   43.3390   13.5836  -12.5455 C   0  0  0  0  0  0  0  0  0  0  0  0
   42.4324   13.5773  -13.7250 C   0  0  0  0  0  0  0  0  0  0  0  0
   41.3547   14.4920  -13.6769 N   0  0  0  0  0  0  0  0  0  0  0  0
   40.1614   14.3894  -14.4773 C   0  0  0  0  0  0  0  0  0  0  0  0
   39.2871   15.3121  -14.2349 O   0  0  0  0  0  0  0  0  0  0  0  0
   41.4141   15.6680  -12.8068 C   0  0  0  0  0  0  0  0  0  0  0  0
   42.8872   16.0335  -12.5281 C   0  0  0  0  0  0  0  0  0  0  0  0
   44.8343   15.1328  -11.2352 C   0  0  0  0  0  0  0  0  0  0  0  0
   45.5699   14.0477  -10.0714 S   0  0  0  0  0  0  0  0  0  0  0  0
   47.0367   14.8237   -9.8450 C   0  0  0  0  0  0  0  0  0  0  0  0
   48.1282   14.4948   -9.0254 C   0  0  0  0  0  0  0  0  0  0  0  0
   49.2359   15.3058   -9.0098 C   0  0  0  0  0  0  0  0  0  0  0  0
   49.1989   16.4037   -9.8122 C   0  0  0  0  0  0  0  0  0  0  0  0
   48.1364   16.7122  -10.6020 C   0  0  0  0  0  0  0  0  0  0  0  0
   46.9699   15.9101  -10.6560 C   0  0  0  0  0  0  0  0  0  0  0  0
   45.8036   16.0615  -11.3846 C   0  0  0  0  0  0  0  0  0  0  0  0
   45.6813   17.1962  -12.3293 C   0  0  0  0  0  0  0  0  0  0  0  0
   45.9196   17.1600  -13.6745 O   0  0  0  0  0  0  0  0  0  0  0  0
   45.3287   18.3506  -11.9414 O   0  0  0  0  0  0  0  0  0  0  0  0
   46.7409   17.6005  -14.0807 H   0  0  0  0  0  0  0  0  0  0  0  0
   39.8751   13.4088  -15.4653 C   0  0  0  0  0  0  0  0  0  0  0  0
   40.5068   13.3684  -16.6375 N   0  0  0  0  0  0  0  0  0  0  0  0
   40.3004   12.4858  -17.6060 C   0  0  0  0  0  0  0  0  0  0  0  0
   39.3607   11.5012  -17.4383 C   0  0  0  0  0  0  0  0  0  0  0  0
   38.6725   11.4834  -16.2540 C   0  0  0  0  0  0  0  0  0  0  0  0
   38.9148   12.4270  -15.2564 C   0  0  0  0  0  0  0  0  0  0  0  0
   38.1449   12.3365  -14.0154 C   0  0  0  0  0  0  0  0  0  0  0  0
   42.3197   15.4929   -9.5715 C   0  0  0  0  0  0  0  0  0  0  0  0
   42.9967   16.5420   -9.3992 O   0  0  0  0  0  0  0  0  0  0  0  0
   42.5261   14.7145  -10.6644 N   0  0  0  0  0  0  0  0  0  0  0  0
   41.9588   13.8537  -10.7990 H   0  0  0  0  0  0  0  0  0  0  0  0
   38.5292   14.3890   -4.8357 Br  0  0  0  0  0  0  0  0  0  0  0  0
   39.6516   14.7223   -6.3345 C   0  0  0  0  0  0  0  0  0  0  0  0
   40.9970   14.9178   -6.1141 C   0  0  0  0  0  0  0  0  0  0  0  0
   41.7830   15.1548   -7.1851 C   0  0  0  0  0  0  0  0  0  0  0  0
   41.3439   15.2213   -8.5287 C   0  0  0  0  0  0  0  0  0  0  0  0
   40.0010   15.0213   -8.7019 C   0  0  0  0  0  0  0  0  0  0  0  0
   39.4398   15.0578   -9.9523 O   0  0  0  0  0  0  0  0  0  0  0  0
   39.1573   14.7728   -7.6132 C   0  0  0  0  0  0  0  0  0  0  0  0
   38.4961   14.9299  -10.2104 H   0  0  0  0  0  0  0  0  0  0  0  0
 33 34  1  0  0  0
 34 35  2  0  0  0
 35 36  1  0  0  0
 36 37  2  0  0  0
 37 29  1  0  0  0
 29 30  2  0  0  0
 29 31  1  0  0  0
 31  1  1  0  0  0
  1  2  1  0  0  0
  2  3  1  0  0  0
  3  4  1  0  0  0
  4  5  1  0  0  0
  5  6  2  0  0  0
  5 22  1  0  0  0
 22 23  2  0  0  0
 23 24  1  0  0  0
 24 25  2  0  0  0
 25 26  1  0  0  0
 26 27  2  0  0  0
 27 28  1  0  0  0
  4  7  1  0  0  0
  7  8  1  0  0  0
  1  9  1  0  0  0
  9 10  1  0  0  0
 10 11  1  0  0  0
 11 12  2  0  0  0
 12 13  1  0  0  0
 13 14  2  0  0  0
 14 15  1  0  0  0
 15 16  2  0  0  0
 16 17  1  0  0  0
 17 18  1  0  0  0
 18 19  1  0  0  0
 18 20  2  0  0  0
 37 38  1  0  0  0
 38 39  1  0  0  0
 38 40  2  0  0  0
 40 34  1  0  0  0
  8  1  1  0  0  0
 17  9  2  0  0  0
 27 22  1  0  0  0
 16 11  1  0  0  0
 31 32  1  0  0  0
 19 21  1  0  0  0
 39 41  1  0  0  0
M  END
> <minimizedAffinity>
-8.21230

> <CNNscore>
0.1322806776

> <CNNaffinity>
5.7251081467

> <CNN_VS>
0.7573211789

> <CNNaffinity_variance>
0.2442087382

$$$$
[H]OC(=O)c1c(C2(N([H])C(=O)c3c([H])c([H])c(Br)c([H])c3O[H])C([H])([H])C([H])([H])N(C(=O)c3nc([H])c([H])c([H])c3C([H])([H])[H])C([H])([H])C2([H])[H])sc2c([H])c([H])c([H])c([H])c12


 41 45  0  0  0  0  0  0  0  0999 V2000
   40.7251   15.6478   -7.6177 C   0  0  0  0  0  0  0  0  0  0  0  0
   39.4032   15.1441   -8.1508 C   0  0  0  0  0  0  0  0  0  0  0  0
   38.1710   15.5406   -7.4176 C   0  0  0  0  0  0  0  0  0  0  0  0
   38.3271   15.7665   -6.0301 N   0  0  0  0  0  0  0  0  0  0  0  0
   37.2478   15.7593   -5.0760 C   0  0  0  0  0  0  0  0  0  0  0  0
   37.6285   15.9441   -3.8531 O   0  0  0  0  0  0  0  0  0  0  0  0
   39.6434   16.0775   -5.4695 C   0  0  0  0  0  0  0  0  0  0  0  0
   40.5419   16.6907   -6.5641 C   0  0  0  0  0  0  0  0  0  0  0  0
   41.7367   15.9609   -8.6411 C   0  0  0  0  0  0  0  0  0  0  0  0
   41.3942   15.8220  -10.3546 S   0  0  0  0  0  0  0  0  0  0  0  0
   42.8677   16.3128  -10.9811 C   0  0  0  0  0  0  0  0  0  0  0  0
   43.3001   16.4372  -12.3111 C   0  0  0  0  0  0  0  0  0  0  0  0
   44.5787   16.8629  -12.5738 C   0  0  0  0  0  0  0  0  0  0  0  0
   45.3612   17.1429  -11.4968 C   0  0  0  0  0  0  0  0  0  0  0  0
   44.9319   17.0189  -10.2131 C   0  0  0  0  0  0  0  0  0  0  0  0
   43.6234   16.5846   -9.8867 C   0  0  0  0  0  0  0  0  0  0  0  0
   43.0153   16.3959   -8.6585 C   0  0  0  0  0  0  0  0  0  0  0  0
   43.7630   16.7221   -7.4218 C   0  0  0  0  0  0  0  0  0  0  0  0
   44.0546   17.9738   -6.9574 O   0  0  0  0  0  0  0  0  0  0  0  0
   44.2157   15.8162   -6.6588 O   0  0  0  0  0  0  0  0  0  0  0  0
   44.9994   18.3475   -6.9939 H   0  0  0  0  0  0  0  0  0  0  0  0
   35.8652   15.5766   -5.3491 C   0  0  0  0  0  0  0  0  0  0  0  0
   35.0332   16.5987   -5.5441 N   0  0  0  0  0  0  0  0  0  0  0  0
   33.7360   16.5106   -5.8070 C   0  0  0  0  0  0  0  0  0  0  0  0
   33.1438   15.2771   -5.8977 C   0  0  0  0  0  0  0  0  0  0  0  0
   33.9424   14.1803   -5.7079 C   0  0  0  0  0  0  0  0  0  0  0  0
   35.3034   14.3090   -5.4331 C   0  0  0  0  0  0  0  0  0  0  0  0
   36.0918   13.0897   -5.2516 C   0  0  0  0  0  0  0  0  0  0  0  0
   41.8242   13.3480   -7.1982 C   0  0  0  0  0  0  0  0  0  0  0  0
   42.0861   13.1527   -8.4156 O   0  0  0  0  0  0  0  0  0  0  0  0
   41.2017   14.4883   -6.8042 N   0  0  0  0  0  0  0  0  0  0  0  0
   40.9946   14.6412   -5.7970 H   0  0  0  0  0  0  0  0  0  0  0  0
   43.9971    8.7943   -3.6547 Br  0  0  0  0  0  0  0  0  0  0  0  0
   43.2751   10.1976   -4.7161 C   0  0  0  0  0  0  0  0  0  0  0  0
   44.0262   10.6770   -5.7663 C   0  0  0  0  0  0  0  0  0  0  0  0
   43.5039   11.6735   -6.5112 C   0  0  0  0  0  0  0  0  0  0  0  0
   42.2402   12.2767   -6.3078 C   0  0  0  0  0  0  0  0  0  0  0  0
   41.5278   11.7702   -5.2545 C   0  0  0  0  0  0  0  0  0  0  0  0
   40.2861   12.2617   -4.9437 O   0  0  0  0  0  0  0  0  0  0  0  0
   42.0394   10.7366   -4.4617 C   0  0  0  0  0  0  0  0  0  0  0  0
   39.6758   11.9862   -4.2191 H   0  0  0  0  0  0  0  0  0  0  0  0
 33 34  1  0  0  0
 34 35  2  0  0  0
 35 36  1  0  0  0
 36 37  2  0  0  0
 37 29  1  0  0  0
 29 30  2  0  0  0
 29 31  1  0  0  0
 31  1  1  0  0  0
  1  2  1  0  0  0
  2  3  1  0  0  0
  3  4  1  0  0  0
  4  5  1  0  0  0
  5  6  2  0  0  0
  5 22  1  0  0  0
 22 23  2  0  0  0
 23 24  1  0  0  0
 24 25  2  0  0  0
 25 26  1  0  0  0
 26 27  2  0  0  0
 27 28  1  0  0  0
  4  7  1  0  0  0
  7  8  1  0  0  0
  1  9  1  0  0  0
  9 10  1  0  0  0
 10 11  1  0  0  0
 11 12  2  0  0  0
 12 13  1  0  0  0
 13 14  2  0  0  0
 14 15  1  0  0  0
 15 16  2  0  0  0
 16 17  1  0  0  0
 17 18  1  0  0  0
 18 19  1  0  0  0
 18 20  2  0  0  0
 37 38  1  0  0  0
 38 39  1  0  0  0
 38 40  2  0  0  0
 40 34  1  0  0  0
  8  1  1  0  0  0
 17  9  2  0  0  0
 27 22  1  0  0  0
 16 11  1  0  0  0
 31 32  1  0  0  0
 19 21  1  0  0  0
 39 41  1  0  0  0
M  END
> <minimizedAffinity>
-7.15633

> <CNNscore>
0.1228279620

> <CNNaffinity>
5.4132966995

> <CNN_VS>
0.6649041772

> <CNNaffinity_variance>
0.2418750823

$$$$
[H]OC(=O)c1c(C2(N([H])C(=O)c3c([H])c([H])c(Br)c([H])c3O[H])C([H])([H])C([H])([H])N(C(=O)c3nc([H])c([H])c([H])c3C([H])([H])[H])C([H])([H])C2([H])[H])sc2c([H])c([H])c([H])c([H])c12


 41 45  0  0  0  0  0  0  0  0999 V2000
   37.7467   15.5082  -10.3618 C   0  0  0  0  0  0  0  0  0  0  0  0
   38.2884   14.4604   -9.4163 C   0  0  0  0  0  0  0  0  0  0  0  0
   39.5442   14.7788   -8.6849 C   0  0  0  0  0  0  0  0  0  0  0  0
   40.4363   15.6540   -9.3471 N   0  0  0  0  0  0  0  0  0  0  0  0
   41.8373   15.7793   -9.0361 C   0  0  0  0  0  0  0  0  0  0  0  0
   42.4715   16.6084   -9.8010 O   0  0  0  0  0  0  0  0  0  0  0  0
   39.9558   16.5511  -10.3997 C   0  0  0  0  0  0  0  0  0  0  0  0
   38.4482   16.8177  -10.2061 C   0  0  0  0  0  0  0  0  0  0  0  0
   36.2781   15.5882  -10.4357 C   0  0  0  0  0  0  0  0  0  0  0  0
   35.4123   15.3488  -11.9410 S   0  0  0  0  0  0  0  0  0  0  0  0
   33.8389   15.5361  -11.3984 C   0  0  0  0  0  0  0  0  0  0  0  0
   32.6193   15.4740  -12.0911 C   0  0  0  0  0  0  0  0  0  0  0  0
   31.4413   15.6696  -11.4134 C   0  0  0  0  0  0  0  0  0  0  0  0
   31.5395   15.9171  -10.0793 C   0  0  0  0  0  0  0  0  0  0  0  0
   32.7261   15.9747   -9.4189 C   0  0  0  0  0  0  0  0  0  0  0  0
   33.9695   15.7802  -10.0695 C   0  0  0  0  0  0  0  0  0  0  0  0
   35.2609   15.8043   -9.5737 C   0  0  0  0  0  0  0  0  0  0  0  0
   35.4766   16.0138   -8.1230 C   0  0  0  0  0  0  0  0  0  0  0  0
   35.5008   15.0453   -7.1592 O   0  0  0  0  0  0  0  0  0  0  0  0
   35.6637   17.1701   -7.6377 O   0  0  0  0  0  0  0  0  0  0  0  0
   34.7414   14.9410   -6.4914 H   0  0  0  0  0  0  0  0  0  0  0  0
   42.5498   15.1038   -8.0088 C   0  0  0  0  0  0  0  0  0  0  0  0
   43.2196   13.9730   -8.2271 N   0  0  0  0  0  0  0  0  0  0  0  0
   43.9098   13.2876   -7.3252 C   0  0  0  0  0  0  0  0  0  0  0  0
   43.9737   13.7394   -6.0320 C   0  0  0  0  0  0  0  0  0  0  0  0
   43.3067   14.8990   -5.7370 C   0  0  0  0  0  0  0  0  0  0  0  0
   42.5902   15.5949   -6.7100 C   0  0  0  0  0  0  0  0  0  0  0  0
   41.9113   16.8308   -6.3190 C   0  0  0  0  0  0  0  0  0  0  0  0
   38.0032   13.9132  -12.3775 C   0  0  0  0  0  0  0  0  0  0  0  0
   37.1916   13.0637  -11.9209 O   0  0  0  0  0  0  0  0  0  0  0  0
   38.2738   15.0472  -11.6820 N   0  0  0  0  0  0  0  0  0  0  0  0
   38.9413   15.7433  -12.0702 H   0  0  0  0  0  0  0  0  0  0  0  0
   40.1780   12.0794  -17.8476 Br  0  0  0  0  0  0  0  0  0  0  0  0
   39.5473   12.6906  -16.1607 C   0  0  0  0  0  0  0  0  0  0  0  0
   38.5679   11.9606  -15.5243 C   0  0  0  0  0  0  0  0  0  0  0  0
   38.1276   12.4049  -14.3287 C   0  0  0  0  0  0  0  0  0  0  0  0
   38.5867   13.5661  -13.6630 C   0  0  0  0  0  0  0  0  0  0  0  0
   39.5592   14.2608  -14.3302 C   0  0  0  0  0  0  0  0  0  0  0  0
   40.0954   15.4058  -13.7998 O   0  0  0  0  0  0  0  0  0  0  0  0
   40.0389   13.8279  -15.5717 C   0  0  0  0  0  0  0  0  0  0  0  0
   40.7948   15.9921  -14.1747 H   0  0  0  0  0  0  0  0  0  0  0  0
 33 34  1  0  0  0
 34 35  2  0  0  0
 35 36  1  0  0  0
 36 37  2  0  0  0
 37 29  1  0  0  0
 29 30  2  0  0  0
 29 31  1  0  0  0
 31  1  1  0  0  0
  1  2  1  0  0  0
  2  3  1  0  0  0
  3  4  1  0  0  0
  4  5  1  0  0  0
  5  6  2  0  0  0
  5 22  1  0  0  0
 22 23  2  0  0  0
 23 24  1  0  0  0
 24 25  2  0  0  0
 25 26  1  0  0  0
 26 27  2  0  0  0
 27 28  1  0  0  0
  4  7  1  0  0  0
  7  8  1  0  0  0
  1  9  1  0  0  0
  9 10  1  0  0  0
 10 11  1  0  0  0
 11 12  2  0  0  0
 12 13  1  0  0  0
 13 14  2  0  0  0
 14 15  1  0  0  0
 15 16  2  0  0  0
 16 17  1  0  0  0
 17 18  1  0  0  0
 18 19  1  0  0  0
 18 20  2  0  0  0
 37 38  1  0  0  0
 38 39  1  0  0  0
 38 40  2  0  0  0
 40 34  1  0  0  0
  8  1  1  0  0  0
 17  9  2  0  0  0
 27 22  1  0  0  0
 16 11  1  0  0  0
 31 32  1  0  0  0
 19 21  1  0  0  0
 39 41  1  0  0  0
M  END
> <minimizedAffinity>
-8.18137

> <CNNscore>
0.1185832173

> <CNNaffinity>
6.0202054977

> <CNN_VS>
0.7138953209

> <CNNaffinity_variance>
0.2988838851

$$$$
[H]OC(=O)c1c(C2(N([H])C(=O)c3c([H])c([H])c(Br)c([H])c3O[H])C([H])([H])C([H])([H])N(C(=O)c3nc([H])c([H])c([H])c3C([H])([H])[H])C([H])([H])C2([H])[H])sc2c([H])c([H])c([H])c([H])c12


 41 45  0  0  0  0  0  0  0  0999 V2000
   36.8953   15.6298   -9.9863 C   0  0  0  0  0  0  0  0  0  0  0  0
   35.7609   15.0678   -9.1601 C   0  0  0  0  0  0  0  0  0  0  0  0
   34.8660   16.0373   -8.4726 C   0  0  0  0  0  0  0  0  0  0  0  0
   35.4595   17.2671   -8.1040 N   0  0  0  0  0  0  0  0  0  0  0  0
   34.9301   18.1617   -7.1067 C   0  0  0  0  0  0  0  0  0  0  0  0
   35.6630   19.2080   -6.8997 O   0  0  0  0  0  0  0  0  0  0  0  0
   36.6716   17.7401   -8.7754 C   0  0  0  0  0  0  0  0  0  0  0  0
   36.7687   17.1057  -10.1788 C   0  0  0  0  0  0  0  0  0  0  0  0
   37.2269   14.8650  -11.2002 C   0  0  0  0  0  0  0  0  0  0  0  0
   36.0825   13.7638  -11.9423 S   0  0  0  0  0  0  0  0  0  0  0  0
   36.9969   13.2348  -13.2419 C   0  0  0  0  0  0  0  0  0  0  0  0
   36.6910   12.3219  -14.2638 C   0  0  0  0  0  0  0  0  0  0  0  0
   37.6255   12.0451  -15.2309 C   0  0  0  0  0  0  0  0  0  0  0  0
   38.8176   12.6927  -15.1297 C   0  0  0  0  0  0  0  0  0  0  0  0
   39.1027   13.5750  -14.1357 C   0  0  0  0  0  0  0  0  0  0  0  0
   38.1752   13.8965  -13.1141 C   0  0  0  0  0  0  0  0  0  0  0  0
   38.2838   14.7539  -12.0338 C   0  0  0  0  0  0  0  0  0  0  0  0
   39.5224   15.5481  -11.8606 C   0  0  0  0  0  0  0  0  0  0  0  0
   40.4089   15.4515  -10.8250 O   0  0  0  0  0  0  0  0  0  0  0  0
   39.8734   16.4270  -12.7043 O   0  0  0  0  0  0  0  0  0  0  0  0
   40.4774   16.1756  -10.1148 H   0  0  0  0  0  0  0  0  0  0  0  0
   33.7278   18.0028   -6.3660 C   0  0  0  0  0  0  0  0  0  0  0  0
   32.5786   18.5648   -6.7380 N   0  0  0  0  0  0  0  0  0  0  0  0
   31.4174   18.4606   -6.1052 C   0  0  0  0  0  0  0  0  0  0  0  0
   31.3348   17.7173   -4.9558 C   0  0  0  0  0  0  0  0  0  0  0  0
   32.4812   17.1102   -4.5154 C   0  0  0  0  0  0  0  0  0  0  0  0
   33.6858   17.2406   -5.2054 C   0  0  0  0  0  0  0  0  0  0  0  0
   34.8650   16.5545   -4.6764 C   0  0  0  0  0  0  0  0  0  0  0  0
   38.2794   14.6857   -8.0200 C   0  0  0  0  0  0  0  0  0  0  0  0
   37.4562   13.7650   -7.7677 O   0  0  0  0  0  0  0  0  0  0  0  0
   38.0469   15.5547   -9.0367 N   0  0  0  0  0  0  0  0  0  0  0  0
   38.7347   16.3076   -9.2391 H   0  0  0  0  0  0  0  0  0  0  0  0
   43.2368   15.2713   -4.4013 Br  0  0  0  0  0  0  0  0  0  0  0  0
   41.7084   15.0308   -5.5074 C   0  0  0  0  0  0  0  0  0  0  0  0
   41.1905   16.1297   -6.1563 C   0  0  0  0  0  0  0  0  0  0  0  0
   40.1052   15.9469   -6.9371 C   0  0  0  0  0  0  0  0  0  0  0  0
   39.4445   14.7140   -7.1510 C   0  0  0  0  0  0  0  0  0  0  0  0
   39.9920   13.6492   -6.4878 C   0  0  0  0  0  0  0  0  0  0  0  0
   39.4526   12.3943   -6.6054 O   0  0  0  0  0  0  0  0  0  0  0  0
   41.1174   13.8035   -5.6703 C   0  0  0  0  0  0  0  0  0  0  0  0
   39.7493   11.5520   -6.1859 H   0  0  0  0  0  0  0  0  0  0  0  0
 33 34  1  0  0  0
 34 35  2  0  0  0
 35 36  1  0  0  0
 36 37  2  0  0  0
 37 29  1  0  0  0
 29 30  2  0  0  0
 29 31  1  0  0  0
 31  1  1  0  0  0
  1  2  1  0  0  0
  2  3  1  0  0  0
  3  4  1  0  0  0
  4  5  1  0  0  0
  5  6  2  0  0  0
  5 22  1  0  0  0
 22 23  2  0  0  0
 23 24  1  0  0  0
 24 25  2  0  0  0
 25 26  1  0  0  0
 26 27  2  0  0  0
 27 28  1  0  0  0
  4  7  1  0  0  0
  7  8  1  0  0  0
  1  9  1  0  0  0
  9 10  1  0  0  0
 10 11  1  0  0  0
 11 12  2  0  0  0
 12 13  1  0  0  0
 13 14  2  0  0  0
 14 15  1  0  0  0
 15 16  2  0  0  0
 16 17  1  0  0  0
 17 18  1  0  0  0
 18 19  1  0  0  0
 18 20  2  0  0  0
 37 38  1  0  0  0
 38 39  1  0  0  0
 38 40  2  0  0  0
 40 34  1  0  0  0
  8  1  1  0  0  0
 17  9  2  0  0  0
 27 22  1  0  0  0
 16 11  1  0  0  0
 31 32  1  0  0  0
 19 21  1  0  0  0
 39 41  1  0  0  0
M  END
> <minimizedAffinity>
-8.64564

> <CNNscore>
0.1164927632

> <CNNaffinity>
5.9331836700

> <CNN_VS>
0.6911729574

> <CNNaffinity_variance>
0.2275179178

$$$$
[H]OC(=O)c1c(C2(N([H])C(=O)c3c([H])c([H])c(Br)c([H])c3O[H])C([H])([H])C([H])([H])N(C(=O)c3nc([H])c([H])c([H])c3C([H])([H])[H])C([H])([H])C2([H])[H])sc2c([H])c([H])c([H])c([H])c12


 41 45  0  0  0  0  0  0  0  0999 V2000
   38.0770   16.2568  -10.3255 C   0  0  0  0  0  0  0  0  0  0  0  0
   37.4517   15.7837   -9.0330 C   0  0  0  0  0  0  0  0  0  0  0  0
   36.7672   16.7997   -8.1889 C   0  0  0  0  0  0  0  0  0  0  0  0
   37.2722   18.1176   -8.2822 N   0  0  0  0  0  0  0  0  0  0  0  0
   37.0521   19.1470   -7.2989 C   0  0  0  0  0  0  0  0  0  0  0  0
   37.6470   20.2642   -7.5679 O   0  0  0  0  0  0  0  0  0  0  0  0
   38.0416   18.5391   -9.4544 C   0  0  0  0  0  0  0  0  0  0  0  0
   37.6721   17.6543  -10.6634 C   0  0  0  0  0  0  0  0  0  0  0  0
   38.0136   15.2980  -11.4414 C   0  0  0  0  0  0  0  0  0  0  0  0
   36.5920   14.3167  -11.7397 S   0  0  0  0  0  0  0  0  0  0  0  0
   37.1021   13.4805  -13.0981 C   0  0  0  0  0  0  0  0  0  0  0  0
   36.4491   12.5078  -13.8719 C   0  0  0  0  0  0  0  0  0  0  0  0
   37.0892   11.9575  -14.9547 C   0  0  0  0  0  0  0  0  0  0  0  0
   38.3479   12.4051  -15.2109 C   0  0  0  0  0  0  0  0  0  0  0  0
   38.9704   13.3477  -14.4549 C   0  0  0  0  0  0  0  0  0  0  0  0
   38.3557   13.9476  -13.3282 C   0  0  0  0  0  0  0  0  0  0  0  0
   38.8247   14.9064  -12.4480 C   0  0  0  0  0  0  0  0  0  0  0  0
   40.1646   15.4989  -12.6682 C   0  0  0  0  0  0  0  0  0  0  0  0
   41.3482   14.8201  -12.7448 O   0  0  0  0  0  0  0  0  0  0  0  0
   40.3252   16.7487  -12.8085 O   0  0  0  0  0  0  0  0  0  0  0  0
   42.0358   14.8647  -11.9974 H   0  0  0  0  0  0  0  0  0  0  0  0
   36.2730   19.0468   -6.1146 C   0  0  0  0  0  0  0  0  0  0  0  0
   34.9609   19.2768   -6.0996 N   0  0  0  0  0  0  0  0  0  0  0  0
   34.1665   19.2000   -5.0400 C   0  0  0  0  0  0  0  0  0  0  0  0
   34.6920   18.8560   -3.8210 C   0  0  0  0  0  0  0  0  0  0  0  0
   36.0375   18.6051   -3.7640 C   0  0  0  0  0  0  0  0  0  0  0  0
   36.8439   18.6950   -4.8981 C   0  0  0  0  0  0  0  0  0  0  0  0
   38.2710   18.4033   -4.7582 C   0  0  0  0  0  0  0  0  0  0  0  0
   40.2887   15.7114   -9.1073 C   0  0  0  0  0  0  0  0  0  0  0  0
   39.8268   14.6832   -8.5432 O   0  0  0  0  0  0  0  0  0  0  0  0
   39.5061   16.4510   -9.9341 N   0  0  0  0  0  0  0  0  0  0  0  0
   39.8987   17.2946  -10.3979 H   0  0  0  0  0  0  0  0  0  0  0  0
   46.2526   17.0135   -8.2411 Br  0  0  0  0  0  0  0  0  0  0  0  0
   44.4070   16.6041   -8.4483 C   0  0  0  0  0  0  0  0  0  0  0  0
   43.8878   16.5488   -9.7229 C   0  0  0  0  0  0  0  0  0  0  0  0
   42.5768   16.2588   -9.8572 C   0  0  0  0  0  0  0  0  0  0  0  0
   41.6780   16.0037   -8.7945 C   0  0  0  0  0  0  0  0  0  0  0  0
   42.2354   16.0688   -7.5461 C   0  0  0  0  0  0  0  0  0  0  0  0
   41.4790   15.8424   -6.4252 O   0  0  0  0  0  0  0  0  0  0  0  0
   43.5916   16.3667   -7.3709 C   0  0  0  0  0  0  0  0  0  0  0  0
   41.7567   15.8576   -5.4785 H   0  0  0  0  0  0  0  0  0  0  0  0
 33 34  1  0  0  0
 34 35  2  0  0  0
 35 36  1  0  0  0
 36 37  2  0  0  0
 37 29  1  0  0  0
 29 30  2  0  0  0
 29 31  1  0  0  0
 31  1  1  0  0  0
  1  2  1  0  0  0
  2  3  1  0  0  0
  3  4  1  0  0  0
  4  5  1  0  0  0
  5  6  2  0  0  0
  5 22  1  0  0  0
 22 23  2  0  0  0
 23 24  1  0  0  0
 24 25  2  0  0  0
 25 26  1  0  0  0
 26 27  2  0  0  0
 27 28  1  0  0  0
  4  7  1  0  0  0
  7  8  1  0  0  0
  1  9  1  0  0  0
  9 10  1  0  0  0
 10 11  1  0  0  0
 11 12  2  0  0  0
 12 13  1  0  0  0
 13 14  2  0  0  0
 14 15  1  0  0  0
 15 16  2  0  0  0
 16 17  1  0  0  0
 17 18  1  0  0  0
 18 19  1  0  0  0
 18 20  2  0  0  0
 37 38  1  0  0  0
 38 39  1  0  0  0
 38 40  2  0  0  0
 40 34  1  0  0  0
  8  1  1  0  0  0
 17  9  2  0  0  0
 27 22  1  0  0  0
 16 11  1  0  0  0
 31 32  1  0  0  0
 19 21  1  0  0  0
 39 41  1  0  0  0
M  END
> <minimizedAffinity>
-7.66934

> <CNNscore>
0.1125291362

> <CNNaffinity>
5.7415394783

> <CNN_VS>
0.6460905075

> <CNNaffinity_variance>
0.2003856152

$$$$
[H]OC(=O)c1c(C2(N([H])C(=O)c3c([H])c([H])c(Br)c([H])c3O[H])C([H])([H])C([H])([H])N(C(=O)c3nc([H])c([H])c([H])c3C([H])([H])[H])C([H])([H])C2([H])[H])sc2c([H])c([H])c([H])c([H])c12


 41 45  0  0  0  0  0  0  0  0999 V2000
   37.4564   13.7770  -13.4051 C   0  0  0  0  0  0  0  0  0  0  0  0
   36.8076   13.0281  -12.2634 C   0  0  0  0  0  0  0  0  0  0  0  0
   35.9137   13.7980  -11.3570 C   0  0  0  0  0  0  0  0  0  0  0  0
   36.2217   15.1705  -11.2099 N   0  0  0  0  0  0  0  0  0  0  0  0
   35.7723   15.9949  -10.1174 C   0  0  0  0  0  0  0  0  0  0  0  0
   36.2131   17.2107  -10.1628 O   0  0  0  0  0  0  0  0  0  0  0  0
   37.0107   15.8699  -12.2259 C   0  0  0  0  0  0  0  0  0  0  0  0
   36.8755   15.1420  -13.5799 C   0  0  0  0  0  0  0  0  0  0  0  0
   37.6266   13.0040  -14.6469 C   0  0  0  0  0  0  0  0  0  0  0  0
   39.2026   12.7500  -15.3710 S   0  0  0  0  0  0  0  0  0  0  0  0
   38.7631   11.8205  -16.6930 C   0  0  0  0  0  0  0  0  0  0  0  0
   39.5433   11.2621  -17.7181 C   0  0  0  0  0  0  0  0  0  0  0  0
   38.9395   10.5303  -18.7106 C   0  0  0  0  0  0  0  0  0  0  0  0
   37.5886   10.3926  -18.6305 C   0  0  0  0  0  0  0  0  0  0  0  0
   36.8432   10.9378  -17.6330 C   0  0  0  0  0  0  0  0  0  0  0  0
   37.4153   11.7006  -16.5852 C   0  0  0  0  0  0  0  0  0  0  0  0
   36.8278   12.3285  -15.5014 C   0  0  0  0  0  0  0  0  0  0  0  0
   35.3671   12.1968  -15.2917 C   0  0  0  0  0  0  0  0  0  0  0  0
   34.7513   11.6345  -14.2091 O   0  0  0  0  0  0  0  0  0  0  0  0
   34.5310   12.6169  -16.1473 O   0  0  0  0  0  0  0  0  0  0  0  0
   34.2877   10.7319  -14.2708 H   0  0  0  0  0  0  0  0  0  0  0  0
   34.9249   15.6068   -9.0447 C   0  0  0  0  0  0  0  0  0  0  0  0
   33.6167   15.8592   -9.0388 N   0  0  0  0  0  0  0  0  0  0  0  0
   32.7615   15.5269   -8.0808 C   0  0  0  0  0  0  0  0  0  0  0  0
   33.2115   14.8602   -6.9702 C   0  0  0  0  0  0  0  0  0  0  0  0
   34.5485   14.5678   -6.9105 C   0  0  0  0  0  0  0  0  0  0  0  0
   35.4202   14.9320   -7.9361 C   0  0  0  0  0  0  0  0  0  0  0  0
   36.8334   14.5763   -7.8032 C   0  0  0  0  0  0  0  0  0  0  0  0
   39.7816   14.9009  -13.3445 C   0  0  0  0  0  0  0  0  0  0  0  0
   39.6129   15.5099  -14.4351 O   0  0  0  0  0  0  0  0  0  0  0  0
   38.8046   14.1002  -12.8471 N   0  0  0  0  0  0  0  0  0  0  0  0
   38.9524   13.6062  -11.9444 H   0  0  0  0  0  0  0  0  0  0  0  0
   45.0064   16.1402  -10.3147 Br  0  0  0  0  0  0  0  0  0  0  0  0
   43.4272   15.7283  -11.2912 C   0  0  0  0  0  0  0  0  0  0  0  0
   42.2272   16.2288  -10.8367 C   0  0  0  0  0  0  0  0  0  0  0  0
   41.1136   15.9287  -11.5371 C   0  0  0  0  0  0  0  0  0  0  0  0
   41.0676   15.1372  -12.7092 C   0  0  0  0  0  0  0  0  0  0  0  0
   42.2815   14.6608  -13.1253 C   0  0  0  0  0  0  0  0  0  0  0  0
   42.3836   13.8804  -14.2480 O   0  0  0  0  0  0  0  0  0  0  0  0
   43.4561   14.9532  -12.4228 C   0  0  0  0  0  0  0  0  0  0  0  0
   43.1900   13.4794  -14.6508 H   0  0  0  0  0  0  0  0  0  0  0  0
 33 34  1  0  0  0
 34 35  2  0  0  0
 35 36  1  0  0  0
 36 37  2  0  0  0
 37 29  1  0  0  0
 29 30  2  0  0  0
 29 31  1  0  0  0
 31  1  1  0  0  0
  1  2  1  0  0  0
  2  3  1  0  0  0
  3  4  1  0  0  0
  4  5  1  0  0  0
  5  6  2  0  0  0
  5 22  1  0  0  0
 22 23  2  0  0  0
 23 24  1  0  0  0
 24 25  2  0  0  0
 25 26  1  0  0  0
 26 27  2  0  0  0
 27 28  1  0  0  0
  4  7  1  0  0  0
  7  8  1  0  0  0
  1  9  1  0  0  0
  9 10  1  0  0  0
 10 11  1  0  0  0
 11 12  2  0  0  0
 12 13  1  0  0  0
 13 14  2  0  0  0
 14 15  1  0  0  0
 15 16  2  0  0  0
 16 17  1  0  0  0
 17 18  1  0  0  0
 18 19  1  0  0  0
 18 20  2  0  0  0
 37 38  1  0  0  0
 38 39  1  0  0  0
 38 40  2  0  0  0
 40 34  1  0  0  0
  8  1  1  0  0  0
 17  9  2  0  0  0
 27 22  1  0  0  0
 16 11  1  0  0  0
 31 32  1  0  0  0
 19 21  1  0  0  0
 39 41  1  0  0  0
M  END
> <minimizedAffinity>
-9.02938

> <CNNscore>
0.1101994142

> <CNNaffinity>
6.3393812180

> <CNN_VS>
0.6985961199

> <CNNaffinity_variance>
0.3939649165

$$$$
[H]c1nc(N([H])c2c([H])nc3c([H])c(OC([H])([H])[H])c(OC([H])([H])[H])c([H])c3c2N([H])c2c([H])c([H])c(C([H])([H])N3C([H])([H])C([H])([H])N(C([H])([H])[H])C([H])([H])C3([H])[H])c([H])c2[H])sc1[H]


 37 41  0  0  0  0  0  0  0  0999 V2000
   37.6333   12.1586  -15.0396 C   0  0  0  0  0  0  0  0  0  0  0  0
   36.2721   11.9560  -15.0310 C   0  0  0  0  0  0  0  0  0  0  0  0
   35.4966   12.8814  -14.3642 C   0  0  0  0  0  0  0  0  0  0  0  0
   34.1746   12.7039  -14.3434 N   0  0  0  0  0  0  0  0  0  0  0  0
   33.3690   13.5901  -13.6982 C   0  0  0  0  0  0  0  0  0  0  0  0
   33.8899   14.6726  -13.0622 C   0  0  0  0  0  0  0  0  0  0  0  0
   35.2774   14.8990  -13.0586 C   0  0  0  0  0  0  0  0  0  0  0  0
   36.0539   13.9827  -13.7201 C   0  0  0  0  0  0  0  0  0  0  0  0
   37.4109   14.1484  -13.7518 C   0  0  0  0  0  0  0  0  0  0  0  0
   38.2188   13.2477  -14.4061 C   0  0  0  0  0  0  0  0  0  0  0  0
   38.6564   11.1974  -17.0614 C   0  0  0  0  0  0  0  0  0  0  0  0
   38.4595   11.2755  -15.6845 O   0  0  0  0  0  0  0  0  0  0  0  0
   33.1060   15.6049  -12.3896 N   0  0  0  0  0  0  0  0  0  0  0  0
   33.1730   16.6546  -12.6660 H   0  0  0  0  0  0  0  0  0  0  0  0
   32.1988   15.2929  -11.3416 C   0  0  0  0  0  0  0  0  0  0  0  0
   31.0816   14.5536  -11.5539 N   0  0  0  0  0  0  0  0  0  0  0  0
   30.2907   14.2956  -10.5808 C   0  0  0  0  0  0  0  0  0  0  0  0
   30.6040   14.7832   -9.3351 C   0  0  0  0  0  0  0  0  0  0  0  0
   32.0575   15.5973   -9.6847 S   0  0  0  0  0  0  0  0  0  0  0  0
   35.7681   16.0265  -12.3891 N   0  0  0  0  0  0  0  0  0  0  0  0
   35.7742   16.9310  -12.9445 H   0  0  0  0  0  0  0  0  0  0  0  0
   36.2424   16.0046  -11.0376 C   0  0  0  0  0  0  0  0  0  0  0  0
   36.9716   17.0562  -10.5305 C   0  0  0  0  0  0  0  0  0  0  0  0
   37.4386   17.0432   -9.2134 C   0  0  0  0  0  0  0  0  0  0  0  0
   37.1919   15.9834   -8.3681 C   0  0  0  0  0  0  0  0  0  0  0  0
   36.4568   14.9371   -8.8989 C   0  0  0  0  0  0  0  0  0  0  0  0
   35.9935   14.9446  -10.1975 C   0  0  0  0  0  0  0  0  0  0  0  0
   37.6671   15.9154   -6.9654 C   0  0  0  0  0  0  0  0  0  0  0  0
   37.2942   16.9546   -6.1127 N   0  0  0  0  0  0  0  0  0  0  0  0
   35.9342   17.2364   -5.9131 C   0  0  0  0  0  0  0  0  0  0  0  0
   35.7109   17.9784   -4.6178 C   0  0  0  0  0  0  0  0  0  0  0  0
   36.5495   19.1418   -4.4794 N   0  0  0  0  0  0  0  0  0  0  0  0
   35.8291   20.3577   -4.2564 C   0  0  0  0  0  0  0  0  0  0  0  0
   37.5078   19.2558   -5.5668 C   0  0  0  0  0  0  0  0  0  0  0  0
   38.2331   17.9465   -5.7946 C   0  0  0  0  0  0  0  0  0  0  0  0
   39.5890   13.4167  -14.4371 O   0  0  0  0  0  0  0  0  0  0  0  0
   40.1371   14.6671  -14.1132 C   0  0  0  0  0  0  0  0  0  0  0  0
 11 12  1  0  0  0
 12  1  1  0  0  0
  1  2  2  0  0  0
  2  3  1  0  0  0
  3  4  2  0  0  0
  4  5  1  0  0  0
  5  6  2  0  0  0
  6 13  1  0  0  0
 13 15  1  0  0  0
 15 16  2  0  0  0
 16 17  1  0  0  0
 17 18  2  0  0  0
 18 19  1  0  0  0
  6  7  1  0  0  0
  7 20  1  0  0  0
 20 22  1  0  0  0
 22 23  2  0  0  0
 23 24  1  0  0  0
 24 25  2  0  0  0
 25 28  1  0  0  0
 28 29  1  0  0  0
 29 30  1  0  0  0
 30 31  1  0  0  0
 31 32  1  0  0  0
 32 33  1  0  0  0
 32 34  1  0  0  0
 34 35  1  0  0  0
 25 26  1  0  0  0
 26 27  2  0  0  0
  7  8  2  0  0  0
  8  9  1  0  0  0
  9 10  2  0  0  0
 10 36  1  0  0  0
 36 37  1  0  0  0
 10  1  1  0  0  0
  8  3  1  0  0  0
 19 15  1  0  0  0
 27 22  1  0  0  0
 35 29  1  0  0  0
 13 14  1  0  0  0
 20 21  1  0  0  0
M  END
> <minimizedAffinity>
-7.41968

> <CNNscore>
0.1148442626

> <CNNaffinity>
6.2393860817

> <CNN_VS>
0.7165576816

> <CNNaffinity_variance>
0.7438570857

$$$$
[H]c1nc(N([H])c2c([H])nc3c([H])c(OC([H])([H])[H])c(OC([H])([H])[H])c([H])c3c2N([H])c2c([H])c([H])c(C([H])([H])N3C([H])([H])C([H])([H])N(C([H])([H])[H])C([H])([H])C3([H])[H])c([H])c2[H])sc1[H]


 37 41  0  0  0  0  0  0  0  0999 V2000
   35.3036   12.3246  -15.7202 C   0  0  0  0  0  0  0  0  0  0  0  0
   36.5694   11.8606  -15.9961 C   0  0  0  0  0  0  0  0  0  0  0  0
   37.6289   12.5146  -15.4025 C   0  0  0  0  0  0  0  0  0  0  0  0
   38.8646   12.0811  -15.6567 N   0  0  0  0  0  0  0  0  0  0  0  0
   39.9409   12.6944  -15.0943 C   0  0  0  0  0  0  0  0  0  0  0  0
   39.7830   13.7589  -14.2639 C   0  0  0  0  0  0  0  0  0  0  0  0
   38.4990   14.2493  -13.9682 C   0  0  0  0  0  0  0  0  0  0  0  0
   37.4415   13.6032  -14.5550 C   0  0  0  0  0  0  0  0  0  0  0  0
   36.1677   14.0337  -14.3061 C   0  0  0  0  0  0  0  0  0  0  0  0
   35.0846   13.4084  -14.8788 C   0  0  0  0  0  0  0  0  0  0  0  0
   34.0133   10.3458  -16.4112 C   0  0  0  0  0  0  0  0  0  0  0  0
   34.2083   11.7188  -16.2786 O   0  0  0  0  0  0  0  0  0  0  0  0
   40.8530   14.4178  -13.6663 N   0  0  0  0  0  0  0  0  0  0  0  0
   40.6644   15.3105  -13.0745 H   0  0  0  0  0  0  0  0  0  0  0  0
   42.2107   14.0114  -13.7663 C   0  0  0  0  0  0  0  0  0  0  0  0
   43.0395   14.0022  -12.6925 N   0  0  0  0  0  0  0  0  0  0  0  0
   44.2566   13.6284  -12.8270 C   0  0  0  0  0  0  0  0  0  0  0  0
   44.6897   13.2432  -14.0727 C   0  0  0  0  0  0  0  0  0  0  0  0
   43.2602   13.4598  -14.9713 S   0  0  0  0  0  0  0  0  0  0  0  0
   38.3858   15.3487  -13.1088 N   0  0  0  0  0  0  0  0  0  0  0  0
   39.0128   16.1767  -13.3279 H   0  0  0  0  0  0  0  0  0  0  0  0
   37.4914   15.3948  -11.9908 C   0  0  0  0  0  0  0  0  0  0  0  0
   36.4426   16.2861  -11.9649 C   0  0  0  0  0  0  0  0  0  0  0  0
   35.5652   16.3382  -10.8783 C   0  0  0  0  0  0  0  0  0  0  0  0
   35.7098   15.5051   -9.7904 C   0  0  0  0  0  0  0  0  0  0  0  0
   36.7709   14.6170   -9.8378 C   0  0  0  0  0  0  0  0  0  0  0  0
   37.6394   14.5611  -10.9072 C   0  0  0  0  0  0  0  0  0  0  0  0
   34.8124   15.5214   -8.6104 C   0  0  0  0  0  0  0  0  0  0  0  0
   35.4070   15.4136   -7.3531 N   0  0  0  0  0  0  0  0  0  0  0  0
   35.3388   14.1993   -6.6532 C   0  0  0  0  0  0  0  0  0  0  0  0
   36.4379   14.0954   -5.6241 C   0  0  0  0  0  0  0  0  0  0  0  0
   36.5080   15.2403   -4.7523 N   0  0  0  0  0  0  0  0  0  0  0  0
   36.4051   14.9222   -3.3611 C   0  0  0  0  0  0  0  0  0  0  0  0
   35.5822   16.2876   -5.1520 C   0  0  0  0  0  0  0  0  0  0  0  0
   35.6969   16.5814   -6.6329 C   0  0  0  0  0  0  0  0  0  0  0  0
   33.7990   13.8445  -14.6262 O   0  0  0  0  0  0  0  0  0  0  0  0
   33.3099   13.8251  -13.3112 C   0  0  0  0  0  0  0  0  0  0  0  0
 11 12  1  0  0  0
 12  1  1  0  0  0
  1  2  2  0  0  0
  2  3  1  0  0  0
  3  4  2  0  0  0
  4  5  1  0  0  0
  5  6  2  0  0  0
  6 13  1  0  0  0
 13 15  1  0  0  0
 15 16  2  0  0  0
 16 17  1  0  0  0
 17 18  2  0  0  0
 18 19  1  0  0  0
  6  7  1  0  0  0
  7 20  1  0  0  0
 20 22  1  0  0  0
 22 23  2  0  0  0
 23 24  1  0  0  0
 24 25  2  0  0  0
 25 28  1  0  0  0
 28 29  1  0  0  0
 29 30  1  0  0  0
 30 31  1  0  0  0
 31 32  1  0  0  0
 32 33  1  0  0  0
 32 34  1  0  0  0
 34 35  1  0  0  0
 25 26  1  0  0  0
 26 27  2  0  0  0
  7  8  2  0  0  0
  8  9  1  0  0  0
  9 10  2  0  0  0
 10 36  1  0  0  0
 36 37  1  0  0  0
 10  1  1  0  0  0
  8  3  1  0  0  0
 19 15  1  0  0  0
 27 22  1  0  0  0
 35 29  1  0  0  0
 13 14  1  0  0  0
 20 21  1  0  0  0
M  END
> <minimizedAffinity>
-7.50597

> <CNNscore>
0.0657528117

> <CNNaffinity>
6.4442543983

> <CNN_VS>
0.4237278402

> <CNNaffinity_variance>
0.2522123754

$$$$
[H]c1nc(N([H])c2c([H])nc3c([H])c(OC([H])([H])[H])c(OC([H])([H])[H])c([H])c3c2N([H])c2c([H])c([H])c(C([H])([H])N3C([H])([H])C([H])([H])N(C([H])([H])[H])C([H])([H])C3([H])[H])c([H])c2[H])sc1[H]


 37 41  0  0  0  0  0  0  0  0999 V2000
   37.7017   12.3842  -14.6699 C   0  0  0  0  0  0  0  0  0  0  0  0
   36.3537   12.1097  -14.7080 C   0  0  0  0  0  0  0  0  0  0  0  0
   35.5066   12.9987  -14.0798 C   0  0  0  0  0  0  0  0  0  0  0  0
   34.1959   12.7515  -14.1046 N   0  0  0  0  0  0  0  0  0  0  0  0
   33.3217   13.5995  -13.4986 C   0  0  0  0  0  0  0  0  0  0  0  0
   33.7613   14.7139  -12.8564 C   0  0  0  0  0  0  0  0  0  0  0  0
   35.1338   15.0137  -12.8053 C   0  0  0  0  0  0  0  0  0  0  0  0
   35.9812   14.1339  -13.4283 C   0  0  0  0  0  0  0  0  0  0  0  0
   37.3278   14.3712  -13.4130 C   0  0  0  0  0  0  0  0  0  0  0  0
   38.2054   13.5087  -14.0279 C   0  0  0  0  0  0  0  0  0  0  0  0
   38.8234   11.4369  -16.6454 C   0  0  0  0  0  0  0  0  0  0  0  0
   38.5963   11.5403  -15.2748 O   0  0  0  0  0  0  0  0  0  0  0  0
   32.9053   15.6095  -12.2227 N   0  0  0  0  0  0  0  0  0  0  0  0
   33.1128   16.6755  -12.2808 H   0  0  0  0  0  0  0  0  0  0  0  0
   31.7492   15.2388  -11.4846 C   0  0  0  0  0  0  0  0  0  0  0  0
   31.6835   15.3720  -10.1364 N   0  0  0  0  0  0  0  0  0  0  0  0
   30.6218   15.0256   -9.5103 C   0  0  0  0  0  0  0  0  0  0  0  0
   29.5684   14.5229  -10.2352 C   0  0  0  0  0  0  0  0  0  0  0  0
   30.2195   14.5952  -11.8065 S   0  0  0  0  0  0  0  0  0  0  0  0
   35.5397   16.1717  -12.1312 N   0  0  0  0  0  0  0  0  0  0  0  0
   35.4978   17.0736  -12.6895 H   0  0  0  0  0  0  0  0  0  0  0  0
   35.9906   16.1832  -10.7716 C   0  0  0  0  0  0  0  0  0  0  0  0
   37.3066   16.4506  -10.4688 C   0  0  0  0  0  0  0  0  0  0  0  0
   37.7554   16.4636   -9.1453 C   0  0  0  0  0  0  0  0  0  0  0  0
   36.9060   16.2107   -8.0903 C   0  0  0  0  0  0  0  0  0  0  0  0
   35.5874   15.9444   -8.4179 C   0  0  0  0  0  0  0  0  0  0  0  0
   35.1392   15.9304   -9.7217 C   0  0  0  0  0  0  0  0  0  0  0  0
   37.3294   16.2067   -6.6695 C   0  0  0  0  0  0  0  0  0  0  0  0
   38.1941   15.1904   -6.2627 N   0  0  0  0  0  0  0  0  0  0  0  0
   39.5498   15.4775   -6.0421 C   0  0  0  0  0  0  0  0  0  0  0  0
   40.1867   14.4569   -5.1307 C   0  0  0  0  0  0  0  0  0  0  0  0
   39.9647   13.0989   -5.5579 N   0  0  0  0  0  0  0  0  0  0  0  0
   41.1648   12.3458   -5.7567 C   0  0  0  0  0  0  0  0  0  0  0  0
   39.0681   13.0261   -6.7000 C   0  0  0  0  0  0  0  0  0  0  0  0
   37.8218   13.8542   -6.4692 C   0  0  0  0  0  0  0  0  0  0  0  0
   39.5650   13.7499  -14.0115 O   0  0  0  0  0  0  0  0  0  0  0  0
   40.0399   14.9910  -13.5609 C   0  0  0  0  0  0  0  0  0  0  0  0
 11 12  1  0  0  0
 12  1  1  0  0  0
  1  2  2  0  0  0
  2  3  1  0  0  0
  3  4  2  0  0  0
  4  5  1  0  0  0
  5  6  2  0  0  0
  6 13  1  0  0  0
 13 15  1  0  0  0
 15 16  2  0  0  0
 16 17  1  0  0  0
 17 18  2  0  0  0
 18 19  1  0  0  0
  6  7  1  0  0  0
  7 20  1  0  0  0
 20 22  1  0  0  0
 22 23  2  0  0  0
 23 24  1  0  0  0
 24 25  2  0  0  0
 25 28  1  0  0  0
 28 29  1  0  0  0
 29 30  1  0  0  0
 30 31  1  0  0  0
 31 32  1  0  0  0
 32 33  1  0  0  0
 32 34  1  0  0  0
 34 35  1  0  0  0
 25 26  1  0  0  0
 26 27  2  0  0  0
  7  8  2  0  0  0
  8  9  1  0  0  0
  9 10  2  0  0  0
 10 36  1  0  0  0
 36 37  1  0  0  0
 10  1  1  0  0  0
  8  3  1  0  0  0
 19 15  1  0  0  0
 27 22  1  0  0  0
 35 29  1  0  0  0
 13 14  1  0  0  0
 20 21  1  0  0  0
M  END
> <minimizedAffinity>
-8.09039

> <CNNscore>
0.0653512180

> <CNNaffinity>
5.8382735252

> <CNN_VS>
0.3815382719

> <CNNaffinity_variance>
1.3363049030

$$$$
[H]c1nc(N([H])c2c([H])nc3c([H])c(OC([H])([H])[H])c(OC([H])([H])[H])c([H])c3c2N([H])c2c([H])c([H])c(C([H])([H])N3C([H])([H])C([H])([H])N(C([H])([H])[H])C([H])([H])C3([H])[H])c([H])c2[H])sc1[H]


 37 41  0  0  0  0  0  0  0  0999 V2000
   36.6662   12.1138  -15.1233 C   0  0  0  0  0  0  0  0  0  0  0  0
   37.9993   12.3855  -15.3306 C   0  0  0  0  0  0  0  0  0  0  0  0
   38.5727   13.3760  -14.5608 C   0  0  0  0  0  0  0  0  0  0  0  0
   39.8639   13.6556  -14.7457 N   0  0  0  0  0  0  0  0  0  0  0  0
   40.4728   14.6246  -14.0102 C   0  0  0  0  0  0  0  0  0  0  0  0
   39.7828   15.3276  -13.0735 C   0  0  0  0  0  0  0  0  0  0  0  0
   38.4205   15.0663  -12.8452 C   0  0  0  0  0  0  0  0  0  0  0  0
   37.8446   14.0824  -13.6071 C   0  0  0  0  0  0  0  0  0  0  0  0
   36.5222   13.7823  -13.4313 C   0  0  0  0  0  0  0  0  0  0  0  0
   35.9136   12.8014  -14.1793 C   0  0  0  0  0  0  0  0  0  0  0  0
   35.8753   11.1368  -17.2394 C   0  0  0  0  0  0  0  0  0  0  0  0
   36.0370   11.1412  -15.8558 O   0  0  0  0  0  0  0  0  0  0  0  0
   40.3627   16.3269  -12.2981 N   0  0  0  0  0  0  0  0  0  0  0  0
   39.7871   17.2192  -12.0631 H   0  0  0  0  0  0  0  0  0  0  0  0
   41.6815   16.2792  -11.7716 C   0  0  0  0  0  0  0  0  0  0  0  0
   41.9244   16.0158  -10.4634 N   0  0  0  0  0  0  0  0  0  0  0  0
   43.1288   15.9823  -10.0305 C   0  0  0  0  0  0  0  0  0  0  0  0
   44.1508   16.2174  -10.9182 C   0  0  0  0  0  0  0  0  0  0  0  0
   43.2595   16.4749  -12.3455 S   0  0  0  0  0  0  0  0  0  0  0  0
   37.7508   15.8168  -11.8713 N   0  0  0  0  0  0  0  0  0  0  0  0
   37.4246   16.7816  -12.1705 H   0  0  0  0  0  0  0  0  0  0  0  0
   37.5002   15.3492  -10.5406 C   0  0  0  0  0  0  0  0  0  0  0  0
   38.5192   15.2709   -9.6185 C   0  0  0  0  0  0  0  0  0  0  0  0
   38.2839   14.8157   -8.3183 C   0  0  0  0  0  0  0  0  0  0  0  0
   37.0289   14.4268   -7.9033 C   0  0  0  0  0  0  0  0  0  0  0  0
   36.0193   14.5139   -8.8469 C   0  0  0  0  0  0  0  0  0  0  0  0
   36.2458   14.9623  -10.1308 C   0  0  0  0  0  0  0  0  0  0  0  0
   36.7245   13.9319   -6.5394 C   0  0  0  0  0  0  0  0  0  0  0  0
   35.8171   14.6697   -5.7790 N   0  0  0  0  0  0  0  0  0  0  0  0
   34.5465   14.1405   -5.5059 C   0  0  0  0  0  0  0  0  0  0  0  0
   33.9335   14.7842   -4.2861 C   0  0  0  0  0  0  0  0  0  0  0  0
   33.9398   16.2240   -4.3416 N   0  0  0  0  0  0  0  0  0  0  0  0
   32.6468   16.8195   -4.1975 C   0  0  0  0  0  0  0  0  0  0  0  0
   34.6534   16.7217   -5.5064 C   0  0  0  0  0  0  0  0  0  0  0  0
   36.0046   16.0530   -5.6455 C   0  0  0  0  0  0  0  0  0  0  0  0
   34.5780   12.4996  -14.0004 O   0  0  0  0  0  0  0  0  0  0  0  0
   33.6009   13.3942  -14.4630 C   0  0  0  0  0  0  0  0  0  0  0  0
 11 12  1  0  0  0
 12  1  1  0  0  0
  1  2  2  0  0  0
  2  3  1  0  0  0
  3  4  2  0  0  0
  4  5  1  0  0  0
  5  6  2  0  0  0
  6 13  1  0  0  0
 13 15  1  0  0  0
 15 16  2  0  0  0
 16 17  1  0  0  0
 17 18  2  0  0  0
 18 19  1  0  0  0
  6  7  1  0  0  0
  7 20  1  0  0  0
 20 22  1  0  0  0
 22 23  2  0  0  0
 23 24  1  0  0  0
 24 25  2  0  0  0
 25 28  1  0  0  0
 28 29  1  0  0  0
 29 30  1  0  0  0
 30 31  1  0  0  0
 31 32  1  0  0  0
 32 33  1  0  0  0
 32 34  1  0  0  0
 34 35  1  0  0  0
 25 26  1  0  0  0
 26 27  2  0  0  0
  7  8  2  0  0  0
  8  9  1  0  0  0
  9 10  2  0  0  0
 10 36  1  0  0  0
 36 37  1  0  0  0
 10  1  1  0  0  0
  8  3  1  0  0  0
 19 15  1  0  0  0
 27 22  1  0  0  0
 35 29  1  0  0  0
 13 14  1  0  0  0
 20 21  1  0  0  0
M  END
> <minimizedAffinity>
-7.81712

> <CNNscore>
0.0617487617

> <CNNaffinity>
6.0392279625

> <CNN_VS>
0.3729148507

> <CNNaffinity_variance>
0.8356769681

$$$$
[H]c1nc(N([H])c2c([H])nc3c([H])c(OC([H])([H])[H])c(OC([H])([H])[H])c([H])c3c2N([H])c2c([H])c([H])c(C([H])([H])N3C([H])([H])C([H])([H])N(C([H])([H])[H])C([H])([H])C3([H])[H])c([H])c2[H])sc1[H]


 37 41  0  0  0  0  0  0  0  0999 V2000
   39.7700   12.7421  -15.6435 C   0  0  0  0  0  0  0  0  0  0  0  0
   40.9068   12.3728  -16.3257 C   0  0  0  0  0  0  0  0  0  0  0  0
   42.1117   12.8575  -15.8612 C   0  0  0  0  0  0  0  0  0  0  0  0
   43.2261   12.5119  -16.5080 N   0  0  0  0  0  0  0  0  0  0  0  0
   44.4376   12.9656  -16.0871 C   0  0  0  0  0  0  0  0  0  0  0  0
   44.5407   13.7782  -15.0024 C   0  0  0  0  0  0  0  0  0  0  0  0
   43.3925   14.1677  -14.2907 C   0  0  0  0  0  0  0  0  0  0  0  0
   42.1915   13.6889  -14.7472 C   0  0  0  0  0  0  0  0  0  0  0  0
   41.0388   14.0327  -14.0969 C   0  0  0  0  0  0  0  0  0  0  0  0
   39.8175   13.5701  -14.5288 C   0  0  0  0  0  0  0  0  0  0  0  0
   38.3067   11.3635  -17.0635 C   0  0  0  0  0  0  0  0  0  0  0  0
   38.5415   12.2945  -16.0541 O   0  0  0  0  0  0  0  0  0  0  0  0
   45.7570   14.2667  -14.5355 N   0  0  0  0  0  0  0  0  0  0  0  0
   45.8873   15.3393  -14.4118 H   0  0  0  0  0  0  0  0  0  0  0  0
   46.8761   13.4596  -14.1965 C   0  0  0  0  0  0  0  0  0  0  0  0
   47.9909   13.4154  -14.9679 N   0  0  0  0  0  0  0  0  0  0  0  0
   48.9770   12.6743  -14.6253 C   0  0  0  0  0  0  0  0  0  0  0  0
   48.8723   11.9373  -13.4704 C   0  0  0  0  0  0  0  0  0  0  0  0
   47.3122   12.3903  -12.9619 S   0  0  0  0  0  0  0  0  0  0  0  0
   43.5477   15.0069  -13.1808 N   0  0  0  0  0  0  0  0  0  0  0  0
   43.7360   16.0296  -13.3938 H   0  0  0  0  0  0  0  0  0  0  0  0
   43.4647   14.5541  -11.8243 C   0  0  0  0  0  0  0  0  0  0  0  0
   43.9107   13.3003  -11.4722 C   0  0  0  0  0  0  0  0  0  0  0  0
   43.8334   12.8502  -10.1514 C   0  0  0  0  0  0  0  0  0  0  0  0
   43.3104   13.6364   -9.1480 C   0  0  0  0  0  0  0  0  0  0  0  0
   42.8682   14.8933   -9.5245 C   0  0  0  0  0  0  0  0  0  0  0  0
   42.9421   15.3425  -10.8260 C   0  0  0  0  0  0  0  0  0  0  0  0
   43.2000   13.2078   -7.7331 C   0  0  0  0  0  0  0  0  0  0  0  0
   44.3709   12.7962   -7.0963 N   0  0  0  0  0  0  0  0  0  0  0  0
   44.5198   11.4544   -6.7138 C   0  0  0  0  0  0  0  0  0  0  0  0
   45.9747   11.0876   -6.5502 C   0  0  0  0  0  0  0  0  0  0  0  0
   46.6956   11.9963   -5.6955 N   0  0  0  0  0  0  0  0  0  0  0  0
   47.3408   11.3657   -4.5850 C   0  0  0  0  0  0  0  0  0  0  0  0
   45.8790   13.1297   -5.2925 C   0  0  0  0  0  0  0  0  0  0  0  0
   45.1895   13.7571   -6.4855 C   0  0  0  0  0  0  0  0  0  0  0  0
   38.6545   13.9183  -13.8708 O   0  0  0  0  0  0  0  0  0  0  0  0
   38.6804   14.9565  -12.9272 C   0  0  0  0  0  0  0  0  0  0  0  0
 11 12  1  0  0  0
 12  1  1  0  0  0
  1  2  2  0  0  0
  2  3  1  0  0  0
  3  4  2  0  0  0
  4  5  1  0  0  0
  5  6  2  0  0  0
  6 13  1  0  0  0
 13 15  1  0  0  0
 15 16  2  0  0  0
 16 17  1  0  0  0
 17 18  2  0  0  0
 18 19  1  0  0  0
  6  7  1  0  0  0
  7 20  1  0  0  0
 20 22  1  0  0  0
 22 23  2  0  0  0
 23 24  1  0  0  0
 24 25  2  0  0  0
 25 28  1  0  0  0
 28 29  1  0  0  0
 29 30  1  0  0  0
 30 31  1  0  0  0
 31 32  1  0  0  0
 32 33  1  0  0  0
 32 34  1  0  0  0
 34 35  1  0  0  0
 25 26  1  0  0  0
 26 27  2  0  0  0
  7  8  2  0  0  0
  8  9  1  0  0  0
  9 10  2  0  0  0
 10 36  1  0  0  0
 36 37  1  0  0  0
 10  1  1  0  0  0
  8  3  1  0  0  0
 19 15  1  0  0  0
 27 22  1  0  0  0
 35 29  1  0  0  0
 13 14  1  0  0  0
 20 21  1  0  0  0
M  END
> <minimizedAffinity>
-6.23913

> <CNNscore>
0.0611902587

> <CNNaffinity>
5.8018593788

> <CNN_VS>
0.3550172746

> <CNNaffinity_variance>
0.3286953866

$$$$
[H]c1nc(N([H])c2c([H])nc3c([H])c(OC([H])([H])[H])c(OC([H])([H])[H])c([H])c3c2N([H])c2c([H])c([H])c(C([H])([H])N3C([H])([H])C([H])([H])N(C([H])([H])[H])C([H])([H])C3([H])[H])c([H])c2[H])sc1[H]


 37 41  0  0  0  0  0  0  0  0999 V2000
   38.0501   12.4041  -14.8896 C   0  0  0  0  0  0  0  0  0  0  0  0
   36.7262   12.0834  -14.6936 C   0  0  0  0  0  0  0  0  0  0  0  0
   35.9473   12.9925  -14.0085 C   0  0  0  0  0  0  0  0  0  0  0  0
   34.6611   12.7012  -13.8074 N   0  0  0  0  0  0  0  0  0  0  0  0
   33.8537   13.5668  -13.1368 C   0  0  0  0  0  0  0  0  0  0  0  0
   34.3366   14.7438  -12.6581 C   0  0  0  0  0  0  0  0  0  0  0  0
   35.6856   15.0915  -12.8472 C   0  0  0  0  0  0  0  0  0  0  0  0
   36.4652   14.1920  -13.5278 C   0  0  0  0  0  0  0  0  0  0  0  0
   37.7858   14.4738  -13.7433 C   0  0  0  0  0  0  0  0  0  0  0  0
   38.5958   13.5932  -14.4219 C   0  0  0  0  0  0  0  0  0  0  0  0
   38.9021   11.3443  -16.9412 C   0  0  0  0  0  0  0  0  0  0  0  0
   38.8775   11.5434  -15.5626 O   0  0  0  0  0  0  0  0  0  0  0  0
   33.5495   15.6595  -11.9668 N   0  0  0  0  0  0  0  0  0  0  0  0
   33.8440   16.7063  -11.9473 H   0  0  0  0  0  0  0  0  0  0  0  0
   32.3585   15.3339  -11.2637 C   0  0  0  0  0  0  0  0  0  0  0  0
   32.1835   15.6561   -9.9578 N   0  0  0  0  0  0  0  0  0  0  0  0
   31.0941   15.3436   -9.3623 C   0  0  0  0  0  0  0  0  0  0  0  0
   30.1237   14.6827  -10.0759 C   0  0  0  0  0  0  0  0  0  0  0  0
   30.8893   14.5646  -11.5918 S   0  0  0  0  0  0  0  0  0  0  0  0
   36.1381   16.3135  -12.3351 N   0  0  0  0  0  0  0  0  0  0  0  0
   36.0061   17.1586  -12.9636 H   0  0  0  0  0  0  0  0  0  0  0  0
   36.7475   16.4586  -11.0468 C   0  0  0  0  0  0  0  0  0  0  0  0
   38.1043   16.2902  -10.8870 C   0  0  0  0  0  0  0  0  0  0  0  0
   38.7073   16.4296   -9.6340 C   0  0  0  0  0  0  0  0  0  0  0  0
   37.9751   16.7397   -8.5087 C   0  0  0  0  0  0  0  0  0  0  0  0
   36.6128   16.9047   -8.6926 C   0  0  0  0  0  0  0  0  0  0  0  0
   36.0127   16.7685   -9.9264 C   0  0  0  0  0  0  0  0  0  0  0  0
   38.5619   16.8942   -7.1560 C   0  0  0  0  0  0  0  0  0  0  0  0
   37.9733   16.1728   -6.1172 N   0  0  0  0  0  0  0  0  0  0  0  0
   37.9758   14.7702   -6.1559 C   0  0  0  0  0  0  0  0  0  0  0  0
   37.8031   14.1819   -4.7768 C   0  0  0  0  0  0  0  0  0  0  0  0
   36.6693   14.7200   -4.0691 N   0  0  0  0  0  0  0  0  0  0  0  0
   35.7336   13.7316   -3.6278 C   0  0  0  0  0  0  0  0  0  0  0  0
   36.0306   15.8001   -4.8034 C   0  0  0  0  0  0  0  0  0  0  0  0
   37.0496   16.8138   -5.2791 C   0  0  0  0  0  0  0  0  0  0  0  0
   39.9292   13.8794  -14.6386 O   0  0  0  0  0  0  0  0  0  0  0  0
   40.6323   14.6450  -13.6961 C   0  0  0  0  0  0  0  0  0  0  0  0
 11 12  1  0  0  0
 12  1  1  0  0  0
  1  2  2  0  0  0
  2  3  1  0  0  0
  3  4  2  0  0  0
  4  5  1  0  0  0
  5  6  2  0  0  0
  6 13  1  0  0  0
 13 15  1  0  0  0
 15 16  2  0  0  0
 16 17  1  0  0  0
 17 18  2  0  0  0
 18 19  1  0  0  0
  6  7  1  0  0  0
  7 20  1  0  0  0
 20 22  1  0  0  0
 22 23  2  0  0  0
 23 24  1  0  0  0
 24 25  2  0  0  0
 25 28  1  0  0  0
 28 29  1  0  0  0
 29 30  1  0  0  0
 30 31  1  0  0  0
 31 32  1  0  0  0
 32 33  1  0  0  0
 32 34  1  0  0  0
 34 35  1  0  0  0
 25 26  1  0  0  0
 26 27  2  0  0  0
  7  8  2  0  0  0
  8  9  1  0  0  0
  9 10  2  0  0  0
 10 36  1  0  0  0
 36 37  1  0  0  0
 10  1  1  0  0  0
  8  3  1  0  0  0
 19 15  1  0  0  0
 27 22  1  0  0  0
 35 29  1  0  0  0
 13 14  1  0  0  0
 20 21  1  0  0  0
M  END
> <minimizedAffinity>
-7.74938

> <CNNscore>
0.0542313196

> <CNNaffinity>
5.8590750694

> <CNN_VS>
0.3177453578

> <CNNaffinity_variance>
1.2889482975

$$$$
[H]c1nc(N([H])c2c([H])nc3c([H])c(OC([H])([H])[H])c(OC([H])([H])[H])c([H])c3c2N([H])c2c([H])c([H])c(C([H])([H])N3C([H])([H])C([H])([H])N(C([H])([H])[H])C([H])([H])C3([H])[H])c([H])c2[H])sc1[H]


 37 41  0  0  0  0  0  0  0  0999 V2000
   36.9454   19.5378   -4.7492 C   0  0  0  0  0  0  0  0  0  0  0  0
   37.4384   18.4865   -4.0105 C   0  0  0  0  0  0  0  0  0  0  0  0
   38.0777   17.4740   -4.6951 C   0  0  0  0  0  0  0  0  0  0  0  0
   38.5630   16.4452   -3.9982 N   0  0  0  0  0  0  0  0  0  0  0  0
   39.2010   15.4230   -4.6298 C   0  0  0  0  0  0  0  0  0  0  0  0
   39.3583   15.4260   -5.9799 C   0  0  0  0  0  0  0  0  0  0  0  0
   38.8627   16.4899   -6.7539 C   0  0  0  0  0  0  0  0  0  0  0  0
   38.2264   17.4998   -6.0792 C   0  0  0  0  0  0  0  0  0  0  0  0
   37.7225   18.5623   -6.7770 C   0  0  0  0  0  0  0  0  0  0  0  0
   37.0784   19.5919   -6.1311 C   0  0  0  0  0  0  0  0  0  0  0  0
   34.9997   20.5467   -3.6291 C   0  0  0  0  0  0  0  0  0  0  0  0
   36.2997   20.5755   -4.1290 O   0  0  0  0  0  0  0  0  0  0  0  0
   40.0030   14.4035   -6.6690 N   0  0  0  0  0  0  0  0  0  0  0  0
   39.7701   14.2401   -7.7188 H   0  0  0  0  0  0  0  0  0  0  0  0
   40.9682   13.5290   -6.1013 C   0  0  0  0  0  0  0  0  0  0  0  0
   40.6346   12.3066   -5.6173 N   0  0  0  0  0  0  0  0  0  0  0  0
   41.5363   11.5499   -5.1139 C   0  0  0  0  0  0  0  0  0  0  0  0
   42.8314   12.0075   -5.0800 C   0  0  0  0  0  0  0  0  0  0  0  0
   42.6315   13.5374   -5.7994 S   0  0  0  0  0  0  0  0  0  0  0  0
   39.0469   16.4487   -8.1412 N   0  0  0  0  0  0  0  0  0  0  0  0
   40.0283   16.6596   -8.4864 H   0  0  0  0  0  0  0  0  0  0  0  0
   38.0023   16.1448   -9.0731 C   0  0  0  0  0  0  0  0  0  0  0  0
   37.4597   14.8811   -9.1346 C   0  0  0  0  0  0  0  0  0  0  0  0
   36.4405   14.5756  -10.0407 C   0  0  0  0  0  0  0  0  0  0  0  0
   35.9360   15.5197  -10.9083 C   0  0  0  0  0  0  0  0  0  0  0  0
   36.4961   16.7835  -10.8289 C   0  0  0  0  0  0  0  0  0  0  0  0
   37.5016   17.0904   -9.9369 C   0  0  0  0  0  0  0  0  0  0  0  0
   34.8603   15.2490  -11.8919 C   0  0  0  0  0  0  0  0  0  0  0  0
   35.1942   14.4860  -13.0110 N   0  0  0  0  0  0  0  0  0  0  0  0
   34.6312   13.2115  -13.1770 C   0  0  0  0  0  0  0  0  0  0  0  0
   34.6649   12.7797  -14.6229 C   0  0  0  0  0  0  0  0  0  0  0  0
   35.9715   12.8960  -15.2187 N   0  0  0  0  0  0  0  0  0  0  0  0
   36.4690   11.6766  -15.7779 C   0  0  0  0  0  0  0  0  0  0  0  0
   36.9264   13.5250  -14.3207 C   0  0  0  0  0  0  0  0  0  0  0  0
   36.3600   14.7968  -13.7257 C   0  0  0  0  0  0  0  0  0  0  0  0
   36.5701   20.6641   -6.8375 O   0  0  0  0  0  0  0  0  0  0  0  0
   37.3295   21.2303   -7.8727 C   0  0  0  0  0  0  0  0  0  0  0  0
 11 12  1  0  0  0
 12  1  1  0  0  0
  1  2  2  0  0  0
  2  3  1  0  0  0
  3  4  2  0  0  0
  4  5  1  0  0  0
  5  6  2  0  0  0
  6 13  1  0  0  0
 13 15  1  0  0  0
 15 16  2  0  0  0
 16 17  1  0  0  0
 17 18  2  0  0  0
 18 19  1  0  0  0
  6  7  1  0  0  0
  7 20  1  0  0  0
 20 22  1  0  0  0
 22 23  2  0  0  0
 23 24  1  0  0  0
 24 25  2  0  0  0
 25 28  1  0  0  0
 28 29  1  0  0  0
 29 30  1  0  0  0
 30 31  1  0  0  0
 31 32  1  0  0  0
 32 33  1  0  0  0
 32 34  1  0  0  0
 34 35  1  0  0  0
 25 26  1  0  0  0
 26 27  2  0  0  0
  7  8  2  0  0  0
  8  9  1  0  0  0
  9 10  2  0  0  0
 10 36  1  0  0  0
 36 37  1  0  0  0
 10  1  1  0  0  0
  8  3  1  0  0  0
 19 15  1  0  0  0
 27 22  1  0  0  0
 35 29  1  0  0  0
 13 14  1  0  0  0
 20 21  1  0  0  0
M  END
> <minimizedAffinity>
-6.40623

> <CNNscore>
0.0504247025

> <CNNaffinity>
5.7876467705

> <CNN_VS>
0.2918403745

> <CNNaffinity_variance>
0.4084319472

$$$$
[H]c1nc(N([H])c2c([H])nc3c([H])c(OC([H])([H])[H])c(OC([H])([H])[H])c([H])c3c2N([H])c2c([H])c([H])c(C([H])([H])N3C([H])([H])C([H])([H])N(C([H])([H])[H])C([H])([H])C3([H])[H])c([H])c2[H])sc1[H]


 37 41  0  0  0  0  0  0  0  0999 V2000
   36.7235   12.1013  -15.5550 C   0  0  0  0  0  0  0  0  0  0  0  0
   38.0903   12.2313  -15.4613 C   0  0  0  0  0  0  0  0  0  0  0  0
   38.5786   13.2471  -14.6663 C   0  0  0  0  0  0  0  0  0  0  0  0
   39.9007   13.3909  -14.5617 N   0  0  0  0  0  0  0  0  0  0  0  0
   40.4289   14.3786  -13.7895 C   0  0  0  0  0  0  0  0  0  0  0  0
   39.6254   15.2383  -13.1093 C   0  0  0  0  0  0  0  0  0  0  0  0
   38.2266   15.1237  -13.1905 C   0  0  0  0  0  0  0  0  0  0  0  0
   37.7348   14.1155  -13.9791 C   0  0  0  0  0  0  0  0  0  0  0  0
   36.3823   13.9530  -14.0982 C   0  0  0  0  0  0  0  0  0  0  0  0
   35.8559   12.9521  -14.8813 C   0  0  0  0  0  0  0  0  0  0  0  0
   36.6442   10.6915  -17.5710 C   0  0  0  0  0  0  0  0  0  0  0  0
   36.1746   11.1122  -16.3288 O   0  0  0  0  0  0  0  0  0  0  0  0
   40.1197   16.2630  -12.3081 N   0  0  0  0  0  0  0  0  0  0  0  0
   39.6972   17.2609  -12.3998 H   0  0  0  0  0  0  0  0  0  0  0  0
   41.1599   16.1119  -11.3522 C   0  0  0  0  0  0  0  0  0  0  0  0
   40.9183   16.1295  -10.0176 N   0  0  0  0  0  0  0  0  0  0  0  0
   41.8854   15.9897   -9.1905 C   0  0  0  0  0  0  0  0  0  0  0  0
   43.1549   15.8239   -9.6890 C   0  0  0  0  0  0  0  0  0  0  0  0
   42.8353   15.8858  -11.3599 S   0  0  0  0  0  0  0  0  0  0  0  0
   37.4394   16.0328  -12.4736 N   0  0  0  0  0  0  0  0  0  0  0  0
   37.3542   17.0048  -12.8916 H   0  0  0  0  0  0  0  0  0  0  0  0
   36.7724   15.7121  -11.2471 C   0  0  0  0  0  0  0  0  0  0  0  0
   35.4400   16.0102  -11.0717 C   0  0  0  0  0  0  0  0  0  0  0  0
   34.7812   15.7012   -9.8785 C   0  0  0  0  0  0  0  0  0  0  0  0
   35.4319   15.0882   -8.8300 C   0  0  0  0  0  0  0  0  0  0  0  0
   36.7710   14.7976   -9.0283 C   0  0  0  0  0  0  0  0  0  0  0  0
   37.4259   15.1000  -10.2033 C   0  0  0  0  0  0  0  0  0  0  0  0
   34.7839   14.7429   -7.5421 C   0  0  0  0  0  0  0  0  0  0  0  0
   33.6617   15.4842   -7.1718 N   0  0  0  0  0  0  0  0  0  0  0  0
   33.8258   16.7161   -6.5203 C   0  0  0  0  0  0  0  0  0  0  0  0
   32.6046   17.5887   -6.6787 C   0  0  0  0  0  0  0  0  0  0  0  0
   31.3805   16.9218   -6.3142 N   0  0  0  0  0  0  0  0  0  0  0  0
   30.6257   17.5978   -5.3040 C   0  0  0  0  0  0  0  0  0  0  0  0
   31.5965   15.5189   -6.0000 C   0  0  0  0  0  0  0  0  0  0  0  0
   32.4201   14.8397   -7.0737 C   0  0  0  0  0  0  0  0  0  0  0  0
   34.4898   12.7896  -15.0004 O   0  0  0  0  0  0  0  0  0  0  0  0
   33.6366   13.4374  -14.0942 C   0  0  0  0  0  0  0  0  0  0  0  0
 11 12  1  0  0  0
 12  1  1  0  0  0
  1  2  2  0  0  0
  2  3  1  0  0  0
  3  4  2  0  0  0
  4  5  1  0  0  0
  5  6  2  0  0  0
  6 13  1  0  0  0
 13 15  1  0  0  0
 15 16  2  0  0  0
 16 17  1  0  0  0
 17 18  2  0  0  0
 18 19  1  0  0  0
  6  7  1  0  0  0
  7 20  1  0  0  0
 20 22  1  0  0  0
 22 23  2  0  0  0
 23 24  1  0  0  0
 24 25  2  0  0  0
 25 28  1  0  0  0
 28 29  1  0  0  0
 29 30  1  0  0  0
 30 31  1  0  0  0
 31 32  1  0  0  0
 32 33  1  0  0  0
 32 34  1  0  0  0
 34 35  1  0  0  0
 25 26  1  0  0  0
 26 27  2  0  0  0
  7  8  2  0  0  0
  8  9  1  0  0  0
  9 10  2  0  0  0
 10 36  1  0  0  0
 36 37  1  0  0  0
 10  1  1  0  0  0
  8  3  1  0  0  0
 19 15  1  0  0  0
 27 22  1  0  0  0
 35 29  1  0  0  0
 13 14  1  0  0  0
 20 21  1  0  0  0
M  END
> <minimizedAffinity>
-7.84662

> <CNNscore>
0.0457151830

> <CNNaffinity>
6.1450233459

> <CNN_VS>
0.2809208632

> <CNNaffinity_variance>
0.7738040090

$$$$
[H]c1nc(N([H])c2c([H])nc3c([H])c(OC([H])([H])[H])c(OC([H])([H])[H])c([H])c3c2N([H])c2c([H])c([H])c(C([H])([H])N3C([H])([H])C([H])([H])N(C([H])([H])[H])C([H])([H])C3([H])[H])c([H])c2[H])sc1[H]


 37 41  0  0  0  0  0  0  0  0999 V2000
   43.8904   14.0227  -13.9565 C   0  0  0  0  0  0  0  0  0  0  0  0
   42.8758   13.4035  -14.6500 C   0  0  0  0  0  0  0  0  0  0  0  0
   41.5836   13.7972  -14.3711 C   0  0  0  0  0  0  0  0  0  0  0  0
   40.5849   13.2097  -15.0321 N   0  0  0  0  0  0  0  0  0  0  0  0
   39.2940   13.5647  -14.7907 C   0  0  0  0  0  0  0  0  0  0  0  0
   38.9928   14.5223  -13.8743 C   0  0  0  0  0  0  0  0  0  0  0  0
   40.0135   15.1678  -13.1546 C   0  0  0  0  0  0  0  0  0  0  0  0
   41.3004   14.7811  -13.4276 C   0  0  0  0  0  0  0  0  0  0  0  0
   42.3368   15.3723  -12.7597 C   0  0  0  0  0  0  0  0  0  0  0  0
   43.6395   15.0076  -13.0092 C   0  0  0  0  0  0  0  0  0  0  0  0
   45.6368   12.6827  -15.0577 C   0  0  0  0  0  0  0  0  0  0  0  0
   45.1964   13.6769  -14.1869 O   0  0  0  0  0  0  0  0  0  0  0  0
   37.6886   14.9179  -13.5938 N   0  0  0  0  0  0  0  0  0  0  0  0
   37.4942   15.9513  -13.3161 H   0  0  0  0  0  0  0  0  0  0  0  0
   36.5559   14.0615  -13.6409 C   0  0  0  0  0  0  0  0  0  0  0  0
   35.6399   14.1349  -14.6387 N   0  0  0  0  0  0  0  0  0  0  0  0
   34.6335   13.3436  -14.6426 C   0  0  0  0  0  0  0  0  0  0  0  0
   34.5124   12.4326  -13.6213 C   0  0  0  0  0  0  0  0  0  0  0  0
   35.9036   12.8069  -12.7144 S   0  0  0  0  0  0  0  0  0  0  0  0
   39.6551   16.1466  -12.2200 N   0  0  0  0  0  0  0  0  0  0  0  0
   39.4620   17.1144  -12.6110 H   0  0  0  0  0  0  0  0  0  0  0  0
   39.5440   15.8997  -10.8133 C   0  0  0  0  0  0  0  0  0  0  0  0
   38.4127   15.3172  -10.2882 C   0  0  0  0  0  0  0  0  0  0  0  0
   38.2955   15.0728   -8.9172 C   0  0  0  0  0  0  0  0  0  0  0  0
   39.3010   15.4022   -8.0345 C   0  0  0  0  0  0  0  0  0  0  0  0
   40.4293   15.9867   -8.5844 C   0  0  0  0  0  0  0  0  0  0  0  0
   40.5503   16.2300   -9.9361 C   0  0  0  0  0  0  0  0  0  0  0  0
   39.2274   15.1704   -6.5721 C   0  0  0  0  0  0  0  0  0  0  0  0
   38.0258   15.4808   -5.9350 N   0  0  0  0  0  0  0  0  0  0  0  0
   37.6866   16.8229   -5.7058 C   0  0  0  0  0  0  0  0  0  0  0  0
   36.1981   16.9897   -5.5199 C   0  0  0  0  0  0  0  0  0  0  0  0
   35.6467   16.0968   -4.5326 N   0  0  0  0  0  0  0  0  0  0  0  0
   34.9447   16.7572   -3.4753 C   0  0  0  0  0  0  0  0  0  0  0  0
   36.6359   15.1534   -4.0375 C   0  0  0  0  0  0  0  0  0  0  0  0
   37.3790   14.4924   -5.1791 C   0  0  0  0  0  0  0  0  0  0  0  0
   44.6849   15.6058  -12.3338 O   0  0  0  0  0  0  0  0  0  0  0  0
   44.4595   16.8004  -11.6330 C   0  0  0  0  0  0  0  0  0  0  0  0
 11 12  1  0  0  0
 12  1  1  0  0  0
  1  2  2  0  0  0
  2  3  1  0  0  0
  3  4  2  0  0  0
  4  5  1  0  0  0
  5  6  2  0  0  0
  6 13  1  0  0  0
 13 15  1  0  0  0
 15 16  2  0  0  0
 16 17  1  0  0  0
 17 18  2  0  0  0
 18 19  1  0  0  0
  6  7  1  0  0  0
  7 20  1  0  0  0
 20 22  1  0  0  0
 22 23  2  0  0  0
 23 24  1  0  0  0
 24 25  2  0  0  0
 25 28  1  0  0  0
 28 29  1  0  0  0
 29 30  1  0  0  0
 30 31  1  0  0  0
 31 32  1  0  0  0
 32 33  1  0  0  0
 32 34  1  0  0  0
 34 35  1  0  0  0
 25 26  1  0  0  0
 26 27  2  0  0  0
  7  8  2  0  0  0
  8  9  1  0  0  0
  9 10  2  0  0  0
 10 36  1  0  0  0
 36 37  1  0  0  0
 10  1  1  0  0  0
  8  3  1  0  0  0
 19 15  1  0  0  0
 27 22  1  0  0  0
 35 29  1  0  0  0
 13 14  1  0  0  0
 20 21  1  0  0  0
M  END
> <minimizedAffinity>
-7.12602

> <CNNscore>
0.0369790643

> <CNNaffinity>
5.6538453102

> <CNN_VS>
0.2090739161

> <CNNaffinity_variance>
0.6991486549

$$$$
[H]c1c([H])c(C([H])([H])[H])c(C(F)(F)F)c([H])c1C(=O)N([H])c1c([H])c([H])c(C([H])([H])N2C([H])([H])C([H])([H])N(C([H])([H])[H])C([H])([H])C2([H])[H])c(C(F)(F)F)c1[H]


 33 35  0  0  0  0  0  0  0  0999 V2000
   44.1017   13.8241  -14.6354 C   0  0  0  0  0  0  0  0  0  0  0  0
   43.0609   14.2802  -13.8617 C   0  0  0  0  0  0  0  0  0  0  0  0
   41.7573   13.8512  -14.1369 C   0  0  0  0  0  0  0  0  0  0  0  0
   41.4985   12.9860  -15.1928 C   0  0  0  0  0  0  0  0  0  0  0  0
   42.5073   12.5246  -15.9477 C   0  0  0  0  0  0  0  0  0  0  0  0
   43.8025   12.9338  -15.6551 C   0  0  0  0  0  0  0  0  0  0  0  0
   40.1543   12.8462  -15.6275 N   0  0  0  0  0  0  0  0  0  0  0  0
   39.0097   12.9643  -14.8759 C   0  0  0  0  0  0  0  0  0  0  0  0
   39.0235   13.3717  -13.7094 O   0  0  0  0  0  0  0  0  0  0  0  0
   40.0767   12.6293  -16.7247 H   0  0  0  0  0  0  0  0  0  0  0  0
   37.7232   12.5238  -15.4572 C   0  0  0  0  0  0  0  0  0  0  0  0
   37.7343   11.7666  -16.5992 C   0  0  0  0  0  0  0  0  0  0  0  0
   36.6069   11.1588  -17.1459 C   0  0  0  0  0  0  0  0  0  0  0  0
   35.4211   11.2975  -16.4918 C   0  0  0  0  0  0  0  0  0  0  0  0
   34.2199   10.6227  -17.0617 C   0  0  0  0  0  0  0  0  0  0  0  0
   35.3632   12.0346  -15.3432 C   0  0  0  0  0  0  0  0  0  0  0  0
   36.5270   12.6718  -14.8179 C   0  0  0  0  0  0  0  0  0  0  0  0
   34.1020   12.1448  -14.5600 C   0  0  0  0  0  0  0  0  0  0  0  0
   33.2824   13.1295  -15.0819 F   0  0  0  0  0  0  0  0  0  0  0  0
   34.4131   12.5457  -13.2547 F   0  0  0  0  0  0  0  0  0  0  0  0
   33.4168   10.9852  -14.4654 F   0  0  0  0  0  0  0  0  0  0  0  0
   44.9917   12.2659  -16.2811 C   0  0  0  0  0  0  0  0  0  0  0  0
   46.1420   12.2719  -15.6294 F   0  0  0  0  0  0  0  0  0  0  0  0
   44.5619   10.8723  -16.4858 F   0  0  0  0  0  0  0  0  0  0  0  0
   45.1384   12.6989  -17.5650 F   0  0  0  0  0  0  0  0  0  0  0  0
   45.3753   14.5062  -14.7883 C   0  0  0  0  0  0  0  0  0  0  0  0
   47.9181   18.6553  -12.6723 C   0  0  0  0  0  0  0  0  0  0  0  0
   47.8262   17.5695  -13.6242 N   0  0  0  0  0  0  0  0  0  0  0  0
   47.9062   16.3102  -12.9388 C   0  0  0  0  0  0  0  0  0  0  0  0
   47.3071   15.2879  -13.8614 C   0  0  0  0  0  0  0  0  0  0  0  0
   45.8787   15.5039  -14.0391 N   0  0  0  0  0  0  0  0  0  0  0  0
   45.5350   16.8382  -14.1032 C   0  0  0  0  0  0  0  0  0  0  0  0
   46.7160   17.7034  -14.5126 C   0  0  0  0  0  0  0  0  0  0  0  0
 27 28  1  0  0  0
 28 29  1  0  0  0
 29 30  1  0  0  0
 30 31  1  0  0  0
 31 26  1  0  0  0
 26  1  1  0  0  0
  1  2  2  0  0  0
  2  3  1  0  0  0
  3  4  2  0  0  0
  4  7  1  0  0  0
  7  8  1  0  0  0
  8  9  2  0  0  0
  8 11  1  0  0  0
 11 12  2  0  0  0
 12 13  1  0  0  0
 13 14  2  0  0  0
 14 15  1  0  0  0
 14 16  1  0  0  0
 16 17  2  0  0  0
 16 18  1  0  0  0
 18 19  1  0  0  0
 18 20  1  0  0  0
 18 21  1  0  0  0
  4  5  1  0  0  0
  5  6  2  0  0  0
  6 22  1  0  0  0
 22 23  1  0  0  0
 22 24  1  0  0  0
 22 25  1  0  0  0
 31 32  1  0  0  0
 32 33  1  0  0  0
 33 28  1  0  0  0
  6  1  1  0  0  0
 17 11  1  0  0  0
  7 10  1  0  0  0
M  END
> <minimizedAffinity>
-9.32181

> <CNNscore>
0.3035851717

> <CNNaffinity>
6.1102852821

> <CNN_VS>
1.8549920321

> <CNNaffinity_variance>
0.0504531637

$$$$
[H]c1c([H])c(C([H])([H])[H])c(C(F)(F)F)c([H])c1C(=O)N([H])c1c([H])c([H])c(C([H])([H])N2C([H])([H])C([H])([H])N(C([H])([H])[H])C([H])([H])C2([H])[H])c(C(F)(F)F)c1[H]


 33 35  0  0  0  0  0  0  0  0999 V2000
   44.5116   15.4597  -13.6904 C   0  0  0  0  0  0  0  0  0  0  0  0
   43.3474   16.0005  -13.1982 C   0  0  0  0  0  0  0  0  0  0  0  0
   42.1793   15.2294  -13.1876 C   0  0  0  0  0  0  0  0  0  0  0  0
   42.1758   13.9321  -13.6850 C   0  0  0  0  0  0  0  0  0  0  0  0
   43.3084   13.3891  -14.1570 C   0  0  0  0  0  0  0  0  0  0  0  0
   44.4710   14.1498  -14.1426 C   0  0  0  0  0  0  0  0  0  0  0  0
   40.9217   13.3228  -13.9523 N   0  0  0  0  0  0  0  0  0  0  0  0
   40.2361   13.2946  -15.1431 C   0  0  0  0  0  0  0  0  0  0  0  0
   40.7333   13.6917  -16.2023 O   0  0  0  0  0  0  0  0  0  0  0  0
   40.4938   12.8057  -13.0542 H   0  0  0  0  0  0  0  0  0  0  0  0
   38.8294   12.8379  -15.1484 C   0  0  0  0  0  0  0  0  0  0  0  0
   37.9315   13.4414  -14.3075 C   0  0  0  0  0  0  0  0  0  0  0  0
   36.5578   13.2147  -14.3369 C   0  0  0  0  0  0  0  0  0  0  0  0
   36.0669   12.3631  -15.2787 C   0  0  0  0  0  0  0  0  0  0  0  0
   34.5931   12.1428  -15.3286 C   0  0  0  0  0  0  0  0  0  0  0  0
   36.9231   11.7461  -16.1461 C   0  0  0  0  0  0  0  0  0  0  0  0
   38.3303   11.9726  -16.0777 C   0  0  0  0  0  0  0  0  0  0  0  0
   36.4165   10.8690  -17.2372 C   0  0  0  0  0  0  0  0  0  0  0  0
   37.4641   10.3238  -17.9575 F   0  0  0  0  0  0  0  0  0  0  0  0
   35.6837   11.6482  -18.1410 F   0  0  0  0  0  0  0  0  0  0  0  0
   35.5978    9.8845  -16.8085 F   0  0  0  0  0  0  0  0  0  0  0  0
   45.8119   13.5302  -14.4082 C   0  0  0  0  0  0  0  0  0  0  0  0
   46.6124   14.0993  -15.2932 F   0  0  0  0  0  0  0  0  0  0  0  0
   46.4764   13.5208  -13.0941 F   0  0  0  0  0  0  0  0  0  0  0  0
   45.6620   12.1973  -14.6492 F   0  0  0  0  0  0  0  0  0  0  0  0
   45.6308   16.2353  -14.1968 C   0  0  0  0  0  0  0  0  0  0  0  0
   48.4101   20.2120  -12.0474 C   0  0  0  0  0  0  0  0  0  0  0  0
   47.6316   19.6402  -13.1246 N   0  0  0  0  0  0  0  0  0  0  0  0
   48.3595   18.5640  -13.7364 C   0  0  0  0  0  0  0  0  0  0  0  0
   47.3441   17.7193  -14.4510 C   0  0  0  0  0  0  0  0  0  0  0  0
   46.4508   17.0544  -13.5136 N   0  0  0  0  0  0  0  0  0  0  0  0
   46.1169   17.8408  -12.4307 C   0  0  0  0  0  0  0  0  0  0  0  0
   46.2958   19.3197  -12.7339 C   0  0  0  0  0  0  0  0  0  0  0  0
 27 28  1  0  0  0
 28 29  1  0  0  0
 29 30  1  0  0  0
 30 31  1  0  0  0
 31 26  1  0  0  0
 26  1  1  0  0  0
  1  2  2  0  0  0
  2  3  1  0  0  0
  3  4  2  0  0  0
  4  7  1  0  0  0
  7  8  1  0  0  0
  8  9  2  0  0  0
  8 11  1  0  0  0
 11 12  2  0  0  0
 12 13  1  0  0  0
 13 14  2  0  0  0
 14 15  1  0  0  0
 14 16  1  0  0  0
 16 17  2  0  0  0
 16 18  1  0  0  0
 18 19  1  0  0  0
 18 20  1  0  0  0
 18 21  1  0  0  0
  4  5  1  0  0  0
  5  6  2  0  0  0
  6 22  1  0  0  0
 22 23  1  0  0  0
 22 24  1  0  0  0
 22 25  1  0  0  0
 31 32  1  0  0  0
 32 33  1  0  0  0
 33 28  1  0  0  0
  6  1  1  0  0  0
 17 11  1  0  0  0
  7 10  1  0  0  0
M  END
> <minimizedAffinity>
-8.26762

> <CNNscore>
0.2902341783

> <CNNaffinity>
6.0563039780

> <CNN_VS>
1.7577464581

> <CNNaffinity_variance>
0.1823030859

$$$$
[H]c1c([H])c(C([H])([H])[H])c(C(F)(F)F)c([H])c1C(=O)N([H])c1c([H])c([H])c(C([H])([H])N2C([H])([H])C([H])([H])N(C([H])([H])[H])C([H])([H])C2([H])[H])c(C(F)(F)F)c1[H]


 33 35  0  0  0  0  0  0  0  0999 V2000
   38.9217   12.6160  -15.6586 C   0  0  0  0  0  0  0  0  0  0  0  0
   39.4004   13.5999  -14.8263 C   0  0  0  0  0  0  0  0  0  0  0  0
   40.7562   13.9448  -14.8745 C   0  0  0  0  0  0  0  0  0  0  0  0
   41.6282   13.2933  -15.7381 C   0  0  0  0  0  0  0  0  0  0  0  0
   41.1706   12.3397  -16.5636 C   0  0  0  0  0  0  0  0  0  0  0  0
   39.8193   12.0181  -16.5297 C   0  0  0  0  0  0  0  0  0  0  0  0
   43.0225   13.4444  -15.5185 N   0  0  0  0  0  0  0  0  0  0  0  0
   43.6845   13.4974  -14.3151 C   0  0  0  0  0  0  0  0  0  0  0  0
   43.1233   13.2590  -13.2404 O   0  0  0  0  0  0  0  0  0  0  0  0
   43.6048   13.5079  -16.4744 H   0  0  0  0  0  0  0  0  0  0  0  0
   45.1010   13.9217  -14.2956 C   0  0  0  0  0  0  0  0  0  0  0  0
   45.4001   15.2479  -14.4670 C   0  0  0  0  0  0  0  0  0  0  0  0
   46.6728   15.7900  -14.3063 C   0  0  0  0  0  0  0  0  0  0  0  0
   47.6817   14.9594  -13.9254 C   0  0  0  0  0  0  0  0  0  0  0  0
   49.0381   15.5454  -13.7253 C   0  0  0  0  0  0  0  0  0  0  0  0
   47.4291   13.6309  -13.7321 C   0  0  0  0  0  0  0  0  0  0  0  0
   46.1222   13.0936  -13.9308 C   0  0  0  0  0  0  0  0  0  0  0  0
   48.4888   12.7074  -13.2417 C   0  0  0  0  0  0  0  0  0  0  0  0
   49.3675   12.3813  -14.2591 F   0  0  0  0  0  0  0  0  0  0  0  0
   47.8919   11.5060  -12.8399 F   0  0  0  0  0  0  0  0  0  0  0  0
   49.1764   13.1822  -12.1811 F   0  0  0  0  0  0  0  0  0  0  0  0
   39.1952   11.1588  -17.5901 C   0  0  0  0  0  0  0  0  0  0  0  0
   37.9890   11.4696  -18.0335 F   0  0  0  0  0  0  0  0  0  0  0  0
   40.1486   11.2122  -18.7112 F   0  0  0  0  0  0  0  0  0  0  0  0
   39.2748    9.8483  -17.2247 F   0  0  0  0  0  0  0  0  0  0  0  0
   37.7183   11.8407  -15.4110 C   0  0  0  0  0  0  0  0  0  0  0  0
   33.7275   14.2091  -12.8377 C   0  0  0  0  0  0  0  0  0  0  0  0
   35.1301   13.8898  -12.9926 N   0  0  0  0  0  0  0  0  0  0  0  0
   35.3408   12.4879  -12.7636 C   0  0  0  0  0  0  0  0  0  0  0  0
   36.6465   12.1436  -13.4206 C   0  0  0  0  0  0  0  0  0  0  0  0
   36.5591   12.2562  -14.8692 N   0  0  0  0  0  0  0  0  0  0  0  0
   35.7889   13.3221  -15.2855 C   0  0  0  0  0  0  0  0  0  0  0  0
   35.6818   14.3917  -14.2106 C   0  0  0  0  0  0  0  0  0  0  0  0
 27 28  1  0  0  0
 28 29  1  0  0  0
 29 30  1  0  0  0
 30 31  1  0  0  0
 31 26  1  0  0  0
 26  1  1  0  0  0
  1  2  2  0  0  0
  2  3  1  0  0  0
  3  4  2  0  0  0
  4  7  1  0  0  0
  7  8  1  0  0  0
  8  9  2  0  0  0
  8 11  1  0  0  0
 11 12  2  0  0  0
 12 13  1  0  0  0
 13 14  2  0  0  0
 14 15  1  0  0  0
 14 16  1  0  0  0
 16 17  2  0  0  0
 16 18  1  0  0  0
 18 19  1  0  0  0
 18 20  1  0  0  0
 18 21  1  0  0  0
  4  5  1  0  0  0
  5  6  2  0  0  0
  6 22  1  0  0  0
 22 23  1  0  0  0
 22 24  1  0  0  0
 22 25  1  0  0  0
 31 32  1  0  0  0
 32 33  1  0  0  0
 33 28  1  0  0  0
  6  1  1  0  0  0
 17 11  1  0  0  0
  7 10  1  0  0  0
M  END
> <minimizedAffinity>
-7.85765

> <CNNscore>
0.2518268228

> <CNNaffinity>
6.4064798355

> <CNN_VS>
1.6133234501

> <CNNaffinity_variance>
0.3832677007

$$$$
[H]c1c([H])c(C([H])([H])[H])c(C(F)(F)F)c([H])c1C(=O)N([H])c1c([H])c([H])c(C([H])([H])N2C([H])([H])C([H])([H])N(C([H])([H])[H])C([H])([H])C2([H])[H])c(C(F)(F)F)c1[H]


 33 35  0  0  0  0  0  0  0  0999 V2000
   43.4909   14.5084  -13.4344 C   0  0  0  0  0  0  0  0  0  0  0  0
   43.4584   13.5101  -14.3790 C   0  0  0  0  0  0  0  0  0  0  0  0
   42.2318   13.1221  -14.9305 C   0  0  0  0  0  0  0  0  0  0  0  0
   41.0451   13.7185  -14.5226 C   0  0  0  0  0  0  0  0  0  0  0  0
   41.0651   14.7021  -13.6101 C   0  0  0  0  0  0  0  0  0  0  0  0
   42.2876   15.1009  -13.0837 C   0  0  0  0  0  0  0  0  0  0  0  0
   39.8247   13.0762  -14.8594 N   0  0  0  0  0  0  0  0  0  0  0  0
   39.4610   12.5425  -16.0726 C   0  0  0  0  0  0  0  0  0  0  0  0
   40.2575   12.4277  -17.0102 O   0  0  0  0  0  0  0  0  0  0  0  0
   39.1180   13.0116  -13.9914 H   0  0  0  0  0  0  0  0  0  0  0  0
   38.0505   12.1548  -16.2899 C   0  0  0  0  0  0  0  0  0  0  0  0
   37.7551   11.2434  -17.2695 C   0  0  0  0  0  0  0  0  0  0  0  0
   36.4958   10.6799  -17.4598 C   0  0  0  0  0  0  0  0  0  0  0  0
   35.4986   11.0304  -16.6021 C   0  0  0  0  0  0  0  0  0  0  0  0
   34.1579   10.4049  -16.7883 C   0  0  0  0  0  0  0  0  0  0  0  0
   35.7487   11.9277  -15.6029 C   0  0  0  0  0  0  0  0  0  0  0  0
   37.0404   12.5134  -15.4457 C   0  0  0  0  0  0  0  0  0  0  0  0
   34.7051   12.2765  -14.6002 C   0  0  0  0  0  0  0  0  0  0  0  0
   33.8786   13.2780  -15.0773 F   0  0  0  0  0  0  0  0  0  0  0  0
   35.3292   12.7947  -13.4587 F   0  0  0  0  0  0  0  0  0  0  0  0
   33.9603   11.2234  -14.2008 F   0  0  0  0  0  0  0  0  0  0  0  0
   42.4133   16.3525  -12.2651 C   0  0  0  0  0  0  0  0  0  0  0  0
   43.3370   17.2390  -12.5948 F   0  0  0  0  0  0  0  0  0  0  0  0
   41.0859   16.9835  -12.3569 F   0  0  0  0  0  0  0  0  0  0  0  0
   42.4733   16.0314  -10.9420 F   0  0  0  0  0  0  0  0  0  0  0  0
   44.5544   14.6875  -12.4610 C   0  0  0  0  0  0  0  0  0  0  0  0
   47.0555   10.3209  -10.7771 C   0  0  0  0  0  0  0  0  0  0  0  0
   45.9459   10.9793  -11.4319 N   0  0  0  0  0  0  0  0  0  0  0  0
   45.1898   11.7341  -10.4724 C   0  0  0  0  0  0  0  0  0  0  0  0
   44.4166   12.7573  -11.2537 C   0  0  0  0  0  0  0  0  0  0  0  0
   45.3000   13.7416  -11.8616 N   0  0  0  0  0  0  0  0  0  0  0  0
   46.4771   13.1978  -12.3319 C   0  0  0  0  0  0  0  0  0  0  0  0
   46.3413   11.7068  -12.5956 C   0  0  0  0  0  0  0  0  0  0  0  0
 27 28  1  0  0  0
 28 29  1  0  0  0
 29 30  1  0  0  0
 30 31  1  0  0  0
 31 26  1  0  0  0
 26  1  1  0  0  0
  1  2  2  0  0  0
  2  3  1  0  0  0
  3  4  2  0  0  0
  4  7  1  0  0  0
  7  8  1  0  0  0
  8  9  2  0  0  0
  8 11  1  0  0  0
 11 12  2  0  0  0
 12 13  1  0  0  0
 13 14  2  0  0  0
 14 15  1  0  0  0
 14 16  1  0  0  0
 16 17  2  0  0  0
 16 18  1  0  0  0
 18 19  1  0  0  0
 18 20  1  0  0  0
 18 21  1  0  0  0
  4  5  1  0  0  0
  5  6  2  0  0  0
  6 22  1  0  0  0
 22 23  1  0  0  0
 22 24  1  0  0  0
 22 25  1  0  0  0
 31 32  1  0  0  0
 32 33  1  0  0  0
 33 28  1  0  0  0
  6  1  1  0  0  0
 17 11  1  0  0  0
  7 10  1  0  0  0
M  END
> <minimizedAffinity>
-8.91892

> <CNNscore>
0.2306849211

> <CNNaffinity>
6.2162880898

> <CNN_VS>
1.4340039492

> <CNNaffinity_variance>
0.0444944948

$$$$
[H]c1c([H])c(C([H])([H])[H])c(C(F)(F)F)c([H])c1C(=O)N([H])c1c([H])c([H])c(C([H])([H])N2C([H])([H])C([H])([H])N(C([H])([H])[H])C([H])([H])C2([H])[H])c(C(F)(F)F)c1[H]


 33 35  0  0  0  0  0  0  0  0999 V2000
   36.4847   12.1939  -14.9888 C   0  0  0  0  0  0  0  0  0  0  0  0
   36.6537   12.6495  -13.7028 C   0  0  0  0  0  0  0  0  0  0  0  0
   35.5304   12.9664  -12.9301 C   0  0  0  0  0  0  0  0  0  0  0  0
   34.2482   12.8451  -13.4513 C   0  0  0  0  0  0  0  0  0  0  0  0
   34.0698   12.3901  -14.7010 C   0  0  0  0  0  0  0  0  0  0  0  0
   35.1869   12.0533  -15.4556 C   0  0  0  0  0  0  0  0  0  0  0  0
   33.1833   13.4795  -12.7594 N   0  0  0  0  0  0  0  0  0  0  0  0
   33.2065   14.6871  -12.1035 C   0  0  0  0  0  0  0  0  0  0  0  0
   34.1678   15.4602  -12.1748 O   0  0  0  0  0  0  0  0  0  0  0  0
   32.2316   12.8881  -12.7979 H   0  0  0  0  0  0  0  0  0  0  0  0
   32.0722   15.0465  -11.2253 C   0  0  0  0  0  0  0  0  0  0  0  0
   30.8456   14.4821  -11.4593 C   0  0  0  0  0  0  0  0  0  0  0  0
   29.7495   14.6130  -10.6103 C   0  0  0  0  0  0  0  0  0  0  0  0
   29.9095   15.3204   -9.4584 C   0  0  0  0  0  0  0  0  0  0  0  0
   28.7440   15.4361   -8.5357 C   0  0  0  0  0  0  0  0  0  0  0  0
   31.1177   15.8925   -9.1771 C   0  0  0  0  0  0  0  0  0  0  0  0
   32.2184   15.7684  -10.0768 C   0  0  0  0  0  0  0  0  0  0  0  0
   31.3524   16.6076   -7.8926 C   0  0  0  0  0  0  0  0  0  0  0  0
   30.5958   17.7638   -7.8271 F   0  0  0  0  0  0  0  0  0  0  0  0
   32.6918   17.0128   -7.8381 F   0  0  0  0  0  0  0  0  0  0  0  0
   31.1227   15.8506   -6.7983 F   0  0  0  0  0  0  0  0  0  0  0  0
   35.0573   11.3024  -16.7485 C   0  0  0  0  0  0  0  0  0  0  0  0
   33.8480   11.0325  -17.2098 F   0  0  0  0  0  0  0  0  0  0  0  0
   35.7710   12.1379  -17.7289 F   0  0  0  0  0  0  0  0  0  0  0  0
   35.8427   10.1892  -16.7136 F   0  0  0  0  0  0  0  0  0  0  0  0
   37.4920   12.2789  -16.0322 C   0  0  0  0  0  0  0  0  0  0  0  0
   42.7378   13.0787  -16.0450 C   0  0  0  0  0  0  0  0  0  0  0  0
   41.4209   13.2637  -16.6150 N   0  0  0  0  0  0  0  0  0  0  0  0
   40.9293   12.0151  -17.1260 C   0  0  0  0  0  0  0  0  0  0  0  0
   39.4368   12.1538  -17.2174 C   0  0  0  0  0  0  0  0  0  0  0  0
   38.8306   12.2597  -15.8983 N   0  0  0  0  0  0  0  0  0  0  0  0
   39.5821   13.0046  -15.0134 C   0  0  0  0  0  0  0  0  0  0  0  0
   40.5279   13.9498  -15.7367 C   0  0  0  0  0  0  0  0  0  0  0  0
 27 28  1  0  0  0
 28 29  1  0  0  0
 29 30  1  0  0  0
 30 31  1  0  0  0
 31 26  1  0  0  0
 26  1  1  0  0  0
  1  2  2  0  0  0
  2  3  1  0  0  0
  3  4  2  0  0  0
  4  7  1  0  0  0
  7  8  1  0  0  0
  8  9  2  0  0  0
  8 11  1  0  0  0
 11 12  2  0  0  0
 12 13  1  0  0  0
 13 14  2  0  0  0
 14 15  1  0  0  0
 14 16  1  0  0  0
 16 17  2  0  0  0
 16 18  1  0  0  0
 18 19  1  0  0  0
 18 20  1  0  0  0
 18 21  1  0  0  0
  4  5  1  0  0  0
  5  6  2  0  0  0
  6 22  1  0  0  0
 22 23  1  0  0  0
 22 24  1  0  0  0
 22 25  1  0  0  0
 31 32  1  0  0  0
 32 33  1  0  0  0
 33 28  1  0  0  0
  6  1  1  0  0  0
 17 11  1  0  0  0
  7 10  1  0  0  0
M  END
> <minimizedAffinity>
-8.46753

> <CNNscore>
0.2189111263

> <CNNaffinity>
6.0769338608

> <CNN_VS>
1.3303084373

> <CNNaffinity_variance>
0.2690230012

$$$$
[H]c1c([H])c(C([H])([H])[H])c(C(F)(F)F)c([H])c1C(=O)N([H])c1c([H])c([H])c(C([H])([H])N2C([H])([H])C([H])([H])N(C([H])([H])[H])C([H])([H])C2([H])[H])c(C(F)(F)F)c1[H]


 33 35  0  0  0  0  0  0  0  0999 V2000
   39.0961   12.5838  -15.3923 C   0  0  0  0  0  0  0  0  0  0  0  0
   39.5913   13.4955  -14.4902 C   0  0  0  0  0  0  0  0  0  0  0  0
   40.9197   13.9226  -14.6000 C   0  0  0  0  0  0  0  0  0  0  0  0
   41.7499   13.4237  -15.5961 C   0  0  0  0  0  0  0  0  0  0  0  0
   41.2749   12.5427  -16.4897 C   0  0  0  0  0  0  0  0  0  0  0  0
   39.9485   12.1404  -16.3917 C   0  0  0  0  0  0  0  0  0  0  0  0
   43.1483   13.6312  -15.4660 N   0  0  0  0  0  0  0  0  0  0  0  0
   43.9041   13.5784  -14.3193 C   0  0  0  0  0  0  0  0  0  0  0  0
   43.4467   13.1784  -13.2433 O   0  0  0  0  0  0  0  0  0  0  0  0
   43.6454   13.8447  -16.4479 H   0  0  0  0  0  0  0  0  0  0  0  0
   45.2942   14.0820  -14.3545 C   0  0  0  0  0  0  0  0  0  0  0  0
   46.3127   13.2040  -14.6176 C   0  0  0  0  0  0  0  0  0  0  0  0
   47.6347   13.5828  -14.8380 C   0  0  0  0  0  0  0  0  0  0  0  0
   47.9340   14.9106  -14.8220 C   0  0  0  0  0  0  0  0  0  0  0  0
   49.3438   15.3175  -15.0865 C   0  0  0  0  0  0  0  0  0  0  0  0
   46.9490   15.8241  -14.5744 C   0  0  0  0  0  0  0  0  0  0  0  0
   45.6068   15.4097  -14.3231 C   0  0  0  0  0  0  0  0  0  0  0  0
   47.2227   17.2866  -14.6247 C   0  0  0  0  0  0  0  0  0  0  0  0
   48.1566   17.6462  -13.6696 F   0  0  0  0  0  0  0  0  0  0  0  0
   46.0482   17.9784  -14.3038 F   0  0  0  0  0  0  0  0  0  0  0  0
   47.6212   17.7244  -15.8383 F   0  0  0  0  0  0  0  0  0  0  0  0
   39.2838   11.3693  -17.4943 C   0  0  0  0  0  0  0  0  0  0  0  0
   38.0371   11.6674  -17.8181 F   0  0  0  0  0  0  0  0  0  0  0  0
   40.1502   11.5864  -18.6652 F   0  0  0  0  0  0  0  0  0  0  0  0
   39.4423   10.0328  -17.2800 F   0  0  0  0  0  0  0  0  0  0  0  0
   37.9570   11.7164  -15.1462 C   0  0  0  0  0  0  0  0  0  0  0  0
   33.5507   13.9255  -13.1806 C   0  0  0  0  0  0  0  0  0  0  0  0
   34.9875   13.7563  -13.2053 N   0  0  0  0  0  0  0  0  0  0  0  0
   35.3318   12.4338  -12.7641 C   0  0  0  0  0  0  0  0  0  0  0  0
   36.7127   12.1599  -13.2868 C   0  0  0  0  0  0  0  0  0  0  0  0
   36.7221   12.0620  -14.7390 N   0  0  0  0  0  0  0  0  0  0  0  0
   35.8737   12.9621  -15.3495 C   0  0  0  0  0  0  0  0  0  0  0  0
   35.5707   14.1485  -14.4485 C   0  0  0  0  0  0  0  0  0  0  0  0
 27 28  1  0  0  0
 28 29  1  0  0  0
 29 30  1  0  0  0
 30 31  1  0  0  0
 31 26  1  0  0  0
 26  1  1  0  0  0
  1  2  2  0  0  0
  2  3  1  0  0  0
  3  4  2  0  0  0
  4  7  1  0  0  0
  7  8  1  0  0  0
  8  9  2  0  0  0
  8 11  1  0  0  0
 11 12  2  0  0  0
 12 13  1  0  0  0
 13 14  2  0  0  0
 14 15  1  0  0  0
 14 16  1  0  0  0
 16 17  2  0  0  0
 16 18  1  0  0  0
 18 19  1  0  0  0
 18 20  1  0  0  0
 18 21  1  0  0  0
  4  5  1  0  0  0
  5  6  2  0  0  0
  6 22  1  0  0  0
 22 23  1  0  0  0
 22 24  1  0  0  0
 22 25  1  0  0  0
 31 32  1  0  0  0
 32 33  1  0  0  0
 33 28  1  0  0  0
  6  1  1  0  0  0
 17 11  1  0  0  0
  7 10  1  0  0  0
M  END
> <minimizedAffinity>
-8.28286

> <CNNscore>
0.2150264680

> <CNNaffinity>
6.2156119347

> <CNN_VS>
1.3365210295

> <CNNaffinity_variance>
0.1804714799

$$$$
[H]c1c([H])c(C([H])([H])[H])c(C(F)(F)F)c([H])c1C(=O)N([H])c1c([H])c([H])c(C([H])([H])N2C([H])([H])C([H])([H])N(C([H])([H])[H])C([H])([H])C2([H])[H])c(C(F)(F)F)c1[H]


 33 35  0  0  0  0  0  0  0  0999 V2000
   44.6046   13.9513  -13.4736 C   0  0  0  0  0  0  0  0  0  0  0  0
   44.3689   13.3005  -14.6615 C   0  0  0  0  0  0  0  0  0  0  0  0
   43.0544   13.1589  -15.1213 C   0  0  0  0  0  0  0  0  0  0  0  0
   41.9837   13.6500  -14.3846 C   0  0  0  0  0  0  0  0  0  0  0  0
   42.2018   14.2974  -13.2298 C   0  0  0  0  0  0  0  0  0  0  0  0
   43.5100   14.4573  -12.7897 C   0  0  0  0  0  0  0  0  0  0  0  0
   40.6798   13.1999  -14.7202 N   0  0  0  0  0  0  0  0  0  0  0  0
   39.5172   13.9323  -14.7471 C   0  0  0  0  0  0  0  0  0  0  0  0
   39.5063   15.1611  -14.6174 O   0  0  0  0  0  0  0  0  0  0  0  0
   40.6579   12.1152  -15.0027 H   0  0  0  0  0  0  0  0  0  0  0  0
   38.2259   13.2213  -14.8661 C   0  0  0  0  0  0  0  0  0  0  0  0
   37.1781   13.6088  -14.0726 C   0  0  0  0  0  0  0  0  0  0  0  0
   35.8770   13.1305  -14.2062 C   0  0  0  0  0  0  0  0  0  0  0  0
   35.6176   12.2441  -15.2062 C   0  0  0  0  0  0  0  0  0  0  0  0
   34.2185   11.7543  -15.3670 C   0  0  0  0  0  0  0  0  0  0  0  0
   36.6287   11.8366  -16.0294 C   0  0  0  0  0  0  0  0  0  0  0  0
   37.9601   12.3192  -15.8547 C   0  0  0  0  0  0  0  0  0  0  0  0
   36.3681   10.9288  -17.1802 C   0  0  0  0  0  0  0  0  0  0  0  0
   37.5531   10.5383  -17.7778 F   0  0  0  0  0  0  0  0  0  0  0  0
   35.6498   11.6301  -18.1566 F   0  0  0  0  0  0  0  0  0  0  0  0
   35.6394    9.8383  -16.8591 F   0  0  0  0  0  0  0  0  0  0  0  0
   43.8443   15.3836  -11.6573 C   0  0  0  0  0  0  0  0  0  0  0  0
   44.8141   16.2670  -11.8220 F   0  0  0  0  0  0  0  0  0  0  0  0
   42.5850   16.0967  -11.3850 F   0  0  0  0  0  0  0  0  0  0  0  0
   44.0067   14.6662  -10.5100 F   0  0  0  0  0  0  0  0  0  0  0  0
   45.7919   13.7700  -12.6562 C   0  0  0  0  0  0  0  0  0  0  0  0
   47.4239    9.9113   -9.3997 C   0  0  0  0  0  0  0  0  0  0  0  0
   47.2529   11.3092   -9.7312 N   0  0  0  0  0  0  0  0  0  0  0  0
   48.0967   11.6557  -10.8402 C   0  0  0  0  0  0  0  0  0  0  0  0
   47.5160   12.9041  -11.4397 C   0  0  0  0  0  0  0  0  0  0  0  0
   46.2187   12.6483  -12.0483 N   0  0  0  0  0  0  0  0  0  0  0  0
   45.4501   11.7537  -11.3330 C   0  0  0  0  0  0  0  0  0  0  0  0
   45.8817   11.6808   -9.8772 C   0  0  0  0  0  0  0  0  0  0  0  0
 27 28  1  0  0  0
 28 29  1  0  0  0
 29 30  1  0  0  0
 30 31  1  0  0  0
 31 26  1  0  0  0
 26  1  1  0  0  0
  1  2  2  0  0  0
  2  3  1  0  0  0
  3  4  2  0  0  0
  4  7  1  0  0  0
  7  8  1  0  0  0
  8  9  2  0  0  0
  8 11  1  0  0  0
 11 12  2  0  0  0
 12 13  1  0  0  0
 13 14  2  0  0  0
 14 15  1  0  0  0
 14 16  1  0  0  0
 16 17  2  0  0  0
 16 18  1  0  0  0
 18 19  1  0  0  0
 18 20  1  0  0  0
 18 21  1  0  0  0
  4  5  1  0  0  0
  5  6  2  0  0  0
  6 22  1  0  0  0
 22 23  1  0  0  0
 22 24  1  0  0  0
 22 25  1  0  0  0
 31 32  1  0  0  0
 32 33  1  0  0  0
 33 28  1  0  0  0
  6  1  1  0  0  0
 17 11  1  0  0  0
  7 10  1  0  0  0
M  END
> <minimizedAffinity>
-8.24178

> <CNNscore>
0.2076447606

> <CNNaffinity>
5.9882159233

> <CNN_VS>
1.2434216738

> <CNNaffinity_variance>
0.0775646940

$$$$
[H]c1c([H])c(C([H])([H])[H])c(C(F)(F)F)c([H])c1C(=O)N([H])c1c([H])c([H])c(C([H])([H])N2C([H])([H])C([H])([H])N(C([H])([H])[H])C([H])([H])C2([H])[H])c(C(F)(F)F)c1[H]


 33 35  0  0  0  0  0  0  0  0999 V2000
   35.8014   16.1937   -8.7101 C   0  0  0  0  0  0  0  0  0  0  0  0
   34.8515   16.1967   -9.7039 C   0  0  0  0  0  0  0  0  0  0  0  0
   35.0733   15.4585  -10.8722 C   0  0  0  0  0  0  0  0  0  0  0  0
   36.2483   14.7385  -11.0494 C   0  0  0  0  0  0  0  0  0  0  0  0
   37.1777   14.7182  -10.0818 C   0  0  0  0  0  0  0  0  0  0  0  0
   36.9420   15.4325   -8.9134 C   0  0  0  0  0  0  0  0  0  0  0  0
   36.5642   14.2873  -12.3578 N   0  0  0  0  0  0  0  0  0  0  0  0
   36.3347   13.0445  -12.8981 C   0  0  0  0  0  0  0  0  0  0  0  0
   35.6598   12.1861  -12.3197 O   0  0  0  0  0  0  0  0  0  0  0  0
   37.0415   15.0845  -12.9850 H   0  0  0  0  0  0  0  0  0  0  0  0
   36.9737   12.6945  -14.1850 C   0  0  0  0  0  0  0  0  0  0  0  0
   38.3271   12.8597  -14.3217 C   0  0  0  0  0  0  0  0  0  0  0  0
   39.0626   12.4159  -15.4179 C   0  0  0  0  0  0  0  0  0  0  0  0
   38.4052   11.7483  -16.4053 C   0  0  0  0  0  0  0  0  0  0  0  0
   39.1976   11.2480  -17.5650 C   0  0  0  0  0  0  0  0  0  0  0  0
   37.0570   11.5502  -16.3076 C   0  0  0  0  0  0  0  0  0  0  0  0
   36.3203   12.0396  -15.1878 C   0  0  0  0  0  0  0  0  0  0  0  0
   36.3175   10.7588  -17.3290 C   0  0  0  0  0  0  0  0  0  0  0  0
   35.8206   11.5810  -18.3243 F   0  0  0  0  0  0  0  0  0  0  0  0
   35.2051   10.1630  -16.7218 F   0  0  0  0  0  0  0  0  0  0  0  0
   37.0469    9.7656  -17.8810 F   0  0  0  0  0  0  0  0  0  0  0  0
   37.8050   15.2488   -7.6994 C   0  0  0  0  0  0  0  0  0  0  0  0
   38.3172   16.3180   -7.1143 F   0  0  0  0  0  0  0  0  0  0  0  0
   36.9393   14.5431   -6.7396 F   0  0  0  0  0  0  0  0  0  0  0  0
   38.7582   14.3081   -7.9519 F   0  0  0  0  0  0  0  0  0  0  0  0
   35.9437   17.2313   -7.7031 C   0  0  0  0  0  0  0  0  0  0  0  0
   36.5992   22.4909   -7.4484 C   0  0  0  0  0  0  0  0  0  0  0  0
   36.3582   21.2069   -6.8266 N   0  0  0  0  0  0  0  0  0  0  0  0
   35.0704   20.7074   -7.2190 C   0  0  0  0  0  0  0  0  0  0  0  0
   35.1018   19.2248   -6.9824 C   0  0  0  0  0  0  0  0  0  0  0  0
   36.0294   18.5613   -7.8869 N   0  0  0  0  0  0  0  0  0  0  0  0
   37.1774   19.2901   -8.1181 C   0  0  0  0  0  0  0  0  0  0  0  0
   37.4403   20.2922   -7.0057 C   0  0  0  0  0  0  0  0  0  0  0  0
 27 28  1  0  0  0
 28 29  1  0  0  0
 29 30  1  0  0  0
 30 31  1  0  0  0
 31 26  1  0  0  0
 26  1  1  0  0  0
  1  2  2  0  0  0
  2  3  1  0  0  0
  3  4  2  0  0  0
  4  7  1  0  0  0
  7  8  1  0  0  0
  8  9  2  0  0  0
  8 11  1  0  0  0
 11 12  2  0  0  0
 12 13  1  0  0  0
 13 14  2  0  0  0
 14 15  1  0  0  0
 14 16  1  0  0  0
 16 17  2  0  0  0
 16 18  1  0  0  0
 18 19  1  0  0  0
 18 20  1  0  0  0
 18 21  1  0  0  0
  4  5  1  0  0  0
  5  6  2  0  0  0
  6 22  1  0  0  0
 22 23  1  0  0  0
 22 24  1  0  0  0
 22 25  1  0  0  0
 31 32  1  0  0  0
 32 33  1  0  0  0
 33 28  1  0  0  0
  6  1  1  0  0  0
 17 11  1  0  0  0
  7 10  1  0  0  0
M  END
> <minimizedAffinity>
-8.69620

> <CNNscore>
0.2048463821

> <CNNaffinity>
5.7542390823

> <CNN_VS>
1.1787350178

> <CNNaffinity_variance>
0.2072735578

$$$$
[H]c1c([H])c(C([H])([H])[H])c(C(F)(F)F)c([H])c1C(=O)N([H])c1c([H])c([H])c(C([H])([H])N2C([H])([H])C([H])([H])N(C([H])([H])[H])C([H])([H])C2([H])[H])c(C(F)(F)F)c1[H]


 33 35  0  0  0  0  0  0  0  0999 V2000
   35.1516   15.9254   -9.0540 C   0  0  0  0  0  0  0  0  0  0  0  0
   34.3042   15.9309  -10.1366 C   0  0  0  0  0  0  0  0  0  0  0  0
   34.6687   15.2453  -11.3012 C   0  0  0  0  0  0  0  0  0  0  0  0
   35.8832   14.5756  -11.3848 C   0  0  0  0  0  0  0  0  0  0  0  0
   36.7133   14.5530  -10.3308 C   0  0  0  0  0  0  0  0  0  0  0  0
   36.3360   15.2142   -9.1685 C   0  0  0  0  0  0  0  0  0  0  0  0
   36.3434   14.1851  -12.6697 N   0  0  0  0  0  0  0  0  0  0  0  0
   36.0787   13.0142  -13.3389 C   0  0  0  0  0  0  0  0  0  0  0  0
   35.2477   12.1943  -12.9341 O   0  0  0  0  0  0  0  0  0  0  0  0
   36.9814   14.9687  -13.1554 H   0  0  0  0  0  0  0  0  0  0  0  0
   36.8637   12.6884  -14.5492 C   0  0  0  0  0  0  0  0  0  0  0  0
   38.2024   12.9796  -14.5715 C   0  0  0  0  0  0  0  0  0  0  0  0
   39.0742   12.5757  -15.5797 C   0  0  0  0  0  0  0  0  0  0  0  0
   38.5760   11.8175  -16.5945 C   0  0  0  0  0  0  0  0  0  0  0  0
   39.5154   11.3610  -17.6586 C   0  0  0  0  0  0  0  0  0  0  0  0
   37.2492   11.4929  -16.6093 C   0  0  0  0  0  0  0  0  0  0  0  0
   36.3697   11.9428  -15.5796 C   0  0  0  0  0  0  0  0  0  0  0  0
   36.6844   10.6026  -17.6604 C   0  0  0  0  0  0  0  0  0  0  0  0
   36.7601   11.2007  -18.9055 F   0  0  0  0  0  0  0  0  0  0  0  0
   35.3220   10.4058  -17.4029 F   0  0  0  0  0  0  0  0  0  0  0  0
   37.2593    9.3817  -17.7062 F   0  0  0  0  0  0  0  0  0  0  0  0
   37.0825   15.0169   -7.8816 C   0  0  0  0  0  0  0  0  0  0  0  0
   38.1985   14.3082   -7.8948 F   0  0  0  0  0  0  0  0  0  0  0  0
   37.3853   16.3829   -7.4221 F   0  0  0  0  0  0  0  0  0  0  0  0
   36.2243   14.5863   -6.9144 F   0  0  0  0  0  0  0  0  0  0  0  0
   35.1530   16.9292   -8.0038 C   0  0  0  0  0  0  0  0  0  0  0  0
   31.6169   18.2790   -4.2846 C   0  0  0  0  0  0  0  0  0  0  0  0
   32.7232   17.4749   -4.7566 N   0  0  0  0  0  0  0  0  0  0  0  0
   32.2853   16.6176   -5.8221 C   0  0  0  0  0  0  0  0  0  0  0  0
   33.5198   16.2192   -6.5788 C   0  0  0  0  0  0  0  0  0  0  0  0
   34.1152   17.3578   -7.2627 N   0  0  0  0  0  0  0  0  0  0  0  0
   34.0500   18.5255   -6.5313 C   0  0  0  0  0  0  0  0  0  0  0  0
   33.8881   18.2492   -5.0452 C   0  0  0  0  0  0  0  0  0  0  0  0
 27 28  1  0  0  0
 28 29  1  0  0  0
 29 30  1  0  0  0
 30 31  1  0  0  0
 31 26  1  0  0  0
 26  1  1  0  0  0
  1  2  2  0  0  0
  2  3  1  0  0  0
  3  4  2  0  0  0
  4  7  1  0  0  0
  7  8  1  0  0  0
  8  9  2  0  0  0
  8 11  1  0  0  0
 11 12  2  0  0  0
 12 13  1  0  0  0
 13 14  2  0  0  0
 14 15  1  0  0  0
 14 16  1  0  0  0
 16 17  2  0  0  0
 16 18  1  0  0  0
 18 19  1  0  0  0
 18 20  1  0  0  0
 18 21  1  0  0  0
  4  5  1  0  0  0
  5  6  2  0  0  0
  6 22  1  0  0  0
 22 23  1  0  0  0
 22 24  1  0  0  0
 22 25  1  0  0  0
 31 32  1  0  0  0
 32 33  1  0  0  0
 33 28  1  0  0  0
  6  1  1  0  0  0
 17 11  1  0  0  0
  7 10  1  0  0  0
M  END
> <minimizedAffinity>
-8.19563

> <CNNscore>
0.2030431777

> <CNNaffinity>
5.8299913406

> <CNN_VS>
1.1837400198

> <CNNaffinity_variance>
0.2352040112

$$$$
[H]c1c([H])c([H])c2c(c1[H])C(N1C([H])([H])C([H])([H])N(C([H])([H])[H])C([H])([H])C1([H])[H])=Nc1c([H])c(Cl)c([H])c([H])c1N2[H]


 24 27  0  0  0  0  0  0  0  0999 V2000
   38.7642   12.9366  -14.8793 C   0  0  0  0  0  0  0  0  0  0  0  0
   39.8325   13.4381  -14.3045 N   0  0  0  0  0  0  0  0  0  0  0  0
   41.1978   13.4385  -14.6861 C   0  0  0  0  0  0  0  0  0  0  0  0
   42.0780   13.8387  -13.7026 C   0  0  0  0  0  0  0  0  0  0  0  0
   43.4422   13.9039  -13.8992 C   0  0  0  0  0  0  0  0  0  0  0  0
   44.5191   14.4197  -12.6144 Cl  0  0  0  0  0  0  0  0  0  0  0  0
   43.9872   13.5611  -15.1212 C   0  0  0  0  0  0  0  0  0  0  0  0
   43.1114   13.1552  -16.1236 C   0  0  0  0  0  0  0  0  0  0  0  0
   41.7529   13.0941  -15.9156 C   0  0  0  0  0  0  0  0  0  0  0  0
   41.0452   12.6475  -17.0810 N   0  0  0  0  0  0  0  0  0  0  0  0
   39.7392   12.0858  -17.1132 C   0  0  0  0  0  0  0  0  0  0  0  0
   39.5871   11.3673  -18.2735 C   0  0  0  0  0  0  0  0  0  0  0  0
   38.3724   10.7467  -18.4580 C   0  0  0  0  0  0  0  0  0  0  0  0
   37.3570   10.8374  -17.5301 C   0  0  0  0  0  0  0  0  0  0  0  0
   37.5584   11.5813  -16.3618 C   0  0  0  0  0  0  0  0  0  0  0  0
   38.7505   12.2149  -16.1382 C   0  0  0  0  0  0  0  0  0  0  0  0
   41.5489   12.7458  -17.9936 H   0  0  0  0  0  0  0  0  0  0  0  0
   33.8458   13.9045  -13.2850 C   0  0  0  0  0  0  0  0  0  0  0  0
   35.1713   13.6715  -12.7963 N   0  0  0  0  0  0  0  0  0  0  0  0
   36.1134   14.6997  -13.1131 C   0  0  0  0  0  0  0  0  0  0  0  0
   36.7560   14.3069  -14.4520 C   0  0  0  0  0  0  0  0  0  0  0  0
   37.5387   13.1243  -14.2105 N   0  0  0  0  0  0  0  0  0  0  0  0
   37.0712   12.1530  -13.2648 C   0  0  0  0  0  0  0  0  0  0  0  0
   35.6316   12.3317  -12.9041 C   0  0  0  0  0  0  0  0  0  0  0  0
 18 19  1  0  0  0
 19 20  1  0  0  0
 20 21  1  0  0  0
 21 22  1  0  0  0
 22 23  1  0  0  0
 23 24  1  0  0  0
 22  1  1  0  0  0
  1  2  2  0  0  0
  2  3  1  0  0  0
  3  4  2  0  0  0
  4  5  1  0  0  0
  5  6  1  0  0  0
  5  7  2  0  0  0
  7  8  1  0  0  0
  8  9  2  0  0  0
  9 10  1  0  0  0
 10 11  1  0  0  0
 11 12  2  0  0  0
 12 13  1  0  0  0
 13 14  2  0  0  0
 14 15  1  0  0  0
 15 16  2  0  0  0
 24 19  1  0  0  0
 16  1  1  0  0  0
  9  3  1  0  0  0
 16 11  1  0  0  0
 10 17  1  0  0  0
M  END
> <minimizedAffinity>
-9.63972

> <CNNscore>
0.7456192374

> <CNNaffinity>
6.7571630478

> <CNN_VS>
5.0382709503

> <CNNaffinity_variance>
0.0802820623

$$$$
[H]c1c([H])c([H])c2c(c1[H])C(N1C([H])([H])C([H])([H])N(C([H])([H])[H])C([H])([H])C1([H])[H])=Nc1c([H])c(Cl)c([H])c([H])c1N2[H]


 24 27  0  0  0  0  0  0  0  0999 V2000
   38.8193   13.3155  -14.4698 C   0  0  0  0  0  0  0  0  0  0  0  0
   40.0308   13.6849  -14.1250 N   0  0  0  0  0  0  0  0  0  0  0  0
   41.3003   13.4036  -14.6896 C   0  0  0  0  0  0  0  0  0  0  0  0
   42.3784   13.7531  -13.9038 C   0  0  0  0  0  0  0  0  0  0  0  0
   43.6867   13.5564  -14.2959 C   0  0  0  0  0  0  0  0  0  0  0  0
   45.0229   14.0190  -13.2580 Cl  0  0  0  0  0  0  0  0  0  0  0  0
   43.9683   12.9871  -15.5224 C   0  0  0  0  0  0  0  0  0  0  0  0
   42.8905   12.6291  -16.3267 C   0  0  0  0  0  0  0  0  0  0  0  0
   41.5903   12.8301  -15.9247 C   0  0  0  0  0  0  0  0  0  0  0  0
   40.6439   12.3843  -16.9065 N   0  0  0  0  0  0  0  0  0  0  0  0
   39.2785   12.0593  -16.6780 C   0  0  0  0  0  0  0  0  0  0  0  0
   38.8323   11.2512  -17.6946 C   0  0  0  0  0  0  0  0  0  0  0  0
   37.5222   10.8353  -17.6199 C   0  0  0  0  0  0  0  0  0  0  0  0
   36.6957   11.2068  -16.5810 C   0  0  0  0  0  0  0  0  0  0  0  0
   37.1953   12.0320  -15.5670 C   0  0  0  0  0  0  0  0  0  0  0  0
   38.4916   12.4690  -15.6020 C   0  0  0  0  0  0  0  0  0  0  0  0
   41.0035   12.2889  -17.8853 H   0  0  0  0  0  0  0  0  0  0  0  0
   35.4447   14.7909  -10.7142 C   0  0  0  0  0  0  0  0  0  0  0  0
   35.5444   14.5661  -12.1247 N   0  0  0  0  0  0  0  0  0  0  0  0
   35.7611   13.2026  -12.4978 C   0  0  0  0  0  0  0  0  0  0  0  0
   37.2828   13.0033  -12.5632 C   0  0  0  0  0  0  0  0  0  0  0  0
   37.7614   13.7891  -13.6692 N   0  0  0  0  0  0  0  0  0  0  0  0
   37.1345   15.0450  -13.9625 C   0  0  0  0  0  0  0  0  0  0  0  0
   36.2770   15.5470  -12.8457 C   0  0  0  0  0  0  0  0  0  0  0  0
 18 19  1  0  0  0
 19 20  1  0  0  0
 20 21  1  0  0  0
 21 22  1  0  0  0
 22 23  1  0  0  0
 23 24  1  0  0  0
 22  1  1  0  0  0
  1  2  2  0  0  0
  2  3  1  0  0  0
  3  4  2  0  0  0
  4  5  1  0  0  0
  5  6  1  0  0  0
  5  7  2  0  0  0
  7  8  1  0  0  0
  8  9  2  0  0  0
  9 10  1  0  0  0
 10 11  1  0  0  0
 11 12  2  0  0  0
 12 13  1  0  0  0
 13 14  2  0  0  0
 14 15  1  0  0  0
 15 16  2  0  0  0
 24 19  1  0  0  0
 16  1  1  0  0  0
  9  3  1  0  0  0
 16 11  1  0  0  0
 10 17  1  0  0  0
M  END
> <minimizedAffinity>
-8.69758

> <CNNscore>
0.4716457725

> <CNNaffinity>
6.3129568100

> <CNN_VS>
2.9774794579

> <CNNaffinity_variance>
0.0534218177

$$$$
[H]c1c([H])c([H])c2c(c1[H])C(N1C([H])([H])C([H])([H])N(C([H])([H])[H])C([H])([H])C1([H])[H])=Nc1c([H])c(Cl)c([H])c([H])c1N2[H]


 24 27  0  0  0  0  0  0  0  0999 V2000
   37.1794   13.4809  -13.9337 C   0  0  0  0  0  0  0  0  0  0  0  0
   38.4520   13.6139  -14.2269 N   0  0  0  0  0  0  0  0  0  0  0  0
   39.2446   13.0615  -15.2643 C   0  0  0  0  0  0  0  0  0  0  0  0
   40.6054   13.2196  -15.1056 C   0  0  0  0  0  0  0  0  0  0  0  0
   41.5262   12.7492  -16.0194 C   0  0  0  0  0  0  0  0  0  0  0  0
   43.2475   12.9765  -15.7702 Cl  0  0  0  0  0  0  0  0  0  0  0  0
   41.1043   12.0858  -17.1550 C   0  0  0  0  0  0  0  0  0  0  0  0
   39.7337   11.9185  -17.3290 C   0  0  0  0  0  0  0  0  0  0  0  0
   38.8254   12.3919  -16.4107 C   0  0  0  0  0  0  0  0  0  0  0  0
   37.4715   12.1053  -16.7895 N   0  0  0  0  0  0  0  0  0  0  0  0
   36.3418   12.0697  -15.9266 C   0  0  0  0  0  0  0  0  0  0  0  0
   35.3487   11.3269  -16.5161 C   0  0  0  0  0  0  0  0  0  0  0  0
   34.1804   11.1851  -15.8022 C   0  0  0  0  0  0  0  0  0  0  0  0
   34.0096   11.7563  -14.5593 C   0  0  0  0  0  0  0  0  0  0  0  0
   35.0505   12.5052  -13.9985 C   0  0  0  0  0  0  0  0  0  0  0  0
   36.2289   12.6720  -14.6739 C   0  0  0  0  0  0  0  0  0  0  0  0
   37.3088   11.9001  -17.8033 H   0  0  0  0  0  0  0  0  0  0  0  0
   34.5245   15.9168  -10.1012 C   0  0  0  0  0  0  0  0  0  0  0  0
   35.8353   15.7748  -10.6595 N   0  0  0  0  0  0  0  0  0  0  0  0
   35.9836   16.3091  -11.9777 C   0  0  0  0  0  0  0  0  0  0  0  0
   35.6650   15.1651  -12.9520 C   0  0  0  0  0  0  0  0  0  0  0  0
   36.7119   14.1888  -12.8090 N   0  0  0  0  0  0  0  0  0  0  0  0
   37.2904   13.9628  -11.5165 C   0  0  0  0  0  0  0  0  0  0  0  0
   36.4741   14.5322  -10.4012 C   0  0  0  0  0  0  0  0  0  0  0  0
 18 19  1  0  0  0
 19 20  1  0  0  0
 20 21  1  0  0  0
 21 22  1  0  0  0
 22 23  1  0  0  0
 23 24  1  0  0  0
 22  1  1  0  0  0
  1  2  2  0  0  0
  2  3  1  0  0  0
  3  4  2  0  0  0
  4  5  1  0  0  0
  5  6  1  0  0  0
  5  7  2  0  0  0
  7  8  1  0  0  0
  8  9  2  0  0  0
  9 10  1  0  0  0
 10 11  1  0  0  0
 11 12  2  0  0  0
 12 13  1  0  0  0
 13 14  2  0  0  0
 14 15  1  0  0  0
 15 16  2  0  0  0
 24 19  1  0  0  0
 16  1  1  0  0  0
  9  3  1  0  0  0
 16 11  1  0  0  0
 10 17  1  0  0  0
M  END
> <minimizedAffinity>
-8.62377

> <CNNscore>
0.4205212891

> <CNNaffinity>
6.3680453300

> <CNN_VS>
2.6778986454

> <CNNaffinity_variance>
0.0617486350

$$$$
[H]c1c([H])c([H])c2c(c1[H])C(N1C([H])([H])C([H])([H])N(C([H])([H])[H])C([H])([H])C1([H])[H])=Nc1c([H])c(Cl)c([H])c([H])c1N2[H]


 24 27  0  0  0  0  0  0  0  0999 V2000
   37.1009   13.9652  -13.0670 C   0  0  0  0  0  0  0  0  0  0  0  0
   36.2039   13.2502  -13.7051 N   0  0  0  0  0  0  0  0  0  0  0  0
   36.2847   12.4679  -14.8845 C   0  0  0  0  0  0  0  0  0  0  0  0
   35.0712   12.0659  -15.4019 C   0  0  0  0  0  0  0  0  0  0  0  0
   34.9605   11.2958  -16.5416 C   0  0  0  0  0  0  0  0  0  0  0  0
   33.3918   10.8110  -17.1587 Cl  0  0  0  0  0  0  0  0  0  0  0  0
   36.0926   10.8904  -17.2212 C   0  0  0  0  0  0  0  0  0  0  0  0
   37.3247   11.2884  -16.7110 C   0  0  0  0  0  0  0  0  0  0  0  0
   37.4222   12.0565  -15.5739 C   0  0  0  0  0  0  0  0  0  0  0  0
   38.7846   12.3510  -15.2334 N   0  0  0  0  0  0  0  0  0  0  0  0
   39.2381   13.4155  -14.4069 C   0  0  0  0  0  0  0  0  0  0  0  0
   40.5597   13.6671  -14.6822 C   0  0  0  0  0  0  0  0  0  0  0  0
   41.1541   14.6831  -13.9687 C   0  0  0  0  0  0  0  0  0  0  0  0
   40.4642   15.4143  -13.0254 C   0  0  0  0  0  0  0  0  0  0  0  0
   39.1180   15.1215  -12.7790 C   0  0  0  0  0  0  0  0  0  0  0  0
   38.4878   14.1193  -13.4653 C   0  0  0  0  0  0  0  0  0  0  0  0
   39.5104   11.7157  -15.6407 H   0  0  0  0  0  0  0  0  0  0  0  0
   34.5747   16.3413   -9.1120 C   0  0  0  0  0  0  0  0  0  0  0  0
   35.8814   16.1257   -9.6563 N   0  0  0  0  0  0  0  0  0  0  0  0
   36.1063   16.7387  -10.9286 C   0  0  0  0  0  0  0  0  0  0  0  0
   35.7138   15.7001  -11.9902 C   0  0  0  0  0  0  0  0  0  0  0  0
   36.6693   14.6283  -11.9015 N   0  0  0  0  0  0  0  0  0  0  0  0
   37.1954   14.2600  -10.6193 C   0  0  0  0  0  0  0  0  0  0  0  0
   36.4047   14.8167   -9.4794 C   0  0  0  0  0  0  0  0  0  0  0  0
 18 19  1  0  0  0
 19 20  1  0  0  0
 20 21  1  0  0  0
 21 22  1  0  0  0
 22 23  1  0  0  0
 23 24  1  0  0  0
 22  1  1  0  0  0
  1  2  2  0  0  0
  2  3  1  0  0  0
  3  4  2  0  0  0
  4  5  1  0  0  0
  5  6  1  0  0  0
  5  7  2  0  0  0
  7  8  1  0  0  0
  8  9  2  0  0  0
  9 10  1  0  0  0
 10 11  1  0  0  0
 11 12  2  0  0  0
 12 13  1  0  0  0
 13 14  2  0  0  0
 14 15  1  0  0  0
 15 16  2  0  0  0
 24 19  1  0  0  0
 16  1  1  0  0  0
  9  3  1  0  0  0
 16 11  1  0  0  0
 10 17  1  0  0  0
M  END
> <minimizedAffinity>
-8.38875

> <CNNscore>
0.4072577953

> <CNNaffinity>
6.0226869583

> <CNN_VS>
2.4527862072

> <CNNaffinity_variance>
0.0787416697

$$$$
[H]c1c([H])c([H])c2c(c1[H])C(N1C([H])([H])C([H])([H])N(C([H])([H])[H])C([H])([H])C1([H])[H])=Nc1c([H])c(Cl)c([H])c([H])c1N2[H]


 24 27  0  0  0  0  0  0  0  0999 V2000
   37.4059   13.8636  -13.6581 C   0  0  0  0  0  0  0  0  0  0  0  0
   38.6685   13.9428  -14.0084 N   0  0  0  0  0  0  0  0  0  0  0  0
   39.4022   13.3122  -15.0445 C   0  0  0  0  0  0  0  0  0  0  0  0
   40.7723   13.4380  -14.9487 C   0  0  0  0  0  0  0  0  0  0  0  0
   41.6412   12.8921  -15.8712 C   0  0  0  0  0  0  0  0  0  0  0  0
   43.3770   13.0810  -15.7032 Cl  0  0  0  0  0  0  0  0  0  0  0  0
   41.1548   12.1817  -16.9513 C   0  0  0  0  0  0  0  0  0  0  0  0
   39.7742   12.0462  -17.0614 C   0  0  0  0  0  0  0  0  0  0  0  0
   38.9178   12.5950  -16.1351 C   0  0  0  0  0  0  0  0  0  0  0  0
   37.5421   12.3289  -16.4438 N   0  0  0  0  0  0  0  0  0  0  0  0
   36.4484   12.3733  -15.5362 C   0  0  0  0  0  0  0  0  0  0  0  0
   35.4117   11.6299  -16.0443 C   0  0  0  0  0  0  0  0  0  0  0  0
   34.2703   11.5614  -15.2780 C   0  0  0  0  0  0  0  0  0  0  0  0
   34.1666   12.2032  -14.0624 C   0  0  0  0  0  0  0  0  0  0  0  0
   35.2500   12.9497  -13.5851 C   0  0  0  0  0  0  0  0  0  0  0  0
   36.4038   13.0449  -14.3147 C   0  0  0  0  0  0  0  0  0  0  0  0
   37.3322   12.0748  -17.4376 H   0  0  0  0  0  0  0  0  0  0  0  0
   36.8713   16.7205   -9.2738 C   0  0  0  0  0  0  0  0  0  0  0  0
   36.1175   16.0333  -10.2787 N   0  0  0  0  0  0  0  0  0  0  0  0
   36.2789   14.6124  -10.2782 C   0  0  0  0  0  0  0  0  0  0  0  0
   37.4449   14.3041  -11.2295 C   0  0  0  0  0  0  0  0  0  0  0  0
   37.0048   14.6443  -12.5562 N   0  0  0  0  0  0  0  0  0  0  0  0
   36.1348   15.7691  -12.7414 C   0  0  0  0  0  0  0  0  0  0  0  0
   36.0780   16.6687  -11.5489 C   0  0  0  0  0  0  0  0  0  0  0  0
 18 19  1  0  0  0
 19 20  1  0  0  0
 20 21  1  0  0  0
 21 22  1  0  0  0
 22 23  1  0  0  0
 23 24  1  0  0  0
 22  1  1  0  0  0
  1  2  2  0  0  0
  2  3  1  0  0  0
  3  4  2  0  0  0
  4  5  1  0  0  0
  5  6  1  0  0  0
  5  7  2  0  0  0
  7  8  1  0  0  0
  8  9  2  0  0  0
  9 10  1  0  0  0
 10 11  1  0  0  0
 11 12  2  0  0  0
 12 13  1  0  0  0
 13 14  2  0  0  0
 14 15  1  0  0  0
 15 16  2  0  0  0
 24 19  1  0  0  0
 16  1  1  0  0  0
  9  3  1  0  0  0
 16 11  1  0  0  0
 10 17  1  0  0  0
M  END
> <minimizedAffinity>
-8.49536

> <CNNscore>
0.3440680206

> <CNNaffinity>
6.1614003181

> <CNN_VS>
2.1199407578

> <CNNaffinity_variance>
0.0847550631

$$$$
[H]c1c([H])c([H])c2c(c1[H])C(N1C([H])([H])C([H])([H])N(C([H])([H])[H])C([H])([H])C1([H])[H])=Nc1c([H])c(Cl)c([H])c([H])c1N2[H]


 24 27  0  0  0  0  0  0  0  0999 V2000
   38.6529   13.9181  -13.8947 C   0  0  0  0  0  0  0  0  0  0  0  0
   38.6963   13.1398  -14.9507 N   0  0  0  0  0  0  0  0  0  0  0  0
   39.7660   12.7582  -15.7990 C   0  0  0  0  0  0  0  0  0  0  0  0
   39.3882   12.1302  -16.9674 C   0  0  0  0  0  0  0  0  0  0  0  0
   40.2961   11.6870  -17.9074 C   0  0  0  0  0  0  0  0  0  0  0  0
   39.7630   10.8937  -19.3782 Cl  0  0  0  0  0  0  0  0  0  0  0  0
   41.6510   11.8622  -17.7042 C   0  0  0  0  0  0  0  0  0  0  0  0
   42.0476   12.4943  -16.5296 C   0  0  0  0  0  0  0  0  0  0  0  0
   41.1329   12.9320  -15.5998 C   0  0  0  0  0  0  0  0  0  0  0  0
   41.7625   13.5562  -14.4717 N   0  0  0  0  0  0  0  0  0  0  0  0
   41.1545   14.4595  -13.5572 C   0  0  0  0  0  0  0  0  0  0  0  0
   42.1329   15.1899  -12.9287 C   0  0  0  0  0  0  0  0  0  0  0  0
   41.7093   16.1241  -12.0109 C   0  0  0  0  0  0  0  0  0  0  0  0
   40.3737   16.3216  -11.7323 C   0  0  0  0  0  0  0  0  0  0  0  0
   39.4121   15.5531  -12.3983 C   0  0  0  0  0  0  0  0  0  0  0  0
   39.7891   14.6128  -13.3182 C   0  0  0  0  0  0  0  0  0  0  0  0
   42.7705   13.3197  -14.3156 H   0  0  0  0  0  0  0  0  0  0  0  0
   33.6809   14.8987  -12.4847 C   0  0  0  0  0  0  0  0  0  0  0  0
   34.9666   14.5650  -11.9501 N   0  0  0  0  0  0  0  0  0  0  0  0
   35.9583   15.5843  -12.1008 C   0  0  0  0  0  0  0  0  0  0  0  0
   36.6673   15.3111  -13.4359 C   0  0  0  0  0  0  0  0  0  0  0  0
   37.3960   14.0806  -13.2796 N   0  0  0  0  0  0  0  0  0  0  0  0
   36.8419   13.0333  -12.4719 C   0  0  0  0  0  0  0  0  0  0  0  0
   35.3896   13.2275  -12.1757 C   0  0  0  0  0  0  0  0  0  0  0  0
 18 19  1  0  0  0
 19 20  1  0  0  0
 20 21  1  0  0  0
 21 22  1  0  0  0
 22 23  1  0  0  0
 23 24  1  0  0  0
 22  1  1  0  0  0
  1  2  2  0  0  0
  2  3  1  0  0  0
  3  4  2  0  0  0
  4  5  1  0  0  0
  5  6  1  0  0  0
  5  7  2  0  0  0
  7  8  1  0  0  0
  8  9  2  0  0  0
  9 10  1  0  0  0
 10 11  1  0  0  0
 11 12  2  0  0  0
 12 13  1  0  0  0
 13 14  2  0  0  0
 14 15  1  0  0  0
 15 16  2  0  0  0
 24 19  1  0  0  0
 16  1  1  0  0  0
  9  3  1  0  0  0
 16 11  1  0  0  0
 10 17  1  0  0  0
M  END
> <minimizedAffinity>
-7.73705

> <CNNscore>
0.2813594639

> <CNNaffinity>
5.9577035904

> <CNN_VS>
1.6762562990

> <CNNaffinity_variance>
0.0218360536

$$$$
[H]c1c([H])c([H])c2c(c1[H])C(N1C([H])([H])C([H])([H])N(C([H])([H])[H])C([H])([H])C1([H])[H])=Nc1c([H])c(Cl)c([H])c([H])c1N2[H]


 24 27  0  0  0  0  0  0  0  0999 V2000
   38.2911   14.4388  -12.9230 C   0  0  0  0  0  0  0  0  0  0  0  0
   37.7834   13.5909  -13.7869 N   0  0  0  0  0  0  0  0  0  0  0  0
   38.3509   12.9270  -14.9036 C   0  0  0  0  0  0  0  0  0  0  0  0
   37.4433   12.3068  -15.7364 C   0  0  0  0  0  0  0  0  0  0  0  0
   37.8180   11.6104  -16.8672 C   0  0  0  0  0  0  0  0  0  0  0  0
   36.6231   10.8391  -17.8938 Cl  0  0  0  0  0  0  0  0  0  0  0  0
   39.1515   11.5082  -17.2126 C   0  0  0  0  0  0  0  0  0  0  0  0
   40.0793   12.1291  -16.3816 C   0  0  0  0  0  0  0  0  0  0  0  0
   39.6934   12.8207  -15.2568 C   0  0  0  0  0  0  0  0  0  0  0  0
   40.8119   13.3807  -14.5540 N   0  0  0  0  0  0  0  0  0  0  0  0
   40.7745   14.4596  -13.6285 C   0  0  0  0  0  0  0  0  0  0  0  0
   42.0283   15.0108  -13.5292 C   0  0  0  0  0  0  0  0  0  0  0  0
   42.1639   16.0808  -12.6740 C   0  0  0  0  0  0  0  0  0  0  0  0
   41.1003   16.5786  -11.9518 C   0  0  0  0  0  0  0  0  0  0  0  0
   39.8405   15.9838  -12.0860 C   0  0  0  0  0  0  0  0  0  0  0  0
   39.6610   14.9176  -12.9246 C   0  0  0  0  0  0  0  0  0  0  0  0
   41.7448   12.9478  -14.7503 H   0  0  0  0  0  0  0  0  0  0  0  0
   34.3339   15.9781   -9.8180 C   0  0  0  0  0  0  0  0  0  0  0  0
   35.7573   16.0448   -9.9585 N   0  0  0  0  0  0  0  0  0  0  0  0
   36.2109   16.7963  -11.0875 C   0  0  0  0  0  0  0  0  0  0  0  0
   36.3459   15.8012  -12.2499 C   0  0  0  0  0  0  0  0  0  0  0  0
   37.4259   14.9112  -11.9168 N   0  0  0  0  0  0  0  0  0  0  0  0
   37.6271   14.5313  -10.5487 C   0  0  0  0  0  0  0  0  0  0  0  0
   36.4527   14.8384   -9.6763 C   0  0  0  0  0  0  0  0  0  0  0  0
 18 19  1  0  0  0
 19 20  1  0  0  0
 20 21  1  0  0  0
 21 22  1  0  0  0
 22 23  1  0  0  0
 23 24  1  0  0  0
 22  1  1  0  0  0
  1  2  2  0  0  0
  2  3  1  0  0  0
  3  4  2  0  0  0
  4  5  1  0  0  0
  5  6  1  0  0  0
  5  7  2  0  0  0
  7  8  1  0  0  0
  8  9  2  0  0  0
  9 10  1  0  0  0
 10 11  1  0  0  0
 11 12  2  0  0  0
 12 13  1  0  0  0
 13 14  2  0  0  0
 14 15  1  0  0  0
 15 16  2  0  0  0
 24 19  1  0  0  0
 16  1  1  0  0  0
  9  3  1  0  0  0
 16 11  1  0  0  0
 10 17  1  0  0  0
M  END
> <minimizedAffinity>
-7.62064

> <CNNscore>
0.2759798765

> <CNNaffinity>
5.6945333481

> <CNN_VS>
1.5715765953

> <CNNaffinity_variance>
0.0335373469

$$$$
[H]c1c([H])c([H])c2c(c1[H])C(N1C([H])([H])C([H])([H])N(C([H])([H])[H])C([H])([H])C1([H])[H])=Nc1c([H])c(Cl)c([H])c([H])c1N2[H]


 24 27  0  0  0  0  0  0  0  0999 V2000
   38.7260   13.7102  -14.4754 C   0  0  0  0  0  0  0  0  0  0  0  0
   37.8889   12.9810  -15.1759 N   0  0  0  0  0  0  0  0  0  0  0  0
   36.4855   12.8037  -15.0835 C   0  0  0  0  0  0  0  0  0  0  0  0
   35.9800   11.7566  -15.8252 C   0  0  0  0  0  0  0  0  0  0  0  0
   34.6371   11.4409  -15.8577 C   0  0  0  0  0  0  0  0  0  0  0  0
   34.0451   10.0977  -16.8181 Cl  0  0  0  0  0  0  0  0  0  0  0  0
   33.7289   12.1833  -15.1284 C   0  0  0  0  0  0  0  0  0  0  0  0
   34.2242   13.2433  -14.3749 C   0  0  0  0  0  0  0  0  0  0  0  0
   35.5654   13.5483  -14.3504 C   0  0  0  0  0  0  0  0  0  0  0  0
   35.8505   14.6734  -13.5070 N   0  0  0  0  0  0  0  0  0  0  0  0
   37.1089   15.0009  -12.9314 C   0  0  0  0  0  0  0  0  0  0  0  0
   36.9086   15.8246  -11.8510 C   0  0  0  0  0  0  0  0  0  0  0  0
   38.0339   16.2305  -11.1700 C   0  0  0  0  0  0  0  0  0  0  0  0
   39.2992   15.8343  -11.5474 C   0  0  0  0  0  0  0  0  0  0  0  0
   39.4539   14.9938  -12.6558 C   0  0  0  0  0  0  0  0  0  0  0  0
   38.3623   14.5667  -13.3619 C   0  0  0  0  0  0  0  0  0  0  0  0
   35.0458   15.3096  -13.2973 H   0  0  0  0  0  0  0  0  0  0  0  0
   43.8360   12.7124  -15.2254 C   0  0  0  0  0  0  0  0  0  0  0  0
   42.8234   13.6935  -15.4749 N   0  0  0  0  0  0  0  0  0  0  0  0
   42.3091   14.3316  -14.3029 C   0  0  0  0  0  0  0  0  0  0  0  0
   41.1030   13.4980  -13.8444 C   0  0  0  0  0  0  0  0  0  0  0  0
   40.0832   13.6490  -14.8478 N   0  0  0  0  0  0  0  0  0  0  0  0
   40.4640   13.7618  -16.2257 C   0  0  0  0  0  0  0  0  0  0  0  0
   41.8784   13.3494  -16.4785 C   0  0  0  0  0  0  0  0  0  0  0  0
 18 19  1  0  0  0
 19 20  1  0  0  0
 20 21  1  0  0  0
 21 22  1  0  0  0
 22 23  1  0  0  0
 23 24  1  0  0  0
 22  1  1  0  0  0
  1  2  2  0  0  0
  2  3  1  0  0  0
  3  4  2  0  0  0
  4  5  1  0  0  0
  5  6  1  0  0  0
  5  7  2  0  0  0
  7  8  1  0  0  0
  8  9  2  0  0  0
  9 10  1  0  0  0
 10 11  1  0  0  0
 11 12  2  0  0  0
 12 13  1  0  0  0
 13 14  2  0  0  0
 14 15  1  0  0  0
 15 16  2  0  0  0
 24 19  1  0  0  0
 16  1  1  0  0  0
  9  3  1  0  0  0
 16 11  1  0  0  0
 10 17  1  0  0  0
M  END
> <minimizedAffinity>
-6.94708

> <CNNscore>
0.2728679776

> <CNNaffinity>
6.1574239731

> <CNN_VS>
1.6801638603

> <CNNaffinity_variance>
0.0518305488

$$$$
[H]c1c([H])c([H])c2c(c1[H])C(N1C([H])([H])C([H])([H])N(C([H])([H])[H])C([H])([H])C1([H])[H])=Nc1c([H])c(Cl)c([H])c([H])c1N2[H]


 24 27  0  0  0  0  0  0  0  0999 V2000
   35.8964   15.3428  -11.1607 C   0  0  0  0  0  0  0  0  0  0  0  0
   36.5802   14.7336  -12.1010 N   0  0  0  0  0  0  0  0  0  0  0  0
   36.1696   14.0030  -13.2443 C   0  0  0  0  0  0  0  0  0  0  0  0
   37.1684   13.2836  -13.8663 C   0  0  0  0  0  0  0  0  0  0  0  0
   36.9502   12.5192  -14.9943 C   0  0  0  0  0  0  0  0  0  0  0  0
   38.2560   11.6223  -15.7474 Cl  0  0  0  0  0  0  0  0  0  0  0  0
   35.6895   12.4469  -15.5537 C   0  0  0  0  0  0  0  0  0  0  0  0
   34.6712   13.1677  -14.9371 C   0  0  0  0  0  0  0  0  0  0  0  0
   34.9010   13.9262  -13.8127 C   0  0  0  0  0  0  0  0  0  0  0  0
   33.7113   14.5784  -13.3458 N   0  0  0  0  0  0  0  0  0  0  0  0
   33.4817   15.0812  -12.0357 C   0  0  0  0  0  0  0  0  0  0  0  0
   32.1290   15.1963  -11.8288 C   0  0  0  0  0  0  0  0  0  0  0  0
   31.7329   15.6644  -10.5964 C   0  0  0  0  0  0  0  0  0  0  0  0
   32.6415   16.0018   -9.6162 C   0  0  0  0  0  0  0  0  0  0  0  0
   34.0108   15.8676   -9.8732 C   0  0  0  0  0  0  0  0  0  0  0  0
   34.4487   15.4064  -11.0848 C   0  0  0  0  0  0  0  0  0  0  0  0
   32.9398   14.6883  -14.0451 H   0  0  0  0  0  0  0  0  0  0  0  0
   37.9828   18.4598   -7.4727 C   0  0  0  0  0  0  0  0  0  0  0  0
   38.2668   17.3134   -8.2821 N   0  0  0  0  0  0  0  0  0  0  0  0
   38.3592   17.5807   -9.6839 C   0  0  0  0  0  0  0  0  0  0  0  0
   36.9487   17.3862  -10.2604 C   0  0  0  0  0  0  0  0  0  0  0  0
   36.6410   15.9851  -10.1519 N   0  0  0  0  0  0  0  0  0  0  0  0
   37.1209   15.2455   -9.0210 C   0  0  0  0  0  0  0  0  0  0  0  0
   37.5919   16.1213   -7.9049 C   0  0  0  0  0  0  0  0  0  0  0  0
 18 19  1  0  0  0
 19 20  1  0  0  0
 20 21  1  0  0  0
 21 22  1  0  0  0
 22 23  1  0  0  0
 23 24  1  0  0  0
 22  1  1  0  0  0
  1  2  2  0  0  0
  2  3  1  0  0  0
  3  4  2  0  0  0
  4  5  1  0  0  0
  5  6  1  0  0  0
  5  7  2  0  0  0
  7  8  1  0  0  0
  8  9  2  0  0  0
  9 10  1  0  0  0
 10 11  1  0  0  0
 11 12  2  0  0  0
 12 13  1  0  0  0
 13 14  2  0  0  0
 14 15  1  0  0  0
 15 16  2  0  0  0
 24 19  1  0  0  0
 16  1  1  0  0  0
  9  3  1  0  0  0
 16 11  1  0  0  0
 10 17  1  0  0  0
M  END
> <minimizedAffinity>
-7.52633

> <CNNscore>
0.2724083960

> <CNNaffinity>
5.3918004036

> <CNN_VS>
1.4687716961

> <CNNaffinity_variance>
0.2667331696

$$$$
[H]OC(=O)[C@]([H])(N([H])C(=O)[C@@]([H])(N([H])C(=O)C(C([H])([H])[H])(C([H])([H])[H])C([H])([H])[H])C([H])([H])C([H])(C([H])([H])[H])C([H])([H])[H])C([H])([H])[H]


 23 22  0  0  0  0  0  0  0  0999 V2000
   36.4363   15.5379   -9.9936 C   0  0  0  0  0  0  0  0  0  0  0  0
   35.6452   14.8506  -10.9685 N   0  0  0  0  0  0  0  0  0  0  0  0
   36.2366   14.3413  -12.1745 C   0  0  0  0  0  0  0  0  0  0  0  0
   37.4895   14.5417  -12.3238 O   0  0  0  0  0  0  0  0  0  0  0  0
   34.6402   14.6881  -10.8299 H   0  0  0  0  0  0  0  0  0  0  0  0
   35.4764   13.6274  -13.1920 C   0  0  0  0  0  0  0  0  0  0  0  0
   35.9103   13.8470  -14.6039 C   0  0  0  0  0  0  0  0  0  0  0  0
   35.6247   12.1209  -12.9159 C   0  0  0  0  0  0  0  0  0  0  0  0
   33.9724   13.8872  -13.0773 C   0  0  0  0  0  0  0  0  0  0  0  0
   35.9189   15.2047   -8.6502 C   0  0  0  0  0  0  0  0  0  0  0  0
   34.6695   15.0882   -8.5303 O   0  0  0  0  0  0  0  0  0  0  0  0
   36.7015   15.0057   -7.5064 N   0  0  0  0  0  0  0  0  0  0  0  0
   37.7236   15.0817   -7.5770 H   0  0  0  0  0  0  0  0  0  0  0  0
   36.1269   14.6940   -6.2226 C   0  0  0  0  0  0  0  0  0  0  0  0
   36.6811   15.5789   -5.1285 C   0  0  0  0  0  0  0  0  0  0  0  0
   36.3018   13.2677   -5.8671 C   0  0  0  0  0  0  0  0  0  0  0  0
   37.1043   12.4695   -6.6404 O   0  0  0  0  0  0  0  0  0  0  0  0
   35.7145   12.8146   -4.8657 O   0  0  0  0  0  0  0  0  0  0  0  0
   37.0952   12.5293   -7.6512 H   0  0  0  0  0  0  0  0  0  0  0  0
   36.5770   16.9938  -10.2399 C   0  0  0  0  0  0  0  0  0  0  0  0
   37.7945   18.3758   -8.6916 C   0  0  0  0  0  0  0  0  0  0  0  0
   37.8908   17.6351  -10.0461 C   0  0  0  0  0  0  0  0  0  0  0  0
   39.0618   16.6968   -9.8720 C   0  0  0  0  0  0  0  0  0  0  0  0
 21 22  1  0  0  0
 22 23  1  0  0  0
 22 20  1  0  0  0
 20  1  1  0  0  0
  1  2  1  0  0  0
  2  3  1  0  0  0
  3  4  2  0  0  0
  3  6  1  0  0  0
  6  7  1  0  0  0
  6  8  1  0  0  0
  6  9  1  0  0  0
  1 10  1  0  0  0
 10 11  2  0  0  0
 10 12  1  0  0  0
 12 14  1  0  0  0
 14 15  1  0  0  0
 14 16  1  0  0  0
 16 17  1  0  0  0
 16 18  2  0  0  0
  2  5  1  0  0  0
 12 13  1  0  0  0
 17 19  1  0  0  0
M  END
> <minimizedAffinity>
-5.07098

> <CNNscore>
0.5621355772

> <CNNaffinity>
4.7604608536

> <CNN_VS>
2.6760244370

> <CNNaffinity_variance>
0.1764833778

$$$$
[H]OC(=O)[C@]([H])(N([H])C(=O)[C@@]([H])(N([H])C(=O)C(C([H])([H])[H])(C([H])([H])[H])C([H])([H])[H])C([H])([H])C([H])(C([H])([H])[H])C([H])([H])[H])C([H])([H])[H]


 23 22  0  0  0  0  0  0  0  0999 V2000
   36.8246   14.6796  -11.2876 C   0  0  0  0  0  0  0  0  0  0  0  0
   35.9418   14.4774  -12.3959 N   0  0  0  0  0  0  0  0  0  0  0  0
   35.9597   13.2490  -13.1405 C   0  0  0  0  0  0  0  0  0  0  0  0
   36.8020   12.3658  -12.7630 O   0  0  0  0  0  0  0  0  0  0  0  0
   35.2625   15.1933  -12.6817 H   0  0  0  0  0  0  0  0  0  0  0  0
   35.0755   12.9916  -14.2696 C   0  0  0  0  0  0  0  0  0  0  0  0
   34.0142   14.0135  -14.5129 C   0  0  0  0  0  0  0  0  0  0  0  0
   35.9411   12.9456  -15.5409 C   0  0  0  0  0  0  0  0  0  0  0  0
   34.4354   11.6031  -14.1967 C   0  0  0  0  0  0  0  0  0  0  0  0
   36.0111   14.8694  -10.0686 C   0  0  0  0  0  0  0  0  0  0  0  0
   36.2703   14.1244   -9.0853 O   0  0  0  0  0  0  0  0  0  0  0  0
   34.9832   15.8081   -9.9179 N   0  0  0  0  0  0  0  0  0  0  0  0
   34.7585   16.4373  -10.6983 H   0  0  0  0  0  0  0  0  0  0  0  0
   34.2217   15.9301   -8.7011 C   0  0  0  0  0  0  0  0  0  0  0  0
   32.7347   15.9857   -8.9714 C   0  0  0  0  0  0  0  0  0  0  0  0
   34.6415   17.1004   -7.8978 C   0  0  0  0  0  0  0  0  0  0  0  0
   33.6973   17.9816   -7.4385 O   0  0  0  0  0  0  0  0  0  0  0  0
   35.8518   17.2653   -7.6507 O   0  0  0  0  0  0  0  0  0  0  0  0
   32.9210   18.2765   -8.0180 H   0  0  0  0  0  0  0  0  0  0  0  0
   37.8408   15.7383  -11.5035 C   0  0  0  0  0  0  0  0  0  0  0  0
   40.2161   16.1187  -11.5554 C   0  0  0  0  0  0  0  0  0  0  0  0
   39.0240   15.7931  -10.6250 C   0  0  0  0  0  0  0  0  0  0  0  0
   39.0356   16.9077   -9.6054 C   0  0  0  0  0  0  0  0  0  0  0  0
 21 22  1  0  0  0
 22 23  1  0  0  0
 22 20  1  0  0  0
 20  1  1  0  0  0
  1  2  1  0  0  0
  2  3  1  0  0  0
  3  4  2  0  0  0
  3  6  1  0  0  0
  6  7  1  0  0  0
  6  8  1  0  0  0
  6  9  1  0  0  0
  1 10  1  0  0  0
 10 11  2  0  0  0
 10 12  1  0  0  0
 12 14  1  0  0  0
 14 15  1  0  0  0
 14 16  1  0  0  0
 16 17  1  0  0  0
 16 18  2  0  0  0
  2  5  1  0  0  0
 12 13  1  0  0  0
 17 19  1  0  0  0
M  END
> <minimizedAffinity>
-4.83708

> <CNNscore>
0.5163229108

> <CNNaffinity>
4.8724298477

> <CNN_VS>
2.5157470703

> <CNNaffinity_variance>
0.1188214049

$$$$
[H]OC(=O)[C@]([H])(N([H])C(=O)[C@@]([H])(N([H])C(=O)C(C([H])([H])[H])(C([H])([H])[H])C([H])([H])[H])C([H])([H])C([H])(C([H])([H])[H])C([H])([H])[H])C([H])([H])[H]


 23 22  0  0  0  0  0  0  0  0999 V2000
   36.3329   15.1853   -9.9223 C   0  0  0  0  0  0  0  0  0  0  0  0
   35.9094   14.3531  -11.0070 N   0  0  0  0  0  0  0  0  0  0  0  0
   36.8138   14.0026  -12.0666 C   0  0  0  0  0  0  0  0  0  0  0  0
   37.9974   14.4765  -11.9857 O   0  0  0  0  0  0  0  0  0  0  0  0
   34.9567   13.9710  -11.0532 H   0  0  0  0  0  0  0  0  0  0  0  0
   36.4337   13.1518  -13.1866 C   0  0  0  0  0  0  0  0  0  0  0  0
   35.1808   12.3593  -13.0075 C   0  0  0  0  0  0  0  0  0  0  0  0
   36.2086   14.0595  -14.4086 C   0  0  0  0  0  0  0  0  0  0  0  0
   37.5685   12.2173  -13.6129 C   0  0  0  0  0  0  0  0  0  0  0  0
   35.6824   14.7089   -8.6839 C   0  0  0  0  0  0  0  0  0  0  0  0
   36.3103   13.8577   -7.9981 O   0  0  0  0  0  0  0  0  0  0  0  0
   34.4326   15.1277   -8.2119 N   0  0  0  0  0  0  0  0  0  0  0  0
   33.9039   15.8301   -8.7435 H   0  0  0  0  0  0  0  0  0  0  0  0
   33.8528   14.6105   -6.9987 C   0  0  0  0  0  0  0  0  0  0  0  0
   32.3731   14.3389   -7.1538 C   0  0  0  0  0  0  0  0  0  0  0  0
   34.0923   15.5043   -5.8433 C   0  0  0  0  0  0  0  0  0  0  0  0
   34.8210   16.6526   -6.0139 O   0  0  0  0  0  0  0  0  0  0  0  0
   33.6244   15.1968   -4.7299 O   0  0  0  0  0  0  0  0  0  0  0  0
   35.6558   16.6706   -6.5870 H   0  0  0  0  0  0  0  0  0  0  0  0
   36.1665   16.6385  -10.1684 C   0  0  0  0  0  0  0  0  0  0  0  0
   36.9294   18.2218   -8.5251 C   0  0  0  0  0  0  0  0  0  0  0  0
   37.2851   17.5533   -9.8739 C   0  0  0  0  0  0  0  0  0  0  0  0
   38.6221   16.8977   -9.6204 C   0  0  0  0  0  0  0  0  0  0  0  0
 21 22  1  0  0  0
 22 23  1  0  0  0
 22 20  1  0  0  0
 20  1  1  0  0  0
  1  2  1  0  0  0
  2  3  1  0  0  0
  3  4  2  0  0  0
  3  6  1  0  0  0
  6  7  1  0  0  0
  6  8  1  0  0  0
  6  9  1  0  0  0
  1 10  1  0  0  0
 10 11  2  0  0  0
 10 12  1  0  0  0
 12 14  1  0  0  0
 14 15  1  0  0  0
 14 16  1  0  0  0
 16 17  1  0  0  0
 16 18  2  0  0  0
  2  5  1  0  0  0
 12 13  1  0  0  0
 17 19  1  0  0  0
M  END
> <minimizedAffinity>
-4.83941

> <CNNscore>
0.4740958810

> <CNNaffinity>
4.5885415077

> <CNN_VS>
2.1754086018

> <CNNaffinity_variance>
0.1801173836

$$$$
[H]OC(=O)[C@]([H])(N([H])C(=O)[C@@]([H])(N([H])C(=O)C(C([H])([H])[H])(C([H])([H])[H])C([H])([H])[H])C([H])([H])C([H])(C([H])([H])[H])C([H])([H])[H])C([H])([H])[H]


 23 22  0  0  0  0  0  0  0  0999 V2000
   39.2358   11.9882  -15.8495 C   0  0  0  0  0  0  0  0  0  0  0  0
   38.1111   12.7976  -15.4912 N   0  0  0  0  0  0  0  0  0  0  0  0
   37.4165   12.5905  -14.2510 C   0  0  0  0  0  0  0  0  0  0  0  0
   37.8531   11.6513  -13.5031 O   0  0  0  0  0  0  0  0  0  0  0  0
   37.7776   13.5563  -16.0986 H   0  0  0  0  0  0  0  0  0  0  0  0
   36.2732   13.3933  -13.8371 C   0  0  0  0  0  0  0  0  0  0  0  0
   35.5446   12.9141  -12.6250 C   0  0  0  0  0  0  0  0  0  0  0  0
   36.7872   14.8065  -13.5108 C   0  0  0  0  0  0  0  0  0  0  0  0
   35.2749   13.6073  -14.9775 C   0  0  0  0  0  0  0  0  0  0  0  0
   40.4374   12.8473  -15.8924 C   0  0  0  0  0  0  0  0  0  0  0  0
   40.2622   14.0633  -16.1743 O   0  0  0  0  0  0  0  0  0  0  0  0
   41.7476   12.4215  -15.6427 N   0  0  0  0  0  0  0  0  0  0  0  0
   41.9190   11.4386  -15.3979 H   0  0  0  0  0  0  0  0  0  0  0  0
   42.8760   13.3143  -15.7139 C   0  0  0  0  0  0  0  0  0  0  0  0
   44.0521   12.6791  -16.4217 C   0  0  0  0  0  0  0  0  0  0  0  0
   43.2839   13.8022  -14.3771 C   0  0  0  0  0  0  0  0  0  0  0  0
   42.5260   13.4861  -13.2796 O   0  0  0  0  0  0  0  0  0  0  0  0
   44.3147   14.4945  -14.2714 O   0  0  0  0  0  0  0  0  0  0  0  0
   41.5140   13.5041  -13.3112 H   0  0  0  0  0  0  0  0  0  0  0  0
   39.0350   11.1734  -17.0726 C   0  0  0  0  0  0  0  0  0  0  0  0
   38.0652   10.7094  -19.2252 C   0  0  0  0  0  0  0  0  0  0  0  0
   37.7737   11.3010  -17.8260 C   0  0  0  0  0  0  0  0  0  0  0  0
   36.6141   10.4806  -17.3119 C   0  0  0  0  0  0  0  0  0  0  0  0
 21 22  1  0  0  0
 22 23  1  0  0  0
 22 20  1  0  0  0
 20  1  1  0  0  0
  1  2  1  0  0  0
  2  3  1  0  0  0
  3  4  2  0  0  0
  3  6  1  0  0  0
  6  7  1  0  0  0
  6  8  1  0  0  0
  6  9  1  0  0  0
  1 10  1  0  0  0
 10 11  2  0  0  0
 10 12  1  0  0  0
 12 14  1  0  0  0
 14 15  1  0  0  0
 14 16  1  0  0  0
 16 17  1  0  0  0
 16 18  2  0  0  0
  2  5  1  0  0  0
 12 13  1  0  0  0
 17 19  1  0  0  0
M  END
> <minimizedAffinity>
-5.71939

> <CNNscore>
0.3940703869

> <CNNaffinity>
5.4343118668

> <CNN_VS>
2.1415014267

> <CNNaffinity_variance>
0.0247898232

$$$$
[H]OC(=O)[C@]([H])(N([H])C(=O)[C@@]([H])(N([H])C(=O)C(C([H])([H])[H])(C([H])([H])[H])C([H])([H])[H])C([H])([H])C([H])(C([H])([H])[H])C([H])([H])[H])C([H])([H])[H]


 23 22  0  0  0  0  0  0  0  0999 V2000
   34.9160   15.3126  -11.0293 C   0  0  0  0  0  0  0  0  0  0  0  0
   34.8396   14.8813  -12.3918 N   0  0  0  0  0  0  0  0  0  0  0  0
   35.4168   13.6325  -12.8053 C   0  0  0  0  0  0  0  0  0  0  0  0
   35.9980   12.9453  -11.8986 O   0  0  0  0  0  0  0  0  0  0  0  0
   34.3600   15.4403  -13.1082 H   0  0  0  0  0  0  0  0  0  0  0  0
   35.3574   13.1454  -14.1772 C   0  0  0  0  0  0  0  0  0  0  0  0
   36.3503   12.0900  -14.5379 C   0  0  0  0  0  0  0  0  0  0  0  0
   33.9638   12.5309  -14.3958 C   0  0  0  0  0  0  0  0  0  0  0  0
   35.4338   14.2836  -15.1977 C   0  0  0  0  0  0  0  0  0  0  0  0
   33.5423   15.5167  -10.5242 C   0  0  0  0  0  0  0  0  0  0  0  0
   33.4045   16.2832   -9.5330 O   0  0  0  0  0  0  0  0  0  0  0  0
   32.3872   14.9325  -11.0579 N   0  0  0  0  0  0  0  0  0  0  0  0
   32.4677   14.3135  -11.8739 H   0  0  0  0  0  0  0  0  0  0  0  0
   31.0776   15.1677  -10.5056 C   0  0  0  0  0  0  0  0  0  0  0  0
   30.9153   14.5212   -9.1480 C   0  0  0  0  0  0  0  0  0  0  0  0
   30.0012   14.7214  -11.4186 C   0  0  0  0  0  0  0  0  0  0  0  0
   30.3254   14.1024  -12.5978 O   0  0  0  0  0  0  0  0  0  0  0  0
   28.8128   14.9162  -11.0979 O   0  0  0  0  0  0  0  0  0  0  0  0
   31.0934   14.4262  -13.1729 H   0  0  0  0  0  0  0  0  0  0  0  0
   35.8169   16.4696  -10.8061 C   0  0  0  0  0  0  0  0  0  0  0  0
   37.0457   15.0915   -9.2633 C   0  0  0  0  0  0  0  0  0  0  0  0
   37.1807   16.2348  -10.2964 C   0  0  0  0  0  0  0  0  0  0  0  0
   38.1776   15.7086  -11.3020 C   0  0  0  0  0  0  0  0  0  0  0  0
 21 22  1  0  0  0
 22 23  1  0  0  0
 22 20  1  0  0  0
 20  1  1  0  0  0
  1  2  1  0  0  0
  2  3  1  0  0  0
  3  4  2  0  0  0
  3  6  1  0  0  0
  6  7  1  0  0  0
  6  8  1  0  0  0
  6  9  1  0  0  0
  1 10  1  0  0  0
 10 11  2  0  0  0
 10 12  1  0  0  0
 12 14  1  0  0  0
 14 15  1  0  0  0
 14 16  1  0  0  0
 16 17  1  0  0  0
 16 18  2  0  0  0
  2  5  1  0  0  0
 12 13  1  0  0  0
 17 19  1  0  0  0
M  END
> <minimizedAffinity>
-5.63211

> <CNNscore>
0.3600054383

> <CNNaffinity>
5.0914225578

> <CNN_VS>
1.8329398632

> <CNNaffinity_variance>
0.1042526811

$$$$
[H]OC(=O)[C@]([H])(N([H])C(=O)[C@@]([H])(N([H])C(=O)C(C([H])([H])[H])(C([H])([H])[H])C([H])([H])[H])C([H])([H])C([H])(C([H])([H])[H])C([H])([H])[H])C([H])([H])[H]


 23 22  0  0  0  0  0  0  0  0999 V2000
   39.6217   13.0569  -14.7477 C   0  0  0  0  0  0  0  0  0  0  0  0
   38.2208   13.2375  -14.9781 N   0  0  0  0  0  0  0  0  0  0  0  0
   37.2469   12.4807  -14.2415 C   0  0  0  0  0  0  0  0  0  0  0  0
   37.7008   11.6462  -13.3872 O   0  0  0  0  0  0  0  0  0  0  0  0
   37.8703   13.9199  -15.6616 H   0  0  0  0  0  0  0  0  0  0  0  0
   35.8108   12.6347  -14.4327 C   0  0  0  0  0  0  0  0  0  0  0  0
   34.9588   12.3335  -13.2439 C   0  0  0  0  0  0  0  0  0  0  0  0
   35.5430   14.1036  -14.8045 C   0  0  0  0  0  0  0  0  0  0  0  0
   35.3002   11.8400  -15.6371 C   0  0  0  0  0  0  0  0  0  0  0  0
   40.1647   14.2998  -14.1610 C   0  0  0  0  0  0  0  0  0  0  0  0
   39.6280   15.3833  -14.5173 O   0  0  0  0  0  0  0  0  0  0  0  0
   41.2197   14.3695  -13.2431 N   0  0  0  0  0  0  0  0  0  0  0  0
   41.6676   13.5015  -12.9250 H   0  0  0  0  0  0  0  0  0  0  0  0
   41.7062   15.6206  -12.7201 C   0  0  0  0  0  0  0  0  0  0  0  0
   43.1842   15.5616  -12.4047 C   0  0  0  0  0  0  0  0  0  0  0  0
   40.9443   16.0588  -11.5289 C   0  0  0  0  0  0  0  0  0  0  0  0
   39.6960   16.6032  -11.6849 O   0  0  0  0  0  0  0  0  0  0  0  0
   41.4526   15.9240  -10.3991 O   0  0  0  0  0  0  0  0  0  0  0  0
   39.4924   17.2575  -12.4304 H   0  0  0  0  0  0  0  0  0  0  0  0
   40.3755   12.5700  -15.9287 C   0  0  0  0  0  0  0  0  0  0  0  0
   40.7172   11.9299  -18.2228 C   0  0  0  0  0  0  0  0  0  0  0  0
   39.6377   12.1697  -17.1412 C   0  0  0  0  0  0  0  0  0  0  0  0
   38.8992   10.8545  -17.0580 C   0  0  0  0  0  0  0  0  0  0  0  0
 21 22  1  0  0  0
 22 23  1  0  0  0
 22 20  1  0  0  0
 20  1  1  0  0  0
  1  2  1  0  0  0
  2  3  1  0  0  0
  3  4  2  0  0  0
  3  6  1  0  0  0
  6  7  1  0  0  0
  6  8  1  0  0  0
  6  9  1  0  0  0
  1 10  1  0  0  0
 10 11  2  0  0  0
 10 12  1  0  0  0
 12 14  1  0  0  0
 14 15  1  0  0  0
 14 16  1  0  0  0
 16 17  1  0  0  0
 16 18  2  0  0  0
  2  5  1  0  0  0
 12 13  1  0  0  0
 17 19  1  0  0  0
M  END
> <minimizedAffinity>
-6.53582

> <CNNscore>
0.3379770815

> <CNNaffinity>
5.0804405212

> <CNN_VS>
1.7170724869

> <CNNaffinity_variance>
0.1000618115

$$$$
[H]OC(=O)[C@]([H])(N([H])C(=O)[C@@]([H])(N([H])C(=O)C(C([H])([H])[H])(C([H])([H])[H])C([H])([H])[H])C([H])([H])C([H])(C([H])([H])[H])C([H])([H])[H])C([H])([H])[H]


 23 22  0  0  0  0  0  0  0  0999 V2000
   35.5353   15.7575  -10.1973 C   0  0  0  0  0  0  0  0  0  0  0  0
   34.9010   15.1424  -11.3233 N   0  0  0  0  0  0  0  0  0  0  0  0
   35.5962   14.1749  -12.1259 C   0  0  0  0  0  0  0  0  0  0  0  0
   36.7971   13.9065  -11.7825 O   0  0  0  0  0  0  0  0  0  0  0  0
   33.9308   15.3609  -11.5814 H   0  0  0  0  0  0  0  0  0  0  0  0
   34.9915   13.5145  -13.2753 C   0  0  0  0  0  0  0  0  0  0  0  0
   33.5301   13.7519  -13.4694 C   0  0  0  0  0  0  0  0  0  0  0  0
   35.6938   14.0395  -14.5398 C   0  0  0  0  0  0  0  0  0  0  0  0
   35.2667   12.0088  -13.2868 C   0  0  0  0  0  0  0  0  0  0  0  0
   34.5101   16.0165   -9.1650 C   0  0  0  0  0  0  0  0  0  0  0  0
   34.7430   16.9473   -8.3474 O   0  0  0  0  0  0  0  0  0  0  0  0
   33.3055   15.3168   -9.0253 N   0  0  0  0  0  0  0  0  0  0  0  0
   33.0831   14.5615   -9.6853 H   0  0  0  0  0  0  0  0  0  0  0  0
   32.3550   15.6165   -7.9851 C   0  0  0  0  0  0  0  0  0  0  0  0
   32.0728   14.4109   -7.1165 C   0  0  0  0  0  0  0  0  0  0  0  0
   31.0917   16.1651   -8.5278 C   0  0  0  0  0  0  0  0  0  0  0  0
   31.0504   17.4614   -8.9712 O   0  0  0  0  0  0  0  0  0  0  0  0
   30.0825   15.4354   -8.5736 O   0  0  0  0  0  0  0  0  0  0  0  0
   31.5117   18.2090   -8.4673 H   0  0  0  0  0  0  0  0  0  0  0  0
   36.3612   16.9422  -10.5354 C   0  0  0  0  0  0  0  0  0  0  0  0
   38.0814   18.3456   -9.6075 C   0  0  0  0  0  0  0  0  0  0  0  0
   37.7960   16.9432  -10.1944 C   0  0  0  0  0  0  0  0  0  0  0  0
   38.2123   15.9916   -9.0976 C   0  0  0  0  0  0  0  0  0  0  0  0
 21 22  1  0  0  0
 22 23  1  0  0  0
 22 20  1  0  0  0
 20  1  1  0  0  0
  1  2  1  0  0  0
  2  3  1  0  0  0
  3  4  2  0  0  0
  3  6  1  0  0  0
  6  7  1  0  0  0
  6  8  1  0  0  0
  6  9  1  0  0  0
  1 10  1  0  0  0
 10 11  2  0  0  0
 10 12  1  0  0  0
 12 14  1  0  0  0
 14 15  1  0  0  0
 14 16  1  0  0  0
 16 17  1  0  0  0
 16 18  2  0  0  0
  2  5  1  0  0  0
 12 13  1  0  0  0
 17 19  1  0  0  0
M  END
> <minimizedAffinity>
-5.20950

> <CNNscore>
0.3335888088

> <CNNaffinity>
4.6944155693

> <CNN_VS>
1.5660045147

> <CNNaffinity_variance>
0.2236295044

$$$$
[H]OC(=O)[C@]([H])(N([H])C(=O)[C@@]([H])(N([H])C(=O)C(C([H])([H])[H])(C([H])([H])[H])C([H])([H])[H])C([H])([H])C([H])(C([H])([H])[H])C([H])([H])[H])C([H])([H])[H]


 23 22  0  0  0  0  0  0  0  0999 V2000
   39.9005   12.8618  -15.3644 C   0  0  0  0  0  0  0  0  0  0  0  0
   38.8029   13.6064  -14.8267 N   0  0  0  0  0  0  0  0  0  0  0  0
   37.7552   12.9527  -14.0927 C   0  0  0  0  0  0  0  0  0  0  0  0
   37.8586   11.6866  -13.9572 O   0  0  0  0  0  0  0  0  0  0  0  0
   38.7385   14.6261  -14.9351 H   0  0  0  0  0  0  0  0  0  0  0  0
   36.6227   13.6671  -13.5182 C   0  0  0  0  0  0  0  0  0  0  0  0
   36.9313   14.9935  -12.9057 C   0  0  0  0  0  0  0  0  0  0  0  0
   35.6125   13.9294  -14.6488 C   0  0  0  0  0  0  0  0  0  0  0  0
   35.8506   12.8108  -12.5115 C   0  0  0  0  0  0  0  0  0  0  0  0
   41.1591   13.4630  -14.8762 C   0  0  0  0  0  0  0  0  0  0  0  0
   42.1380   13.4664  -15.6705 O   0  0  0  0  0  0  0  0  0  0  0  0
   41.3493   14.0293  -13.6100 N   0  0  0  0  0  0  0  0  0  0  0  0
   40.5654   14.0520  -12.9464 H   0  0  0  0  0  0  0  0  0  0  0  0
   42.6108   14.5884  -13.1961 C   0  0  0  0  0  0  0  0  0  0  0  0
   43.4194   13.6072  -12.3771 C   0  0  0  0  0  0  0  0  0  0  0  0
   42.4393   15.8577  -12.4539 C   0  0  0  0  0  0  0  0  0  0  0  0
   41.3950   16.6893  -12.7648 O   0  0  0  0  0  0  0  0  0  0  0  0
   43.2506   16.1499  -11.5541 O   0  0  0  0  0  0  0  0  0  0  0  0
   41.1227   16.8623  -13.7247 H   0  0  0  0  0  0  0  0  0  0  0  0
   39.8514   12.6810  -16.8358 C   0  0  0  0  0  0  0  0  0  0  0  0
   38.1407   11.0802  -17.3839 C   0  0  0  0  0  0  0  0  0  0  0  0
   39.6677   11.3272  -17.3910 C   0  0  0  0  0  0  0  0  0  0  0  0
   40.0642   11.1498  -18.8378 C   0  0  0  0  0  0  0  0  0  0  0  0
 21 22  1  0  0  0
 22 23  1  0  0  0
 22 20  1  0  0  0
 20  1  1  0  0  0
  1  2  1  0  0  0
  2  3  1  0  0  0
  3  4  2  0  0  0
  3  6  1  0  0  0
  6  7  1  0  0  0
  6  8  1  0  0  0
  6  9  1  0  0  0
  1 10  1  0  0  0
 10 11  2  0  0  0
 10 12  1  0  0  0
 12 14  1  0  0  0
 14 15  1  0  0  0
 14 16  1  0  0  0
 16 17  1  0  0  0
 16 18  2  0  0  0
  2  5  1  0  0  0
 12 13  1  0  0  0
 17 19  1  0  0  0
M  END
> <minimizedAffinity>
-6.23533

> <CNNscore>
0.3111139238

> <CNNaffinity>
5.0851163864

> <CNN_VS>
1.5820505619

> <CNNaffinity_variance>
0.0574765429

$$$$
[H]OC(=O)[C@]([H])(N([H])C(=O)[C@@]([H])(N([H])C(=O)C(C([H])([H])[H])(C([H])([H])[H])C([H])([H])[H])C([H])([H])C([H])(C([H])([H])[H])C([H])([H])[H])C([H])([H])[H]


 23 22  0  0  0  0  0  0  0  0999 V2000
   38.6217   15.2235  -12.2983 C   0  0  0  0  0  0  0  0  0  0  0  0
   39.9907   14.9376  -11.9940 N   0  0  0  0  0  0  0  0  0  0  0  0
   41.0259   15.8925  -12.2770 C   0  0  0  0  0  0  0  0  0  0  0  0
   40.6564   16.9914  -12.8138 O   0  0  0  0  0  0  0  0  0  0  0  0
   40.2716   14.0531  -11.5529 H   0  0  0  0  0  0  0  0  0  0  0  0
   42.4315   15.6525  -11.9778 C   0  0  0  0  0  0  0  0  0  0  0  0
   42.7576   15.3919  -10.5440 C   0  0  0  0  0  0  0  0  0  0  0  0
   42.8705   14.4038  -12.7624 C   0  0  0  0  0  0  0  0  0  0  0  0
   43.3335   16.7696  -12.5081 C   0  0  0  0  0  0  0  0  0  0  0  0
   38.0081   15.8813  -11.1259 C   0  0  0  0  0  0  0  0  0  0  0  0
   36.8951   15.4356  -10.7365 O   0  0  0  0  0  0  0  0  0  0  0  0
   38.5628   16.9521  -10.4147 N   0  0  0  0  0  0  0  0  0  0  0  0
   39.4750   17.3277  -10.7015 H   0  0  0  0  0  0  0  0  0  0  0  0
   37.9012   17.5535   -9.2850 C   0  0  0  0  0  0  0  0  0  0  0  0
   37.8619   19.0616   -9.3935 C   0  0  0  0  0  0  0  0  0  0  0  0
   38.5150   17.1472   -8.0006 C   0  0  0  0  0  0  0  0  0  0  0  0
   39.0249   18.1027   -7.1604 O   0  0  0  0  0  0  0  0  0  0  0  0
   38.5572   15.9378   -7.7030 O   0  0  0  0  0  0  0  0  0  0  0  0
   39.5561   18.8895   -7.5127 H   0  0  0  0  0  0  0  0  0  0  0  0
   37.8544   14.0597  -12.8051 C   0  0  0  0  0  0  0  0  0  0  0  0
   38.0252   12.5168  -14.6435 C   0  0  0  0  0  0  0  0  0  0  0  0
   37.5850   13.9467  -14.2505 C   0  0  0  0  0  0  0  0  0  0  0  0
   36.1312   14.0105  -14.6560 C   0  0  0  0  0  0  0  0  0  0  0  0
 21 22  1  0  0  0
 22 23  1  0  0  0
 22 20  1  0  0  0
 20  1  1  0  0  0
  1  2  1  0  0  0
  2  3  1  0  0  0
  3  4  2  0  0  0
  3  6  1  0  0  0
  6  7  1  0  0  0
  6  8  1  0  0  0
  6  9  1  0  0  0
  1 10  1  0  0  0
 10 11  2  0  0  0
 10 12  1  0  0  0
 12 14  1  0  0  0
 14 15  1  0  0  0
 14 16  1  0  0  0
 16 17  1  0  0  0
 16 18  2  0  0  0
  2  5  1  0  0  0
 12 13  1  0  0  0
 17 19  1  0  0  0
M  END
> <minimizedAffinity>
-4.97211

> <CNNscore>
0.2971861362

> <CNNaffinity>
4.6404581070

> <CNN_VS>
1.3790798187

> <CNNaffinity_variance>
0.0681021065

$$$$
[H]N=C(N([H])[H])N([H])C([H])([H])C([H])([H])C([H])([H])[C@@]([H])(C(=O)O[H])N([H])C(=O)[C@@]([H])(N([H])C(=O)[C@@]([H])(N([H])C(=O)[C@]([H])(N([H])C(=O)[C@@]([H])(N([H])C(=O)C([H])([H])[H])C([H])(C([H])([H])[H])C([H])([H])[H])C([H])([H])[H])C([H])([H])C([H])([H])C([H])([H])C([H])([H])N([H])[H])C([H])([H])C([H])(C([H])([H])[H])C([H])([H])[H]


 56 55  0  0  0  0  0  0  0  0999 V2000
   37.4132   14.1279  -13.7412 N   0  0  0  0  0  0  0  0  0  0  0  0
   38.3751   13.1228  -13.9710 C   0  0  0  0  0  0  0  0  0  0  0  0
   38.2975   12.0190  -13.3279 O   0  0  0  0  0  0  0  0  0  0  0  0
   37.4344   15.0041  -14.2871 H   0  0  0  0  0  0  0  0  0  0  0  0
   39.4664   13.2522  -14.9134 C   0  0  0  0  0  0  0  0  0  0  0  0
   40.6835   13.6833  -14.2994 N   0  0  0  0  0  0  0  0  0  0  0  0
   40.7111   14.9670  -13.6832 C   0  0  0  0  0  0  0  0  0  0  0  0
   39.7249   15.7052  -13.6677 O   0  0  0  0  0  0  0  0  0  0  0  0
   41.5394   13.0777  -14.3040 H   0  0  0  0  0  0  0  0  0  0  0  0
   42.0091   15.3862  -13.0558 C   0  0  0  0  0  0  0  0  0  0  0  0
   41.8741   16.7639  -12.4359 C   0  0  0  0  0  0  0  0  0  0  0  0
   42.4074   14.3641  -12.1376 N   0  0  0  0  0  0  0  0  0  0  0  0
   43.6255   14.3890  -11.4405 C   0  0  0  0  0  0  0  0  0  0  0  0
   44.4048   15.3635  -11.6434 O   0  0  0  0  0  0  0  0  0  0  0  0
   41.7323   13.5662  -12.0074 H   0  0  0  0  0  0  0  0  0  0  0  0
   43.9485   13.3024  -10.5127 C   0  0  0  0  0  0  0  0  0  0  0  0
   42.9346   12.9219   -9.5884 N   0  0  0  0  0  0  0  0  0  0  0  0
   43.0079   13.2054   -8.1861 C   0  0  0  0  0  0  0  0  0  0  0  0
   41.9263   12.7768   -7.2689 C   0  0  0  0  0  0  0  0  0  0  0  0
   43.9978   13.8154   -7.7456 O   0  0  0  0  0  0  0  0  0  0  0  0
   42.0883   12.4108   -9.9177 H   0  0  0  0  0  0  0  0  0  0  0  0
   44.5071   12.1210  -11.2894 C   0  0  0  0  0  0  0  0  0  0  0  0
   45.3367   11.1883  -10.4774 C   0  0  0  0  0  0  0  0  0  0  0  0
   45.4107   12.6671  -12.3928 C   0  0  0  0  0  0  0  0  0  0  0  0
   39.6476   12.2090  -15.9627 C   0  0  0  0  0  0  0  0  0  0  0  0
   38.3085   11.6978  -16.4831 C   0  0  0  0  0  0  0  0  0  0  0  0
   38.4685   10.9620  -17.7854 C   0  0  0  0  0  0  0  0  0  0  0  0
   39.8384   11.1392  -18.3626 C   0  0  0  0  0  0  0  0  0  0  0  0
   39.7701   11.3584  -19.8116 N   0  0  0  0  0  0  0  0  0  0  0  0
   39.3261   12.2584  -20.0534 H   0  0  0  0  0  0  0  0  0  0  0  0
   39.2521   10.5647  -20.2690 H   0  0  0  0  0  0  0  0  0  0  0  0
   36.3364   13.9678  -12.7777 C   0  0  0  0  0  0  0  0  0  0  0  0
   36.6663   14.4797  -11.4394 C   0  0  0  0  0  0  0  0  0  0  0  0
   37.8736   14.6640  -11.1521 O   0  0  0  0  0  0  0  0  0  0  0  0
   35.6749   14.7691  -10.4787 N   0  0  0  0  0  0  0  0  0  0  0  0
   34.6837   14.6114  -10.6938 H   0  0  0  0  0  0  0  0  0  0  0  0
   36.0778   15.2713   -9.1960 C   0  0  0  0  0  0  0  0  0  0  0  0
   35.1570   14.7543   -8.1172 C   0  0  0  0  0  0  0  0  0  0  0  0
   35.6143   13.7741   -7.2441 O   0  0  0  0  0  0  0  0  0  0  0  0
   33.9879   15.1563   -7.9535 O   0  0  0  0  0  0  0  0  0  0  0  0
   35.7816   12.8639   -7.6724 H   0  0  0  0  0  0  0  0  0  0  0  0
   36.0330   16.8041   -9.1573 C   0  0  0  0  0  0  0  0  0  0  0  0
   37.1623   17.3152   -8.3397 C   0  0  0  0  0  0  0  0  0  0  0  0
   38.2820   17.9326   -9.0918 C   0  0  0  0  0  0  0  0  0  0  0  0
   39.1876   17.0446   -9.7524 N   0  0  0  0  0  0  0  0  0  0  0  0
   39.1533   17.0394  -10.8314 H   0  0  0  0  0  0  0  0  0  0  0  0
   40.1250   16.1760   -9.1214 C   0  0  0  0  0  0  0  0  0  0  0  0
   40.7158   16.5061   -7.8819 N   0  0  0  0  0  0  0  0  0  0  0  0
   40.4218   15.0724   -9.6898 N   0  0  0  0  0  0  0  0  0  0  0  0
   41.6634   16.1805   -7.6536 H   0  0  0  0  0  0  0  0  0  0  0  0
   40.1793   17.0777   -7.2047 H   0  0  0  0  0  0  0  0  0  0  0  0
   41.0934   14.3990   -9.2858 H   0  0  0  0  0  0  0  0  0  0  0  0
   35.7004   12.6260  -12.8500 C   0  0  0  0  0  0  0  0  0  0  0  0
   34.8964   12.0402  -15.0545 C   0  0  0  0  0  0  0  0  0  0  0  0
   34.4603   12.4809  -13.6365 C   0  0  0  0  0  0  0  0  0  0  0  0
   33.5723   13.6590  -13.7754 C   0  0  0  0  0  0  0  0  0  0  0  0
 54 55  1  0  0  0
 55 56  1  0  0  0
 55 53  1  0  0  0
 53 32  1  0  0  0
 32  1  1  0  0  0
  1  2  1  0  0  0
  2  3  2  0  0  0
  2  5  1  0  0  0
  5 25  1  0  0  0
 25 26  1  0  0  0
 26 27  1  0  0  0
 27 28  1  0  0  0
 28 29  1  0  0  0
  5  6  1  0  0  0
  6  7  1  0  0  0
  7  8  2  0  0  0
  7 10  1  0  0  0
 10 11  1  0  0  0
 10 12  1  0  0  0
 12 13  1  0  0  0
 13 14  2  0  0  0
 13 16  1  0  0  0
 16 17  1  0  0  0
 17 18  1  0  0  0
 18 19  1  0  0  0
 18 20  2  0  0  0
 16 22  1  0  0  0
 22 23  1  0  0  0
 22 24  1  0  0  0
 32 33  1  0  0  0
 33 34  2  0  0  0
 33 35  1  0  0  0
 35 37  1  0  0  0
 37 42  1  0  0  0
 42 43  1  0  0  0
 43 44  1  0  0  0
 44 45  1  0  0  0
 45 47  1  0  0  0
 47 48  1  0  0  0
 47 49  2  0  0  0
 37 38  1  0  0  0
 38 39  1  0  0  0
 38 40  2  0  0  0
  1  4  1  0  0  0
 29 30  1  0  0  0
 29 31  1  0  0  0
  6  9  1  0  0  0
 12 15  1  0  0  0
 17 21  1  0  0  0
 35 36  1  0  0  0
 45 46  1  0  0  0
 48 50  1  0  0  0
 48 51  1  0  0  0
 49 52  1  0  0  0
 39 41  1  0  0  0
M  END
> <minimizedAffinity>
-7.01578

> <CNNscore>
0.4806894362

> <CNNaffinity>
7.0159368515

> <CNN_VS>
3.3724868298

> <CNNaffinity_variance>
0.5147507191

$$$$
[H]N=C(N([H])[H])N([H])C([H])([H])C([H])([H])C([H])([H])[C@@]([H])(C(=O)O[H])N([H])C(=O)[C@@]([H])(N([H])C(=O)[C@@]([H])(N([H])C(=O)[C@]([H])(N([H])C(=O)[C@@]([H])(N([H])C(=O)C([H])([H])[H])C([H])(C([H])([H])[H])C([H])([H])[H])C([H])([H])[H])C([H])([H])C([H])([H])C([H])([H])C([H])([H])N([H])[H])C([H])([H])C([H])(C([H])([H])[H])C([H])([H])[H]


 56 55  0  0  0  0  0  0  0  0999 V2000
   37.3780   14.4672  -13.4810 N   0  0  0  0  0  0  0  0  0  0  0  0
   38.4238   13.5613  -13.7529 C   0  0  0  0  0  0  0  0  0  0  0  0
   38.3295   12.3514  -13.3467 O   0  0  0  0  0  0  0  0  0  0  0  0
   37.4176   15.4331  -13.8437 H   0  0  0  0  0  0  0  0  0  0  0  0
   39.6227   13.9110  -14.4852 C   0  0  0  0  0  0  0  0  0  0  0  0
   40.7744   14.0238  -13.6455 N   0  0  0  0  0  0  0  0  0  0  0  0
   41.0043   15.2603  -12.9772 C   0  0  0  0  0  0  0  0  0  0  0  0
   40.2452   16.2223  -13.1045 O   0  0  0  0  0  0  0  0  0  0  0  0
   41.4402   13.2229  -13.5248 H   0  0  0  0  0  0  0  0  0  0  0  0
   42.2276   15.3413  -12.1106 C   0  0  0  0  0  0  0  0  0  0  0  0
   43.0066   16.6066  -12.4154 C   0  0  0  0  0  0  0  0  0  0  0  0
   41.8128   15.2196  -10.7469 N   0  0  0  0  0  0  0  0  0  0  0  0
   42.6226   14.6644   -9.7437 C   0  0  0  0  0  0  0  0  0  0  0  0
   43.7712   14.2500  -10.0707 O   0  0  0  0  0  0  0  0  0  0  0  0
   40.8447   15.5679  -10.5218 H   0  0  0  0  0  0  0  0  0  0  0  0
   42.1188   14.5865   -8.3704 C   0  0  0  0  0  0  0  0  0  0  0  0
   40.8487   15.1774   -8.1157 N   0  0  0  0  0  0  0  0  0  0  0  0
   40.6506   16.2241   -7.1579 C   0  0  0  0  0  0  0  0  0  0  0  0
   39.3033   16.7955   -6.9278 C   0  0  0  0  0  0  0  0  0  0  0  0
   41.6281   16.6465   -6.5160 O   0  0  0  0  0  0  0  0  0  0  0  0
   40.0049   14.8529   -8.6339 H   0  0  0  0  0  0  0  0  0  0  0  0
   42.2070   13.1509   -7.8782 C   0  0  0  0  0  0  0  0  0  0  0  0
   40.9002   12.5539   -7.4866 C   0  0  0  0  0  0  0  0  0  0  0  0
   43.0901   13.1331   -6.6324 C   0  0  0  0  0  0  0  0  0  0  0  0
   39.8866   13.2601  -15.8000 C   0  0  0  0  0  0  0  0  0  0  0  0
   38.7307   12.3598  -16.2226 C   0  0  0  0  0  0  0  0  0  0  0  0
   39.2173   11.1674  -17.0001 C   0  0  0  0  0  0  0  0  0  0  0  0
   39.5030   11.5107  -18.4289 C   0  0  0  0  0  0  0  0  0  0  0  0
   40.9436   11.6826  -18.6466 N   0  0  0  0  0  0  0  0  0  0  0  0
   41.4666   10.7994  -18.5379 H   0  0  0  0  0  0  0  0  0  0  0  0
   41.3204   12.4103  -17.9862 H   0  0  0  0  0  0  0  0  0  0  0  0
   36.1925   14.0839  -12.7319 C   0  0  0  0  0  0  0  0  0  0  0  0
   36.2177   14.5237  -11.3291 C   0  0  0  0  0  0  0  0  0  0  0  0
   37.2951   14.4283  -10.6934 O   0  0  0  0  0  0  0  0  0  0  0  0
   35.0780   15.0469  -10.6837 N   0  0  0  0  0  0  0  0  0  0  0  0
   34.1858   15.1192  -11.1861 H   0  0  0  0  0  0  0  0  0  0  0  0
   35.1853   15.4597   -9.3133 C   0  0  0  0  0  0  0  0  0  0  0  0
   33.8340   15.4079   -8.6423 C   0  0  0  0  0  0  0  0  0  0  0  0
   33.6321   14.5280   -7.5852 O   0  0  0  0  0  0  0  0  0  0  0  0
   32.8653   16.1170   -8.9803 O   0  0  0  0  0  0  0  0  0  0  0  0
   33.6509   13.5409   -7.8408 H   0  0  0  0  0  0  0  0  0  0  0  0
   35.7102   16.8968   -9.2026 C   0  0  0  0  0  0  0  0  0  0  0  0
   35.7612   17.3001   -7.7743 C   0  0  0  0  0  0  0  0  0  0  0  0
   35.6999   18.7580   -7.5080 C   0  0  0  0  0  0  0  0  0  0  0  0
   36.4424   19.6095   -8.3848 N   0  0  0  0  0  0  0  0  0  0  0  0
   36.3354   19.4200   -9.4422 H   0  0  0  0  0  0  0  0  0  0  0  0
   37.3003   20.6781   -7.9931 C   0  0  0  0  0  0  0  0  0  0  0  0
   36.8771   21.6626   -7.0733 N   0  0  0  0  0  0  0  0  0  0  0  0
   38.4791   20.7317   -8.4793 N   0  0  0  0  0  0  0  0  0  0  0  0
   37.2427   22.6213   -7.1317 H   0  0  0  0  0  0  0  0  0  0  0  0
   36.1959   21.4041   -6.3368 H   0  0  0  0  0  0  0  0  0  0  0  0
   39.1499   21.4794   -8.2369 H   0  0  0  0  0  0  0  0  0  0  0  0
   35.7822   12.6789  -12.9922 C   0  0  0  0  0  0  0  0  0  0  0  0
   35.1614   12.0752  -15.2504 C   0  0  0  0  0  0  0  0  0  0  0  0
   34.6071   12.4409  -13.8525 C   0  0  0  0  0  0  0  0  0  0  0  0
   33.6242   13.5368  -14.0214 C   0  0  0  0  0  0  0  0  0  0  0  0
 54 55  1  0  0  0
 55 56  1  0  0  0
 55 53  1  0  0  0
 53 32  1  0  0  0
 32  1  1  0  0  0
  1  2  1  0  0  0
  2  3  2  0  0  0
  2  5  1  0  0  0
  5 25  1  0  0  0
 25 26  1  0  0  0
 26 27  1  0  0  0
 27 28  1  0  0  0
 28 29  1  0  0  0
  5  6  1  0  0  0
  6  7  1  0  0  0
  7  8  2  0  0  0
  7 10  1  0  0  0
 10 11  1  0  0  0
 10 12  1  0  0  0
 12 13  1  0  0  0
 13 14  2  0  0  0
 13 16  1  0  0  0
 16 17  1  0  0  0
 17 18  1  0  0  0
 18 19  1  0  0  0
 18 20  2  0  0  0
 16 22  1  0  0  0
 22 23  1  0  0  0
 22 24  1  0  0  0
 32 33  1  0  0  0
 33 34  2  0  0  0
 33 35  1  0  0  0
 35 37  1  0  0  0
 37 42  1  0  0  0
 42 43  1  0  0  0
 43 44  1  0  0  0
 44 45  1  0  0  0
 45 47  1  0  0  0
 47 48  1  0  0  0
 47 49  2  0  0  0
 37 38  1  0  0  0
 38 39  1  0  0  0
 38 40  2  0  0  0
  1  4  1  0  0  0
 29 30  1  0  0  0
 29 31  1  0  0  0
  6  9  1  0  0  0
 12 15  1  0  0  0
 17 21  1  0  0  0
 35 36  1  0  0  0
 45 46  1  0  0  0
 48 50  1  0  0  0
 48 51  1  0  0  0
 49 52  1  0  0  0
 39 41  1  0  0  0
M  END
> <minimizedAffinity>
-6.97871

> <CNNscore>
0.4146030545

> <CNNaffinity>
6.8596124649

> <CNN_VS>
2.8440163136

> <CNNaffinity_variance>
0.4232288897

$$$$
[H]N=C(N([H])[H])N([H])C([H])([H])C([H])([H])C([H])([H])[C@@]([H])(C(=O)O[H])N([H])C(=O)[C@@]([H])(N([H])C(=O)[C@@]([H])(N([H])C(=O)[C@]([H])(N([H])C(=O)[C@@]([H])(N([H])C(=O)C([H])([H])[H])C([H])(C([H])([H])[H])C([H])([H])[H])C([H])([H])[H])C([H])([H])C([H])([H])C([H])([H])C([H])([H])N([H])[H])C([H])([H])C([H])(C([H])([H])[H])C([H])([H])[H]


 56 55  0  0  0  0  0  0  0  0999 V2000
   37.3747   14.2698  -13.6117 N   0  0  0  0  0  0  0  0  0  0  0  0
   38.3828   13.3063  -13.8205 C   0  0  0  0  0  0  0  0  0  0  0  0
   38.2636   12.1466  -13.2925 O   0  0  0  0  0  0  0  0  0  0  0  0
   37.4331   15.1931  -14.0704 H   0  0  0  0  0  0  0  0  0  0  0  0
   39.5686   13.5405  -14.6173 C   0  0  0  0  0  0  0  0  0  0  0  0
   40.7033   13.9110  -13.8303 N   0  0  0  0  0  0  0  0  0  0  0  0
   40.7368   15.2189  -13.2676 C   0  0  0  0  0  0  0  0  0  0  0  0
   39.8240   16.0280  -13.4412 O   0  0  0  0  0  0  0  0  0  0  0  0
   41.4969   13.2442  -13.6722 H   0  0  0  0  0  0  0  0  0  0  0  0
   41.9480   15.5723  -12.4539 C   0  0  0  0  0  0  0  0  0  0  0  0
   41.7444   15.1726  -11.0049 C   0  0  0  0  0  0  0  0  0  0  0  0
   43.0888   14.9730  -13.0750 N   0  0  0  0  0  0  0  0  0  0  0  0
   44.3427   15.5999  -13.1476 C   0  0  0  0  0  0  0  0  0  0  0  0
   44.4595   16.7521  -12.6409 O   0  0  0  0  0  0  0  0  0  0  0  0
   42.9431   14.0173  -13.4932 H   0  0  0  0  0  0  0  0  0  0  0  0
   45.4590   14.9081  -13.7965 C   0  0  0  0  0  0  0  0  0  0  0  0
   45.2182   14.3719  -15.0933 N   0  0  0  0  0  0  0  0  0  0  0  0
   45.4066   12.9888  -15.4154 C   0  0  0  0  0  0  0  0  0  0  0  0
   45.1489   12.4881  -16.7857 C   0  0  0  0  0  0  0  0  0  0  0  0
   45.7950   12.2106  -14.5269 O   0  0  0  0  0  0  0  0  0  0  0  0
   44.8903   14.9905  -15.8650 H   0  0  0  0  0  0  0  0  0  0  0  0
   46.6986   15.7866  -13.7461 C   0  0  0  0  0  0  0  0  0  0  0  0
   46.9004   16.6349  -14.9533 C   0  0  0  0  0  0  0  0  0  0  0  0
   47.9189   14.8744  -13.6400 C   0  0  0  0  0  0  0  0  0  0  0  0
   39.8818   12.6149  -15.7429 C   0  0  0  0  0  0  0  0  0  0  0  0
   38.6155   12.1369  -16.4454 C   0  0  0  0  0  0  0  0  0  0  0  0
   38.9174   11.0610  -17.4526 C   0  0  0  0  0  0  0  0  0  0  0  0
   40.0973   11.4093  -18.3056 C   0  0  0  0  0  0  0  0  0  0  0  0
   39.7780   11.2500  -19.7286 N   0  0  0  0  0  0  0  0  0  0  0  0
   39.0782   11.9353  -20.0544 H   0  0  0  0  0  0  0  0  0  0  0  0
   39.4383   10.2708  -19.9111 H   0  0  0  0  0  0  0  0  0  0  0  0
   36.2017   14.0034  -12.7951 C   0  0  0  0  0  0  0  0  0  0  0  0
   36.3360   14.4683  -11.4067 C   0  0  0  0  0  0  0  0  0  0  0  0
   37.4664   14.4113  -10.8653 O   0  0  0  0  0  0  0  0  0  0  0  0
   35.2426   14.9738  -10.6731 N   0  0  0  0  0  0  0  0  0  0  0  0
   34.3088   15.0149  -11.0975 H   0  0  0  0  0  0  0  0  0  0  0  0
   35.4565   15.4133   -9.3237 C   0  0  0  0  0  0  0  0  0  0  0  0
   34.1554   15.4105   -8.5583 C   0  0  0  0  0  0  0  0  0  0  0  0
   33.9380   14.4385   -7.5885 O   0  0  0  0  0  0  0  0  0  0  0  0
   33.2421   16.2397   -8.7420 O   0  0  0  0  0  0  0  0  0  0  0  0
   33.8403   13.4895   -7.9484 H   0  0  0  0  0  0  0  0  0  0  0  0
   36.0222   16.8385   -9.2836 C   0  0  0  0  0  0  0  0  0  0  0  0
   36.8015   17.0305   -8.0342 C   0  0  0  0  0  0  0  0  0  0  0  0
   37.8981   16.0602   -7.7965 C   0  0  0  0  0  0  0  0  0  0  0  0
   37.9464   15.4380   -6.5098 N   0  0  0  0  0  0  0  0  0  0  0  0
   38.1551   16.0851   -5.6713 H   0  0  0  0  0  0  0  0  0  0  0  0
   37.7425   14.0542   -6.2361 C   0  0  0  0  0  0  0  0  0  0  0  0
   36.4868   13.4407   -6.4392 N   0  0  0  0  0  0  0  0  0  0  0  0
   38.7247   13.3591   -5.8103 N   0  0  0  0  0  0  0  0  0  0  0  0
   36.1929   12.6496   -5.8529 H   0  0  0  0  0  0  0  0  0  0  0  0
   35.8679   13.7970   -7.1898 H   0  0  0  0  0  0  0  0  0  0  0  0
   38.6437   12.3522   -5.5930 H   0  0  0  0  0  0  0  0  0  0  0  0
   35.6630   12.6330  -12.9997 C   0  0  0  0  0  0  0  0  0  0  0  0
   35.0872   12.0337  -15.2710 C   0  0  0  0  0  0  0  0  0  0  0  0
   34.5075   12.4627  -13.9016 C   0  0  0  0  0  0  0  0  0  0  0  0
   33.6119   13.6217  -14.1256 C   0  0  0  0  0  0  0  0  0  0  0  0
 54 55  1  0  0  0
 55 56  1  0  0  0
 55 53  1  0  0  0
 53 32  1  0  0  0
 32  1  1  0  0  0
  1  2  1  0  0  0
  2  3  2  0  0  0
  2  5  1  0  0  0
  5 25  1  0  0  0
 25 26  1  0  0  0
 26 27  1  0  0  0
 27 28  1  0  0  0
 28 29  1  0  0  0
  5  6  1  0  0  0
  6  7  1  0  0  0
  7  8  2  0  0  0
  7 10  1  0  0  0
 10 11  1  0  0  0
 10 12  1  0  0  0
 12 13  1  0  0  0
 13 14  2  0  0  0
 13 16  1  0  0  0
 16 17  1  0  0  0
 17 18  1  0  0  0
 18 19  1  0  0  0
 18 20  2  0  0  0
 16 22  1  0  0  0
 22 23  1  0  0  0
 22 24  1  0  0  0
 32 33  1  0  0  0
 33 34  2  0  0  0
 33 35  1  0  0  0
 35 37  1  0  0  0
 37 42  1  0  0  0
 42 43  1  0  0  0
 43 44  1  0  0  0
 44 45  1  0  0  0
 45 47  1  0  0  0
 47 48  1  0  0  0
 47 49  2  0  0  0
 37 38  1  0  0  0
 38 39  1  0  0  0
 38 40  2  0  0  0
  1  4  1  0  0  0
 29 30  1  0  0  0
 29 31  1  0  0  0
  6  9  1  0  0  0
 12 15  1  0  0  0
 17 21  1  0  0  0
 35 36  1  0  0  0
 45 46  1  0  0  0
 48 50  1  0  0  0
 48 51  1  0  0  0
 49 52  1  0  0  0
 39 41  1  0  0  0
M  END
> <minimizedAffinity>
-6.85215

> <CNNscore>
0.3982092738

> <CNNaffinity>
6.8901205063

> <CNN_VS>
2.7437098026

> <CNNaffinity_variance>
0.2489283383

$$$$
[H]N=C(N([H])[H])N([H])C([H])([H])C([H])([H])C([H])([H])[C@@]([H])(C(=O)O[H])N([H])C(=O)[C@@]([H])(N([H])C(=O)[C@@]([H])(N([H])C(=O)[C@]([H])(N([H])C(=O)[C@@]([H])(N([H])C(=O)C([H])([H])[H])C([H])(C([H])([H])[H])C([H])([H])[H])C([H])([H])[H])C([H])([H])C([H])([H])C([H])([H])C([H])([H])N([H])[H])C([H])([H])C([H])(C([H])([H])[H])C([H])([H])[H]


 56 55  0  0  0  0  0  0  0  0999 V2000
   39.0229   13.7661  -14.1304 N   0  0  0  0  0  0  0  0  0  0  0  0
   37.9982   13.0025  -13.5346 C   0  0  0  0  0  0  0  0  0  0  0  0
   38.0451   11.7253  -13.6021 O   0  0  0  0  0  0  0  0  0  0  0  0
   39.0243   14.7950  -14.0427 H   0  0  0  0  0  0  0  0  0  0  0  0
   36.8732   13.5764  -12.8269 C   0  0  0  0  0  0  0  0  0  0  0  0
   37.1800   13.9078  -11.4703 N   0  0  0  0  0  0  0  0  0  0  0  0
   37.9527   15.0775  -11.2190 C   0  0  0  0  0  0  0  0  0  0  0  0
   38.3584   15.8003  -12.1305 O   0  0  0  0  0  0  0  0  0  0  0  0
   36.8528   13.3065  -10.6760 H   0  0  0  0  0  0  0  0  0  0  0  0
   38.2595   15.3874   -9.7824 C   0  0  0  0  0  0  0  0  0  0  0  0
   39.4472   16.3261   -9.6878 C   0  0  0  0  0  0  0  0  0  0  0  0
   37.0655   15.8855   -9.1721 N   0  0  0  0  0  0  0  0  0  0  0  0
   36.3151   15.1523   -8.2396 C   0  0  0  0  0  0  0  0  0  0  0  0
   36.7188   13.9942   -7.9331 O   0  0  0  0  0  0  0  0  0  0  0  0
   36.7605   16.8503   -9.4648 H   0  0  0  0  0  0  0  0  0  0  0  0
   35.1079   15.7447   -7.6587 C   0  0  0  0  0  0  0  0  0  0  0  0
   34.1603   14.8478   -7.0889 N   0  0  0  0  0  0  0  0  0  0  0  0
   32.7584   14.9031   -7.3782 C   0  0  0  0  0  0  0  0  0  0  0  0
   31.8165   13.9487   -6.7482 C   0  0  0  0  0  0  0  0  0  0  0  0
   32.3393   15.7691   -8.1658 O   0  0  0  0  0  0  0  0  0  0  0  0
   34.4712   14.1066   -6.4256 H   0  0  0  0  0  0  0  0  0  0  0  0
   35.4990   16.8655   -6.7090 C   0  0  0  0  0  0  0  0  0  0  0  0
   35.1128   16.6318   -5.2900 C   0  0  0  0  0  0  0  0  0  0  0  0
   34.7800   18.1359   -7.1576 C   0  0  0  0  0  0  0  0  0  0  0  0
   36.0123   14.5764  -13.5203 C   0  0  0  0  0  0  0  0  0  0  0  0
   35.2900   13.9627  -14.7149 C   0  0  0  0  0  0  0  0  0  0  0  0
   33.8937   13.5348  -14.3537 C   0  0  0  0  0  0  0  0  0  0  0  0
   33.4835   14.0455  -13.0076 C   0  0  0  0  0  0  0  0  0  0  0  0
   32.0219   14.0900  -12.8892 N   0  0  0  0  0  0  0  0  0  0  0  0
   31.5977   13.1490  -12.8911 H   0  0  0  0  0  0  0  0  0  0  0  0
   31.6179   14.6710  -13.6683 H   0  0  0  0  0  0  0  0  0  0  0  0
   40.1327   13.1557  -14.8440 C   0  0  0  0  0  0  0  0  0  0  0  0
   41.4494   13.6437  -14.4081 C   0  0  0  0  0  0  0  0  0  0  0  0
   42.4386   13.4359  -15.1513 O   0  0  0  0  0  0  0  0  0  0  0  0
   41.6314   14.3341  -13.1917 N   0  0  0  0  0  0  0  0  0  0  0  0
   40.8345   14.5006  -12.5665 H   0  0  0  0  0  0  0  0  0  0  0  0
   42.9482   14.7835  -12.8396 C   0  0  0  0  0  0  0  0  0  0  0  0
   43.6083   13.7957  -11.9083 C   0  0  0  0  0  0  0  0  0  0  0  0
   43.1004   13.6251  -10.6256 O   0  0  0  0  0  0  0  0  0  0  0  0
   44.6009   13.1076  -12.2193 O   0  0  0  0  0  0  0  0  0  0  0  0
   43.2148   14.4297  -10.0097 H   0  0  0  0  0  0  0  0  0  0  0  0
   42.9030   16.1419  -12.1284 C   0  0  0  0  0  0  0  0  0  0  0  0
   44.2391   16.7862  -12.1992 C   0  0  0  0  0  0  0  0  0  0  0  0
   44.8534   16.8624  -13.5472 C   0  0  0  0  0  0  0  0  0  0  0  0
   45.3618   18.1345  -13.9575 N   0  0  0  0  0  0  0  0  0  0  0  0
   45.5216   18.2685  -15.0168 H   0  0  0  0  0  0  0  0  0  0  0  0
   45.6709   19.2326  -13.1031 C   0  0  0  0  0  0  0  0  0  0  0  0
   46.8182   19.2246  -12.2798 N   0  0  0  0  0  0  0  0  0  0  0  0
   44.8953   20.2462  -13.0975 N   0  0  0  0  0  0  0  0  0  0  0  0
   46.8178   19.7232  -11.3812 H   0  0  0  0  0  0  0  0  0  0  0  0
   47.6613   18.7122  -12.5959 H   0  0  0  0  0  0  0  0  0  0  0  0
   45.0622   21.0739  -12.5019 H   0  0  0  0  0  0  0  0  0  0  0  0
   39.8936   13.0740  -16.3090 C   0  0  0  0  0  0  0  0  0  0  0  0
   40.2849   11.7456  -18.2919 C   0  0  0  0  0  0  0  0  0  0  0  0
   39.6102   11.7514  -16.8991 C   0  0  0  0  0  0  0  0  0  0  0  0
   38.1955   11.3464  -17.0733 C   0  0  0  0  0  0  0  0  0  0  0  0
 54 55  1  0  0  0
 55 56  1  0  0  0
 55 53  1  0  0  0
 53 32  1  0  0  0
 32  1  1  0  0  0
  1  2  1  0  0  0
  2  3  2  0  0  0
  2  5  1  0  0  0
  5 25  1  0  0  0
 25 26  1  0  0  0
 26 27  1  0  0  0
 27 28  1  0  0  0
 28 29  1  0  0  0
  5  6  1  0  0  0
  6  7  1  0  0  0
  7  8  2  0  0  0
  7 10  1  0  0  0
 10 11  1  0  0  0
 10 12  1  0  0  0
 12 13  1  0  0  0
 13 14  2  0  0  0
 13 16  1  0  0  0
 16 17  1  0  0  0
 17 18  1  0  0  0
 18 19  1  0  0  0
 18 20  2  0  0  0
 16 22  1  0  0  0
 22 23  1  0  0  0
 22 24  1  0  0  0
 32 33  1  0  0  0
 33 34  2  0  0  0
 33 35  1  0  0  0
 35 37  1  0  0  0
 37 42  1  0  0  0
 42 43  1  0  0  0
 43 44  1  0  0  0
 44 45  1  0  0  0
 45 47  1  0  0  0
 47 48  1  0  0  0
 47 49  2  0  0  0
 37 38  1  0  0  0
 38 39  1  0  0  0
 38 40  2  0  0  0
  1  4  1  0  0  0
 29 30  1  0  0  0
 29 31  1  0  0  0
  6  9  1  0  0  0
 12 15  1  0  0  0
 17 21  1  0  0  0
 35 36  1  0  0  0
 45 46  1  0  0  0
 48 50  1  0  0  0
 48 51  1  0  0  0
 49 52  1  0  0  0
 39 41  1  0  0  0
M  END
> <minimizedAffinity>
-7.47369

> <CNNscore>
0.3099360466

> <CNNaffinity>
6.6576890945

> <CNN_VS>
2.0634577274

> <CNNaffinity_variance>
0.2843103409

$$$$
[H]N=C(N([H])[H])N([H])C([H])([H])C([H])([H])C([H])([H])[C@@]([H])(C(=O)O[H])N([H])C(=O)[C@@]([H])(N([H])C(=O)[C@@]([H])(N([H])C(=O)[C@]([H])(N([H])C(=O)[C@@]([H])(N([H])C(=O)C([H])([H])[H])C([H])(C([H])([H])[H])C([H])([H])[H])C([H])([H])[H])C([H])([H])C([H])([H])C([H])([H])C([H])([H])N([H])[H])C([H])([H])C([H])(C([H])([H])[H])C([H])([H])[H]


 56 55  0  0  0  0  0  0  0  0999 V2000
   39.9120   14.6144  -12.6477 N   0  0  0  0  0  0  0  0  0  0  0  0
   39.1095   14.3902  -13.7852 C   0  0  0  0  0  0  0  0  0  0  0  0
   39.3045   15.0882  -14.8400 O   0  0  0  0  0  0  0  0  0  0  0  0
   39.7990   14.0268  -11.8061 H   0  0  0  0  0  0  0  0  0  0  0  0
   38.0601   13.3948  -13.8476 C   0  0  0  0  0  0  0  0  0  0  0  0
   36.7617   13.9659  -14.0273 N   0  0  0  0  0  0  0  0  0  0  0  0
   35.7122   13.5424  -13.1627 C   0  0  0  0  0  0  0  0  0  0  0  0
   35.8938   12.7063  -12.2762 O   0  0  0  0  0  0  0  0  0  0  0  0
   36.5782   14.6744  -14.7781 H   0  0  0  0  0  0  0  0  0  0  0  0
   34.3624   14.1599  -13.3878 C   0  0  0  0  0  0  0  0  0  0  0  0
   33.5458   13.3085  -14.3412 C   0  0  0  0  0  0  0  0  0  0  0  0
   33.7509   14.3650  -12.1110 N   0  0  0  0  0  0  0  0  0  0  0  0
   34.1032   15.4160  -11.2498 C   0  0  0  0  0  0  0  0  0  0  0  0
   35.0093   16.2129  -11.6268 O   0  0  0  0  0  0  0  0  0  0  0  0
   33.0087   13.6712  -11.8332 H   0  0  0  0  0  0  0  0  0  0  0  0
   33.4183   15.5547   -9.9624 C   0  0  0  0  0  0  0  0  0  0  0  0
   34.0443   16.3797   -8.9853 N   0  0  0  0  0  0  0  0  0  0  0  0
   34.5853   15.8695   -7.7609 C   0  0  0  0  0  0  0  0  0  0  0  0
   35.2180   16.7772   -6.7757 C   0  0  0  0  0  0  0  0  0  0  0  0
   34.5134   14.6494   -7.5325 O   0  0  0  0  0  0  0  0  0  0  0  0
   34.1262   17.4071   -9.1396 H   0  0  0  0  0  0  0  0  0  0  0  0
   31.9635   15.9269  -10.1990 C   0  0  0  0  0  0  0  0  0  0  0  0
   31.3827   16.8260   -9.1636 C   0  0  0  0  0  0  0  0  0  0  0  0
   31.1388   14.6417  -10.1789 C   0  0  0  0  0  0  0  0  0  0  0  0
   38.2904   12.1442  -14.6253 C   0  0  0  0  0  0  0  0  0  0  0  0
   38.4769   12.4335  -16.1109 C   0  0  0  0  0  0  0  0  0  0  0  0
   39.8378   12.0060  -16.5886 C   0  0  0  0  0  0  0  0  0  0  0  0
   39.7786   11.3582  -17.9369 C   0  0  0  0  0  0  0  0  0  0  0  0
   40.5093   12.1528  -18.9304 N   0  0  0  0  0  0  0  0  0  0  0  0
   41.5260   12.1674  -18.7527 H   0  0  0  0  0  0  0  0  0  0  0  0
   40.1311   13.1348  -18.9508 H   0  0  0  0  0  0  0  0  0  0  0  0
   40.9501   15.6316  -12.6168 C   0  0  0  0  0  0  0  0  0  0  0  0
   42.3048   15.0928  -12.8076 C   0  0  0  0  0  0  0  0  0  0  0  0
   42.4708   14.1825  -13.6549 O   0  0  0  0  0  0  0  0  0  0  0  0
   43.4132   15.5660  -12.0750 N   0  0  0  0  0  0  0  0  0  0  0  0
   43.2917   16.3012  -11.3690 H   0  0  0  0  0  0  0  0  0  0  0  0
   44.7050   14.9921  -12.3235 C   0  0  0  0  0  0  0  0  0  0  0  0
   45.4240   14.7342  -11.0215 C   0  0  0  0  0  0  0  0  0  0  0  0
   46.3835   13.7302  -10.9609 O   0  0  0  0  0  0  0  0  0  0  0  0
   45.2099   15.3753   -9.9733 O   0  0  0  0  0  0  0  0  0  0  0  0
   46.0185   12.7831  -11.0588 H   0  0  0  0  0  0  0  0  0  0  0  0
   45.5798   15.9293  -13.1657 C   0  0  0  0  0  0  0  0  0  0  0  0
   45.6992   15.3937  -14.5455 C   0  0  0  0  0  0  0  0  0  0  0  0
   45.9650   13.9386  -14.6572 C   0  0  0  0  0  0  0  0  0  0  0  0
   45.8224   13.3505  -15.9529 N   0  0  0  0  0  0  0  0  0  0  0  0
   46.6411   13.5000  -16.6406 H   0  0  0  0  0  0  0  0  0  0  0  0
   44.7091   12.5890  -16.4135 C   0  0  0  0  0  0  0  0  0  0  0  0
   43.4089   13.1384  -16.4573 N   0  0  0  0  0  0  0  0  0  0  0  0
   44.9026   11.3897  -16.8047 N   0  0  0  0  0  0  0  0  0  0  0  0
   42.5852   12.5376  -16.3284 H   0  0  0  0  0  0  0  0  0  0  0  0
   43.2970   14.1547  -16.6246 H   0  0  0  0  0  0  0  0  0  0  0  0
   44.1392   10.7847  -17.1496 H   0  0  0  0  0  0  0  0  0  0  0  0
   40.7606   16.6073  -11.5112 C   0  0  0  0  0  0  0  0  0  0  0  0
   38.8986   17.1949  -10.0839 C   0  0  0  0  0  0  0  0  0  0  0  0
   40.0333   16.1660  -10.3054 C   0  0  0  0  0  0  0  0  0  0  0  0
   40.7873   16.0348   -9.0366 C   0  0  0  0  0  0  0  0  0  0  0  0
 54 55  1  0  0  0
 55 56  1  0  0  0
 55 53  1  0  0  0
 53 32  1  0  0  0
 32  1  1  0  0  0
  1  2  1  0  0  0
  2  3  2  0  0  0
  2  5  1  0  0  0
  5 25  1  0  0  0
 25 26  1  0  0  0
 26 27  1  0  0  0
 27 28  1  0  0  0
 28 29  1  0  0  0
  5  6  1  0  0  0
  6  7  1  0  0  0
  7  8  2  0  0  0
  7 10  1  0  0  0
 10 11  1  0  0  0
 10 12  1  0  0  0
 12 13  1  0  0  0
 13 14  2  0  0  0
 13 16  1  0  0  0
 16 17  1  0  0  0
 17 18  1  0  0  0
 18 19  1  0  0  0
 18 20  2  0  0  0
 16 22  1  0  0  0
 22 23  1  0  0  0
 22 24  1  0  0  0
 32 33  1  0  0  0
 33 34  2  0  0  0
 33 35  1  0  0  0
 35 37  1  0  0  0
 37 42  1  0  0  0
 42 43  1  0  0  0
 43 44  1  0  0  0
 44 45  1  0  0  0
 45 47  1  0  0  0
 47 48  1  0  0  0
 47 49  2  0  0  0
 37 38  1  0  0  0
 38 39  1  0  0  0
 38 40  2  0  0  0
  1  4  1  0  0  0
 29 30  1  0  0  0
 29 31  1  0  0  0
  6  9  1  0  0  0
 12 15  1  0  0  0
 17 21  1  0  0  0
 35 36  1  0  0  0
 45 46  1  0  0  0
 48 50  1  0  0  0
 48 51  1  0  0  0
 49 52  1  0  0  0
 39 41  1  0  0  0
M  END
> <minimizedAffinity>
-6.66260

> <CNNscore>
0.2567389011

> <CNNaffinity>
6.6901893616

> <CNN_VS>
1.7176318169

> <CNNaffinity_variance>
0.2058156282

$$$$
[H]N=C(N([H])[H])N([H])C([H])([H])C([H])([H])C([H])([H])[C@@]([H])(C(=O)O[H])N([H])C(=O)[C@@]([H])(N([H])C(=O)[C@@]([H])(N([H])C(=O)[C@]([H])(N([H])C(=O)[C@@]([H])(N([H])C(=O)C([H])([H])[H])C([H])(C([H])([H])[H])C([H])([H])[H])C([H])([H])[H])C([H])([H])C([H])([H])C([H])([H])C([H])([H])N([H])[H])C([H])([H])C([H])(C([H])([H])[H])C([H])([H])[H]


 56 55  0  0  0  0  0  0  0  0999 V2000
   38.7502   13.6265  -13.5625 N   0  0  0  0  0  0  0  0  0  0  0  0
   39.3852   14.8820  -13.6554 C   0  0  0  0  0  0  0  0  0  0  0  0
   39.5207   15.4351  -14.8015 O   0  0  0  0  0  0  0  0  0  0  0  0
   38.5904   13.1902  -12.6403 H   0  0  0  0  0  0  0  0  0  0  0  0
   39.8997   15.6111  -12.5154 C   0  0  0  0  0  0  0  0  0  0  0  0
   39.3910   15.1271  -11.2699 N   0  0  0  0  0  0  0  0  0  0  0  0
   38.8425   16.0688  -10.3529 C   0  0  0  0  0  0  0  0  0  0  0  0
   38.7974   17.2742  -10.6036 O   0  0  0  0  0  0  0  0  0  0  0  0
   39.4230   14.1073  -11.0286 H   0  0  0  0  0  0  0  0  0  0  0  0
   38.3254   15.5224   -9.0537 C   0  0  0  0  0  0  0  0  0  0  0  0
   39.4086   14.7302   -8.3467 C   0  0  0  0  0  0  0  0  0  0  0  0
   37.8020   16.6139   -8.2914 N   0  0  0  0  0  0  0  0  0  0  0  0
   36.4641   16.6880   -7.8732 C   0  0  0  0  0  0  0  0  0  0  0  0
   35.6895   15.7419   -8.1941 O   0  0  0  0  0  0  0  0  0  0  0  0
   38.4800   17.3848   -8.0557 H   0  0  0  0  0  0  0  0  0  0  0  0
   36.0160   17.8408   -7.0884 C   0  0  0  0  0  0  0  0  0  0  0  0
   35.9216   19.0870   -7.7705 N   0  0  0  0  0  0  0  0  0  0  0  0
   36.5561   20.2839   -7.3047 C   0  0  0  0  0  0  0  0  0  0  0  0
   36.4157   21.5558   -8.0514 C   0  0  0  0  0  0  0  0  0  0  0  0
   37.2264   20.2427   -6.2584 O   0  0  0  0  0  0  0  0  0  0  0  0
   35.3708   19.1632   -8.6518 H   0  0  0  0  0  0  0  0  0  0  0  0
   34.7406   17.4824   -6.3428 C   0  0  0  0  0  0  0  0  0  0  0  0
   33.5760   18.3537   -6.6625 C   0  0  0  0  0  0  0  0  0  0  0  0
   35.0092   17.6375   -4.8475 C   0  0  0  0  0  0  0  0  0  0  0  0
   41.3426   15.9838  -12.4825 C   0  0  0  0  0  0  0  0  0  0  0  0
   42.2374   14.7935  -12.8106 C   0  0  0  0  0  0  0  0  0  0  0  0
   43.5523   14.8765  -12.0845 C   0  0  0  0  0  0  0  0  0  0  0  0
   43.6479   13.8656  -10.9845 C   0  0  0  0  0  0  0  0  0  0  0  0
   44.2890   12.6348  -11.4607 N   0  0  0  0  0  0  0  0  0  0  0  0
   45.2835   12.7755  -11.6990 H   0  0  0  0  0  0  0  0  0  0  0  0
   43.7667   12.2591  -12.2936 H   0  0  0  0  0  0  0  0  0  0  0  0
   38.2555   12.9170  -14.7310 C   0  0  0  0  0  0  0  0  0  0  0  0
   36.9250   12.3223  -14.5361 C   0  0  0  0  0  0  0  0  0  0  0  0
   36.6680   11.7843  -13.4322 O   0  0  0  0  0  0  0  0  0  0  0  0
   35.9375   12.3407  -15.5430 N   0  0  0  0  0  0  0  0  0  0  0  0
   36.1367   12.7655  -16.4560 H   0  0  0  0  0  0  0  0  0  0  0  0
   34.6607   11.7435  -15.2731 C   0  0  0  0  0  0  0  0  0  0  0  0
   34.2628   10.8230  -16.4014 C   0  0  0  0  0  0  0  0  0  0  0  0
   33.0708   11.0522  -17.0790 O   0  0  0  0  0  0  0  0  0  0  0  0
   34.9466    9.8490  -16.7745 O   0  0  0  0  0  0  0  0  0  0  0  0
   32.2280   10.8972  -16.5262 H   0  0  0  0  0  0  0  0  0  0  0  0
   33.5660   12.8080  -15.1269 C   0  0  0  0  0  0  0  0  0  0  0  0
   34.0740   13.9356  -14.3049 C   0  0  0  0  0  0  0  0  0  0  0  0
   33.4557   14.0941  -12.9659 C   0  0  0  0  0  0  0  0  0  0  0  0
   34.1076   14.9788  -12.0508 N   0  0  0  0  0  0  0  0  0  0  0  0
   33.4668   15.5455  -11.3922 H   0  0  0  0  0  0  0  0  0  0  0  0
   35.5138   15.1758  -11.9280 C   0  0  0  0  0  0  0  0  0  0  0  0
   36.1100   16.4238  -12.2134 N   0  0  0  0  0  0  0  0  0  0  0  0
   36.2409   14.2016  -11.5392 N   0  0  0  0  0  0  0  0  0  0  0  0
   37.0702   16.4713  -12.5763 H   0  0  0  0  0  0  0  0  0  0  0  0
   35.5672   17.2907  -12.0484 H   0  0  0  0  0  0  0  0  0  0  0  0
   37.2655   14.2783  -11.4298 H   0  0  0  0  0  0  0  0  0  0  0  0
   39.2938   12.0585  -15.3595 C   0  0  0  0  0  0  0  0  0  0  0  0
   39.8885   11.5761  -17.6536 C   0  0  0  0  0  0  0  0  0  0  0  0
   40.0505   12.6002  -16.5047 C   0  0  0  0  0  0  0  0  0  0  0  0
   41.4974   12.8678  -16.3298 C   0  0  0  0  0  0  0  0  0  0  0  0
 54 55  1  0  0  0
 55 56  1  0  0  0
 55 53  1  0  0  0
 53 32  1  0  0  0
 32  1  1  0  0  0
  1  2  1  0  0  0
  2  3  2  0  0  0
  2  5  1  0  0  0
  5 25  1  0  0  0
 25 26  1  0  0  0
 26 27  1  0  0  0
 27 28  1  0  0  0
 28 29  1  0  0  0
  5  6  1  0  0  0
  6  7  1  0  0  0
  7  8  2  0  0  0
  7 10  1  0  0  0
 10 11  1  0  0  0
 10 12  1  0  0  0
 12 13  1  0  0  0
 13 14  2  0  0  0
 13 16  1  0  0  0
 16 17  1  0  0  0
 17 18  1  0  0  0
 18 19  1  0  0  0
 18 20  2  0  0  0
 16 22  1  0  0  0
 22 23  1  0  0  0
 22 24  1  0  0  0
 32 33  1  0  0  0
 33 34  2  0  0  0
 33 35  1  0  0  0
 35 37  1  0  0  0
 37 42  1  0  0  0
 42 43  1  0  0  0
 43 44  1  0  0  0
 44 45  1  0  0  0
 45 47  1  0  0  0
 47 48  1  0  0  0
 47 49  2  0  0  0
 37 38  1  0  0  0
 38 39  1  0  0  0
 38 40  2  0  0  0
  1  4  1  0  0  0
 29 30  1  0  0  0
 29 31  1  0  0  0
  6  9  1  0  0  0
 12 15  1  0  0  0
 17 21  1  0  0  0
 35 36  1  0  0  0
 45 46  1  0  0  0
 48 50  1  0  0  0
 48 51  1  0  0  0
 49 52  1  0  0  0
 39 41  1  0  0  0
M  END
> <minimizedAffinity>
-6.90905

> <CNNscore>
0.2477989644

> <CNNaffinity>
6.6455297470

> <CNN_VS>
1.6467553377

> <CNNaffinity_variance>
0.6463786960

$$$$
[H]N=C(N([H])[H])N([H])C([H])([H])C([H])([H])C([H])([H])[C@@]([H])(C(=O)O[H])N([H])C(=O)[C@@]([H])(N([H])C(=O)[C@@]([H])(N([H])C(=O)[C@]([H])(N([H])C(=O)[C@@]([H])(N([H])C(=O)C([H])([H])[H])C([H])(C([H])([H])[H])C([H])([H])[H])C([H])([H])[H])C([H])([H])C([H])([H])C([H])([H])C([H])([H])N([H])[H])C([H])([H])C([H])(C([H])([H])[H])C([H])([H])[H]


 56 55  0  0  0  0  0  0  0  0999 V2000
   38.4396   13.4917  -13.0306 N   0  0  0  0  0  0  0  0  0  0  0  0
   39.1669   14.1588  -14.0377 C   0  0  0  0  0  0  0  0  0  0  0  0
   38.7416   15.2811  -14.4822 O   0  0  0  0  0  0  0  0  0  0  0  0
   38.7954   12.6099  -12.6281 H   0  0  0  0  0  0  0  0  0  0  0  0
   40.3962   13.6543  -14.6123 C   0  0  0  0  0  0  0  0  0  0  0  0
   41.4653   13.5848  -13.6655 N   0  0  0  0  0  0  0  0  0  0  0  0
   42.8026   13.5943  -14.1552 C   0  0  0  0  0  0  0  0  0  0  0  0
   43.0567   13.6591  -15.3590 O   0  0  0  0  0  0  0  0  0  0  0  0
   41.2770   13.5223  -12.6359 H   0  0  0  0  0  0  0  0  0  0  0  0
   43.8968   13.5128  -13.1304 C   0  0  0  0  0  0  0  0  0  0  0  0
   45.1283   14.2543  -13.6142 C   0  0  0  0  0  0  0  0  0  0  0  0
   43.3744   13.9882  -11.8864 N   0  0  0  0  0  0  0  0  0  0  0  0
   43.6459   13.3742  -10.6536 C   0  0  0  0  0  0  0  0  0  0  0  0
   44.3854   12.3489  -10.6522 O   0  0  0  0  0  0  0  0  0  0  0  0
   42.7547   14.8385  -11.9360 H   0  0  0  0  0  0  0  0  0  0  0  0
   43.0741   13.9344   -9.4268 C   0  0  0  0  0  0  0  0  0  0  0  0
   42.4958   13.0141   -8.5071 N   0  0  0  0  0  0  0  0  0  0  0  0
   41.2243   13.2268   -7.8824 C   0  0  0  0  0  0  0  0  0  0  0  0
   40.6756   12.2382   -6.9251 C   0  0  0  0  0  0  0  0  0  0  0  0
   40.5855   14.2589   -8.1522 O   0  0  0  0  0  0  0  0  0  0  0  0
   42.9984   12.1365   -8.2559 H   0  0  0  0  0  0  0  0  0  0  0  0
   44.0863   14.8603   -8.7718 C   0  0  0  0  0  0  0  0  0  0  0  0
   44.5115   14.4400   -7.4079 C   0  0  0  0  0  0  0  0  0  0  0  0
   43.4414   16.2370   -8.6272 C   0  0  0  0  0  0  0  0  0  0  0  0
   40.3379   12.5001  -15.5538 C   0  0  0  0  0  0  0  0  0  0  0  0
   39.0161   12.4613  -16.3130 C   0  0  0  0  0  0  0  0  0  0  0  0
   39.0093   11.3728  -17.3515 C   0  0  0  0  0  0  0  0  0  0  0  0
   40.1839   11.4737  -18.2742 C   0  0  0  0  0  0  0  0  0  0  0  0
   39.7845   11.2022  -19.6595 N   0  0  0  0  0  0  0  0  0  0  0  0
   39.1601   11.9311  -20.0395 H   0  0  0  0  0  0  0  0  0  0  0  0
   39.3194   10.2599  -19.7191 H   0  0  0  0  0  0  0  0  0  0  0  0
   37.2015   14.0228  -12.4843 C   0  0  0  0  0  0  0  0  0  0  0  0
   37.3902   14.7969  -11.2486 C   0  0  0  0  0  0  0  0  0  0  0  0
   38.4261   15.4955  -11.1348 O   0  0  0  0  0  0  0  0  0  0  0  0
   36.4490   14.7795  -10.1983 N   0  0  0  0  0  0  0  0  0  0  0  0
   35.6029   14.2029  -10.2707 H   0  0  0  0  0  0  0  0  0  0  0  0
   36.7034   15.5674   -9.0260 C   0  0  0  0  0  0  0  0  0  0  0  0
   36.9402   14.6726   -7.8335 C   0  0  0  0  0  0  0  0  0  0  0  0
   37.9506   14.9910   -6.9334 O   0  0  0  0  0  0  0  0  0  0  0  0
   36.2756   13.6442   -7.5966 O   0  0  0  0  0  0  0  0  0  0  0  0
   38.8965   14.9083   -7.3054 H   0  0  0  0  0  0  0  0  0  0  0  0
   35.5158   16.4816   -8.6991 C   0  0  0  0  0  0  0  0  0  0  0  0
   34.2472   15.7986   -9.0591 C   0  0  0  0  0  0  0  0  0  0  0  0
   33.2566   15.6488   -7.9652 C   0  0  0  0  0  0  0  0  0  0  0  0
   33.1654   14.3639   -7.3439 N   0  0  0  0  0  0  0  0  0  0  0  0
   33.0301   13.5203   -8.0038 H   0  0  0  0  0  0  0  0  0  0  0  0
   33.2396   14.0981   -5.9456 C   0  0  0  0  0  0  0  0  0  0  0  0
   34.4296   14.3155   -5.2170 N   0  0  0  0  0  0  0  0  0  0  0  0
   32.1998   13.6664   -5.3445 N   0  0  0  0  0  0  0  0  0  0  0  0
   34.6524   13.7354   -4.3986 H   0  0  0  0  0  0  0  0  0  0  0  0
   35.0729   15.0702   -5.5170 H   0  0  0  0  0  0  0  0  0  0  0  0
   32.1868   13.4543   -4.3333 H   0  0  0  0  0  0  0  0  0  0  0  0
   36.0988   13.0258  -12.4952 C   0  0  0  0  0  0  0  0  0  0  0  0
   35.4099   13.7704  -14.6908 C   0  0  0  0  0  0  0  0  0  0  0  0
   34.8982   13.3190  -13.3017 C   0  0  0  0  0  0  0  0  0  0  0  0
   33.9503   14.3447  -12.8068 C   0  0  0  0  0  0  0  0  0  0  0  0
 54 55  1  0  0  0
 55 56  1  0  0  0
 55 53  1  0  0  0
 53 32  1  0  0  0
 32  1  1  0  0  0
  1  2  1  0  0  0
  2  3  2  0  0  0
  2  5  1  0  0  0
  5 25  1  0  0  0
 25 26  1  0  0  0
 26 27  1  0  0  0
 27 28  1  0  0  0
 28 29  1  0  0  0
  5  6  1  0  0  0
  6  7  1  0  0  0
  7  8  2  0  0  0
  7 10  1  0  0  0
 10 11  1  0  0  0
 10 12  1  0  0  0
 12 13  1  0  0  0
 13 14  2  0  0  0
 13 16  1  0  0  0
 16 17  1  0  0  0
 17 18  1  0  0  0
 18 19  1  0  0  0
 18 20  2  0  0  0
 16 22  1  0  0  0
 22 23  1  0  0  0
 22 24  1  0  0  0
 32 33  1  0  0  0
 33 34  2  0  0  0
 33 35  1  0  0  0
 35 37  1  0  0  0
 37 42  1  0  0  0
 42 43  1  0  0  0
 43 44  1  0  0  0
 44 45  1  0  0  0
 45 47  1  0  0  0
 47 48  1  0  0  0
 47 49  2  0  0  0
 37 38  1  0  0  0
 38 39  1  0  0  0
 38 40  2  0  0  0
  1  4  1  0  0  0
 29 30  1  0  0  0
 29 31  1  0  0  0
  6  9  1  0  0  0
 12 15  1  0  0  0
 17 21  1  0  0  0
 35 36  1  0  0  0
 45 46  1  0  0  0
 48 50  1  0  0  0
 48 51  1  0  0  0
 49 52  1  0  0  0
 39 41  1  0  0  0
M  END
> <minimizedAffinity>
-6.89711

> <CNNscore>
0.2361144572

> <CNNaffinity>
6.5465002060

> <CNN_VS>
1.5457233191

> <CNNaffinity_variance>
0.3227675259

$$$$
[H]N=C(N([H])[H])N([H])C([H])([H])C([H])([H])C([H])([H])[C@@]([H])(C(=O)O[H])N([H])C(=O)[C@@]([H])(N([H])C(=O)[C@@]([H])(N([H])C(=O)[C@]([H])(N([H])C(=O)[C@@]([H])(N([H])C(=O)C([H])([H])[H])C([H])(C([H])([H])[H])C([H])([H])[H])C([H])([H])[H])C([H])([H])C([H])([H])C([H])([H])C([H])([H])N([H])[H])C([H])([H])C([H])(C([H])([H])[H])C([H])([H])[H]


 56 55  0  0  0  0  0  0  0  0999 V2000
   35.0233   15.3308   -9.9630 N   0  0  0  0  0  0  0  0  0  0  0  0
   35.2508   14.9135   -8.6355 C   0  0  0  0  0  0  0  0  0  0  0  0
   36.2126   14.1070   -8.3856 O   0  0  0  0  0  0  0  0  0  0  0  0
   34.2822   16.0183  -10.1735 H   0  0  0  0  0  0  0  0  0  0  0  0
   34.4579   15.3515   -7.5061 C   0  0  0  0  0  0  0  0  0  0  0  0
   34.8428   16.6409   -7.0228 N   0  0  0  0  0  0  0  0  0  0  0  0
   35.4452   16.7272   -5.7352 C   0  0  0  0  0  0  0  0  0  0  0  0
   35.6392   15.7309   -5.0370 O   0  0  0  0  0  0  0  0  0  0  0  0
   34.6832   17.5057   -7.5938 H   0  0  0  0  0  0  0  0  0  0  0  0
   35.8286   18.0990   -5.2606 C   0  0  0  0  0  0  0  0  0  0  0  0
   37.3239   18.1738   -5.0174 C   0  0  0  0  0  0  0  0  0  0  0  0
   35.3386   19.0493   -6.2110 N   0  0  0  0  0  0  0  0  0  0  0  0
   35.2371   20.4232   -5.9421 C   0  0  0  0  0  0  0  0  0  0  0  0
   35.5940   20.8317   -4.8003 O   0  0  0  0  0  0  0  0  0  0  0  0
   35.0427   18.6633   -7.1453 H   0  0  0  0  0  0  0  0  0  0  0  0
   34.7307   21.3260   -6.9786 C   0  0  0  0  0  0  0  0  0  0  0  0
   33.3989   21.1048   -7.4308 N   0  0  0  0  0  0  0  0  0  0  0  0
   32.3224   20.7548   -6.5528 C   0  0  0  0  0  0  0  0  0  0  0  0
   30.9571   20.5273   -7.0812 C   0  0  0  0  0  0  0  0  0  0  0  0
   32.5503   20.6399   -5.3360 O   0  0  0  0  0  0  0  0  0  0  0  0
   33.1662   21.1930   -8.4427 H   0  0  0  0  0  0  0  0  0  0  0  0
   34.9764   22.7669   -6.5609 C   0  0  0  0  0  0  0  0  0  0  0  0
   33.9630   23.7346   -7.0651 C   0  0  0  0  0  0  0  0  0  0  0  0
   36.3234   23.2010   -7.1347 C   0  0  0  0  0  0  0  0  0  0  0  0
   32.9858   15.1179   -7.5179 C   0  0  0  0  0  0  0  0  0  0  0  0
   32.2505   16.2094   -8.2882 C   0  0  0  0  0  0  0  0  0  0  0  0
   31.0504   16.7059   -7.5291 C   0  0  0  0  0  0  0  0  0  0  0  0
   31.3927   17.0678   -6.1174 C   0  0  0  0  0  0  0  0  0  0  0  0
   30.1878   17.4370   -5.3662 N   0  0  0  0  0  0  0  0  0  0  0  0
   29.5507   16.6370   -5.2256 H   0  0  0  0  0  0  0  0  0  0  0  0
   29.6845   18.2184   -5.8597 H   0  0  0  0  0  0  0  0  0  0  0  0
   35.8332   14.8611  -11.0752 C   0  0  0  0  0  0  0  0  0  0  0  0
   37.0481   15.6598  -11.2943 C   0  0  0  0  0  0  0  0  0  0  0  0
   36.9221   16.8870  -11.5227 O   0  0  0  0  0  0  0  0  0  0  0  0
   38.3390   15.0931  -11.2532 N   0  0  0  0  0  0  0  0  0  0  0  0
   38.4582   14.0883  -11.0804 H   0  0  0  0  0  0  0  0  0  0  0  0
   39.4760   15.9412  -11.4718 C   0  0  0  0  0  0  0  0  0  0  0  0
   40.2510   15.4786  -12.6818 C   0  0  0  0  0  0  0  0  0  0  0  0
   39.8902   14.2912  -13.3083 O   0  0  0  0  0  0  0  0  0  0  0  0
   41.2146   16.1037  -13.1677 O   0  0  0  0  0  0  0  0  0  0  0  0
   40.0583   13.4491  -12.7583 H   0  0  0  0  0  0  0  0  0  0  0  0
   40.4273   15.9210  -10.2686 C   0  0  0  0  0  0  0  0  0  0  0  0
   39.6724   15.5577   -9.0425 C   0  0  0  0  0  0  0  0  0  0  0  0
   39.0965   16.6887   -8.2747 C   0  0  0  0  0  0  0  0  0  0  0  0
   38.8033   17.8843   -9.0024 N   0  0  0  0  0  0  0  0  0  0  0  0
   39.4691   18.1257   -9.8173 H   0  0  0  0  0  0  0  0  0  0  0  0
   37.7198   18.7764   -8.7539 C   0  0  0  0  0  0  0  0  0  0  0  0
   37.9432   20.1231   -8.3923 N   0  0  0  0  0  0  0  0  0  0  0  0
   36.5253   18.3437   -8.8753 N   0  0  0  0  0  0  0  0  0  0  0  0
   37.2750   20.6176   -7.7881 H   0  0  0  0  0  0  0  0  0  0  0  0
   38.7878   20.6065   -8.7476 H   0  0  0  0  0  0  0  0  0  0  0  0
   35.6964   18.9380   -8.7096 H   0  0  0  0  0  0  0  0  0  0  0  0
   35.0189   14.5274  -12.2734 C   0  0  0  0  0  0  0  0  0  0  0  0
   34.4869   13.3863  -14.3384 C   0  0  0  0  0  0  0  0  0  0  0  0
   35.5771   13.5796  -13.2571 C   0  0  0  0  0  0  0  0  0  0  0  0
   35.9967   12.2394  -12.7844 C   0  0  0  0  0  0  0  0  0  0  0  0
 54 55  1  0  0  0
 55 56  1  0  0  0
 55 53  1  0  0  0
 53 32  1  0  0  0
 32  1  1  0  0  0
  1  2  1  0  0  0
  2  3  2  0  0  0
  2  5  1  0  0  0
  5 25  1  0  0  0
 25 26  1  0  0  0
 26 27  1  0  0  0
 27 28  1  0  0  0
 28 29  1  0  0  0
  5  6  1  0  0  0
  6  7  1  0  0  0
  7  8  2  0  0  0
  7 10  1  0  0  0
 10 11  1  0  0  0
 10 12  1  0  0  0
 12 13  1  0  0  0
 13 14  2  0  0  0
 13 16  1  0  0  0
 16 17  1  0  0  0
 17 18  1  0  0  0
 18 19  1  0  0  0
 18 20  2  0  0  0
 16 22  1  0  0  0
 22 23  1  0  0  0
 22 24  1  0  0  0
 32 33  1  0  0  0
 33 34  2  0  0  0
 33 35  1  0  0  0
 35 37  1  0  0  0
 37 42  1  0  0  0
 42 43  1  0  0  0
 43 44  1  0  0  0
 44 45  1  0  0  0
 45 47  1  0  0  0
 47 48  1  0  0  0
 47 49  2  0  0  0
 37 38  1  0  0  0
 38 39  1  0  0  0
 38 40  2  0  0  0
  1  4  1  0  0  0
 29 30  1  0  0  0
 29 31  1  0  0  0
  6  9  1  0  0  0
 12 15  1  0  0  0
 17 21  1  0  0  0
 35 36  1  0  0  0
 45 46  1  0  0  0
 48 50  1  0  0  0
 48 51  1  0  0  0
 49 52  1  0  0  0
 39 41  1  0  0  0
M  END
> <minimizedAffinity>
-6.03393

> <CNNscore>
0.2292666435

> <CNNaffinity>
6.3417863846

> <CNN_VS>
1.4539600611

> <CNNaffinity_variance>
1.1082361937

$$$$
[H]N=C(N([H])[H])N([H])C([H])([H])C([H])([H])C([H])([H])[C@@]([H])(C(=O)O[H])N([H])C(=O)[C@@]([H])(N([H])C(=O)[C@@]([H])(N([H])C(=O)[C@]([H])(N([H])C(=O)[C@@]([H])(N([H])C(=O)C([H])([H])[H])C([H])(C([H])([H])[H])C([H])([H])[H])C([H])([H])[H])C([H])([H])C([H])([H])C([H])([H])C([H])([H])N([H])[H])C([H])([H])C([H])(C([H])([H])[H])C([H])([H])[H]


 56 55  0  0  0  0  0  0  0  0999 V2000
   39.1712   15.1363  -11.6818 N   0  0  0  0  0  0  0  0  0  0  0  0
   39.0204   14.6846  -13.0090 C   0  0  0  0  0  0  0  0  0  0  0  0
   39.7818   15.1549  -13.9239 O   0  0  0  0  0  0  0  0  0  0  0  0
   38.5972   14.7311  -10.9250 H   0  0  0  0  0  0  0  0  0  0  0  0
   38.0458   13.6951  -13.4177 C   0  0  0  0  0  0  0  0  0  0  0  0
   36.7412   14.2467  -13.6125 N   0  0  0  0  0  0  0  0  0  0  0  0
   35.6627   13.7160  -12.8484 C   0  0  0  0  0  0  0  0  0  0  0  0
   35.8249   12.8047  -12.0353 O   0  0  0  0  0  0  0  0  0  0  0  0
   36.5742   15.0181  -14.3027 H   0  0  0  0  0  0  0  0  0  0  0  0
   34.3076   14.3167  -13.0869 C   0  0  0  0  0  0  0  0  0  0  0  0
   33.4464   13.3685  -13.8993 C   0  0  0  0  0  0  0  0  0  0  0  0
   33.7527   14.6749  -11.8179 N   0  0  0  0  0  0  0  0  0  0  0  0
   34.2979   15.6725  -10.9945 C   0  0  0  0  0  0  0  0  0  0  0  0
   35.3324   16.2756  -11.3995 O   0  0  0  0  0  0  0  0  0  0  0  0
   32.8975   14.1395  -11.5157 H   0  0  0  0  0  0  0  0  0  0  0  0
   33.6586   15.9793   -9.7127 C   0  0  0  0  0  0  0  0  0  0  0  0
   32.5833   15.1370   -9.3112 N   0  0  0  0  0  0  0  0  0  0  0  0
   31.2450   15.6125   -9.1233 C   0  0  0  0  0  0  0  0  0  0  0  0
   30.1667   14.6911   -8.6953 C   0  0  0  0  0  0  0  0  0  0  0  0
   30.9995   16.8152   -9.3212 O   0  0  0  0  0  0  0  0  0  0  0  0
   32.7471   14.1227   -9.1370 H   0  0  0  0  0  0  0  0  0  0  0  0
   34.7228   16.1247   -8.6368 C   0  0  0  0  0  0  0  0  0  0  0  0
   35.0580   14.8584   -7.9286 C   0  0  0  0  0  0  0  0  0  0  0  0
   34.1960   17.0937   -7.5806 C   0  0  0  0  0  0  0  0  0  0  0  0
   38.4322   12.6688  -14.4272 C   0  0  0  0  0  0  0  0  0  0  0  0
   37.8477   12.9840  -15.8000 C   0  0  0  0  0  0  0  0  0  0  0  0
   36.6818   12.0890  -16.1207 C   0  0  0  0  0  0  0  0  0  0  0  0
   37.1022   10.8811  -16.8987 C   0  0  0  0  0  0  0  0  0  0  0  0
   38.3150   11.1572  -17.6768 N   0  0  0  0  0  0  0  0  0  0  0  0
   39.1404   11.3143  -17.0772 H   0  0  0  0  0  0  0  0  0  0  0  0
   38.1571   11.9896  -18.3011 H   0  0  0  0  0  0  0  0  0  0  0  0
   40.1538   16.1408  -11.3093 C   0  0  0  0  0  0  0  0  0  0  0  0
   41.4597   15.5749  -10.9402 C   0  0  0  0  0  0  0  0  0  0  0  0
   41.7611   15.5138   -9.7239 O   0  0  0  0  0  0  0  0  0  0  0  0
   42.3742   15.1010  -11.9038 N   0  0  0  0  0  0  0  0  0  0  0  0
   42.1479   15.1560  -12.9035 H   0  0  0  0  0  0  0  0  0  0  0  0
   43.6270   14.5573  -11.4627 C   0  0  0  0  0  0  0  0  0  0  0  0
   44.6879   15.6311  -11.4448 C   0  0  0  0  0  0  0  0  0  0  0  0
   44.5261   16.7343  -10.6145 O   0  0  0  0  0  0  0  0  0  0  0  0
   45.7224   15.5943  -12.1405 O   0  0  0  0  0  0  0  0  0  0  0  0
   43.7623   17.3576  -10.8753 H   0  0  0  0  0  0  0  0  0  0  0  0
   44.1082   13.4369  -12.3933 C   0  0  0  0  0  0  0  0  0  0  0  0
   43.3524   13.4908  -13.6704 C   0  0  0  0  0  0  0  0  0  0  0  0
   44.1495   13.7893  -14.8853 C   0  0  0  0  0  0  0  0  0  0  0  0
   44.7385   12.6772  -15.5645 N   0  0  0  0  0  0  0  0  0  0  0  0
   45.5584   12.1871  -15.0615 H   0  0  0  0  0  0  0  0  0  0  0  0
   44.3427   12.1596  -16.8321 C   0  0  0  0  0  0  0  0  0  0  0  0
   42.9806   12.0361  -17.1841 N   0  0  0  0  0  0  0  0  0  0  0  0
   45.2453   11.8145  -17.6658 N   0  0  0  0  0  0  0  0  0  0  0  0
   42.6730   11.2908  -17.8213 H   0  0  0  0  0  0  0  0  0  0  0  0
   42.2966   12.7093  -16.7940 H   0  0  0  0  0  0  0  0  0  0  0  0
   45.0257   11.4324  -18.6004 H   0  0  0  0  0  0  0  0  0  0  0  0
   39.5916   17.1841  -10.4118 C   0  0  0  0  0  0  0  0  0  0  0  0
   37.6352   18.1983   -9.4151 C   0  0  0  0  0  0  0  0  0  0  0  0
   38.3801   16.8595   -9.6342 C   0  0  0  0  0  0  0  0  0  0  0  0
   38.5441   16.2048   -8.3151 C   0  0  0  0  0  0  0  0  0  0  0  0
 54 55  1  0  0  0
 55 56  1  0  0  0
 55 53  1  0  0  0
 53 32  1  0  0  0
 32  1  1  0  0  0
  1  2  1  0  0  0
  2  3  2  0  0  0
  2  5  1  0  0  0
  5 25  1  0  0  0
 25 26  1  0  0  0
 26 27  1  0  0  0
 27 28  1  0  0  0
 28 29  1  0  0  0
  5  6  1  0  0  0
  6  7  1  0  0  0
  7  8  2  0  0  0
  7 10  1  0  0  0
 10 11  1  0  0  0
 10 12  1  0  0  0
 12 13  1  0  0  0
 13 14  2  0  0  0
 13 16  1  0  0  0
 16 17  1  0  0  0
 17 18  1  0  0  0
 18 19  1  0  0  0
 18 20  2  0  0  0
 16 22  1  0  0  0
 22 23  1  0  0  0
 22 24  1  0  0  0
 32 33  1  0  0  0
 33 34  2  0  0  0
 33 35  1  0  0  0
 35 37  1  0  0  0
 37 42  1  0  0  0
 42 43  1  0  0  0
 43 44  1  0  0  0
 44 45  1  0  0  0
 45 47  1  0  0  0
 47 48  1  0  0  0
 47 49  2  0  0  0
 37 38  1  0  0  0
 38 39  1  0  0  0
 38 40  2  0  0  0
  1  4  1  0  0  0
 29 30  1  0  0  0
 29 31  1  0  0  0
  6  9  1  0  0  0
 12 15  1  0  0  0
 17 21  1  0  0  0
 35 36  1  0  0  0
 45 46  1  0  0  0
 48 50  1  0  0  0
 48 51  1  0  0  0
 49 52  1  0  0  0
 39 41  1  0  0  0
M  END
> <minimizedAffinity>
-6.75219

> <CNNscore>
0.1988655031

> <CNNaffinity>
6.8620862961

> <CNN_VS>
1.3646322489

> <CNNaffinity_variance>
0.2066839188

$$$$
[H]N=C(N([H])[H])N1C([H])([H])C([H])([H])N(C(=O)[C@@]([H])(N([H])C(=O)[C@@]([H])(N([H])C(=O)[C@@]([H])(N([H])C(=O)OC([H])([H])c2c([H])c([H])c([H])c([H])c2[H])C([H])([H])C([H])(C([H])([H])[H])C([H])([H])[H])C([H])([H])C([H])(C([H])([H])[H])C([H])([H])[H])C([H])([H])C([H])([H])C([H])([H])N=C(N([H])[H])N([H])[H])C([H])([H])C1([H])[H]


 56 57  0  0  0  0  0  0  0  0999 V2000
   37.4612   13.6760  -13.1892 C   0  0  0  0  0  0  0  0  0  0  0  0
   37.1633   12.8014  -12.3400 O   0  0  0  0  0  0  0  0  0  0  0  0
   37.1445   15.0051  -13.0085 N   0  0  0  0  0  0  0  0  0  0  0  0
   37.4130   15.7047  -13.7654 H   0  0  0  0  0  0  0  0  0  0  0  0
   36.4572   15.6108  -11.8597 C   0  0  0  0  0  0  0  0  0  0  0  0
   37.5349   15.9578  -10.9041 C   0  0  0  0  0  0  0  0  0  0  0  0
   38.6731   16.2214  -11.5130 O   0  0  0  0  0  0  0  0  0  0  0  0
   37.4792   16.0326   -9.5277 N   0  0  0  0  0  0  0  0  0  0  0  0
   36.3631   15.7911   -8.6929 C   0  0  0  0  0  0  0  0  0  0  0  0
   36.7273   15.9289   -7.2054 C   0  0  0  0  0  0  0  0  0  0  0  0
   37.9748   15.2711   -6.9191 N   0  0  0  0  0  0  0  0  0  0  0  0
   39.0432   15.2518   -7.9165 C   0  0  0  0  0  0  0  0  0  0  0  0
   38.7417   16.4149   -8.8440 C   0  0  0  0  0  0  0  0  0  0  0  0
   38.2077   14.6286   -5.6778 C   0  0  0  0  0  0  0  0  0  0  0  0
   39.2723   15.0676   -4.8398 N   0  0  0  0  0  0  0  0  0  0  0  0
   37.4875   13.6512   -5.2722 N   0  0  0  0  0  0  0  0  0  0  0  0
   40.1922   14.5507   -4.8377 H   0  0  0  0  0  0  0  0  0  0  0  0
   39.1002   15.9014   -4.2470 H   0  0  0  0  0  0  0  0  0  0  0  0
   37.6540   13.1846   -4.3738 H   0  0  0  0  0  0  0  0  0  0  0  0
   35.4003   14.6860  -11.4538 C   0  0  0  0  0  0  0  0  0  0  0  0
   34.1371   14.9805  -12.2813 C   0  0  0  0  0  0  0  0  0  0  0  0
   33.0218   15.4067  -11.3850 C   0  0  0  0  0  0  0  0  0  0  0  0
   31.7603   15.2827  -12.1481 N   0  0  0  0  0  0  0  0  0  0  0  0
   30.7844   14.6875  -11.5897 C   0  0  0  0  0  0  0  0  0  0  0  0
   30.8753   14.1532  -10.2870 N   0  0  0  0  0  0  0  0  0  0  0  0
   29.5704   14.5724  -12.3282 N   0  0  0  0  0  0  0  0  0  0  0  0
   30.9071   14.7806   -9.4493 H   0  0  0  0  0  0  0  0  0  0  0  0
   30.9116   13.1193  -10.1628 H   0  0  0  0  0  0  0  0  0  0  0  0
   29.0539   13.6680  -12.3824 H   0  0  0  0  0  0  0  0  0  0  0  0
   29.1912   15.4179  -12.8247 H   0  0  0  0  0  0  0  0  0  0  0  0
   38.1810   13.1488  -14.3949 C   0  0  0  0  0  0  0  0  0  0  0  0
   39.5933   13.0432  -14.1816 N   0  0  0  0  0  0  0  0  0  0  0  0
   40.4983   14.1553  -14.2181 C   0  0  0  0  0  0  0  0  0  0  0  0
   39.9123   15.2701  -14.4559 O   0  0  0  0  0  0  0  0  0  0  0  0
   40.0249   12.1315  -13.9764 H   0  0  0  0  0  0  0  0  0  0  0  0
   41.9362   14.0810  -14.0141 C   0  0  0  0  0  0  0  0  0  0  0  0
   42.1988   14.0565  -12.5882 N   0  0  0  0  0  0  0  0  0  0  0  0
   42.5279   15.1619  -11.7995 C   0  0  0  0  0  0  0  0  0  0  0  0
   42.6204   16.2971  -12.3154 O   0  0  0  0  0  0  0  0  0  0  0  0
   42.1307   13.1228  -12.0963 H   0  0  0  0  0  0  0  0  0  0  0  0
   42.7524   15.0205  -10.4516 O   0  0  0  0  0  0  0  0  0  0  0  0
   42.3999   15.9290   -9.4543 C   0  0  0  0  0  0  0  0  0  0  0  0
   43.4990   16.6492   -8.8115 C   0  0  0  0  0  0  0  0  0  0  0  0
   43.4041   16.9372   -7.4536 C   0  0  0  0  0  0  0  0  0  0  0  0
   44.4037   17.5967   -6.8112 C   0  0  0  0  0  0  0  0  0  0  0  0
   45.5336   18.0058   -7.4450 C   0  0  0  0  0  0  0  0  0  0  0  0
   45.6708   17.7419   -8.7892 C   0  0  0  0  0  0  0  0  0  0  0  0
   44.6431   17.0634   -9.4515 C   0  0  0  0  0  0  0  0  0  0  0  0
   42.6994   13.0919  -14.7511 C   0  0  0  0  0  0  0  0  0  0  0  0
   42.6976   13.0443  -16.2234 C   0  0  0  0  0  0  0  0  0  0  0  0
   43.9719   12.2366  -16.5833 C   0  0  0  0  0  0  0  0  0  0  0  0
   41.5813   12.3243  -16.8933 C   0  0  0  0  0  0  0  0  0  0  0  0
   37.5036   11.9932  -15.0103 C   0  0  0  0  0  0  0  0  0  0  0  0
   34.9921   12.0765  -15.3480 C   0  0  0  0  0  0  0  0  0  0  0  0
   36.3572   12.2067  -15.9055 C   0  0  0  0  0  0  0  0  0  0  0  0
   36.4961   11.1743  -17.0413 C   0  0  0  0  0  0  0  0  0  0  0  0
 54 55  1  0  0  0
 55 56  1  0  0  0
 55 53  1  0  0  0
 53 31  1  0  0  0
 31 32  1  0  0  0
 32 33  1  0  0  0
 33 34  2  0  0  0
 33 36  1  0  0  0
 36 49  1  0  0  0
 49 50  1  0  0  0
 50 51  1  0  0  0
 50 52  1  0  0  0
 36 37  1  0  0  0
 37 38  1  0  0  0
 38 39  2  0  0  0
 38 41  1  0  0  0
 41 42  1  0  0  0
 42 43  1  0  0  0
 43 44  2  0  0  0
 44 45  1  0  0  0
 45 46  2  0  0  0
 46 47  1  0  0  0
 47 48  2  0  0  0
 31  1  1  0  0  0
  1  2  2  0  0  0
  1  3  1  0  0  0
  3  5  1  0  0  0
  5 20  1  0  0  0
 20 21  1  0  0  0
 21 22  1  0  0  0
 22 23  1  0  0  0
 23 24  2  0  0  0
 24 25  1  0  0  0
 24 26  1  0  0  0
  5  6  1  0  0  0
  6  7  2  0  0  0
  6  8  1  0  0  0
  8  9  1  0  0  0
  9 10  1  0  0  0
 10 11  1  0  0  0
 11 12  1  0  0  0
 12 13  1  0  0  0
 11 14  1  0  0  0
 14 15  1  0  0  0
 14 16  2  0  0  0
 48 43  1  0  0  0
 13  8  1  0  0  0
 32 35  1  0  0  0
 37 40  1  0  0  0
  3  4  1  0  0  0
 25 27  1  0  0  0
 25 28  1  0  0  0
 26 29  1  0  0  0
 26 30  1  0  0  0
 15 17  1  0  0  0
 15 18  1  0  0  0
 16 19  1  0  0  0
M  END
> <minimizedAffinity>
-7.85809

> <CNNscore>
0.4870468080

> <CNNaffinity>
7.4553055763

> <CNN_VS>
3.6310827732

> <CNNaffinity_variance>
0.1778984964

$$$$
[H]N=C(N([H])[H])N1C([H])([H])C([H])([H])N(C(=O)[C@@]([H])(N([H])C(=O)[C@@]([H])(N([H])C(=O)[C@@]([H])(N([H])C(=O)OC([H])([H])c2c([H])c([H])c([H])c([H])c2[H])C([H])([H])C([H])(C([H])([H])[H])C([H])([H])[H])C([H])([H])C([H])(C([H])([H])[H])C([H])([H])[H])C([H])([H])C([H])([H])C([H])([H])N=C(N([H])[H])N([H])[H])C([H])([H])C1([H])[H]


 56 57  0  0  0  0  0  0  0  0999 V2000
   40.5476   15.9371  -11.8251 C   0  0  0  0  0  0  0  0  0  0  0  0
   40.3374   16.9993  -12.4595 O   0  0  0  0  0  0  0  0  0  0  0  0
   39.5342   15.2590  -11.1827 N   0  0  0  0  0  0  0  0  0  0  0  0
   39.7696   14.3668  -10.6509 H   0  0  0  0  0  0  0  0  0  0  0  0
   38.1105   15.6191  -11.1336 C   0  0  0  0  0  0  0  0  0  0  0  0
   37.8490   15.9673   -9.7175 C   0  0  0  0  0  0  0  0  0  0  0  0
   37.6622   14.8990   -8.9694 O   0  0  0  0  0  0  0  0  0  0  0  0
   37.7855   17.2144   -9.1311 N   0  0  0  0  0  0  0  0  0  0  0  0
   37.9573   18.4728   -9.7540 C   0  0  0  0  0  0  0  0  0  0  0  0
   37.7567   19.6292   -8.7606 C   0  0  0  0  0  0  0  0  0  0  0  0
   36.5974   19.4043   -7.9380 N   0  0  0  0  0  0  0  0  0  0  0  0
   36.2311   18.0473   -7.5368 C   0  0  0  0  0  0  0  0  0  0  0  0
   37.5064   17.2353   -7.6719 C   0  0  0  0  0  0  0  0  0  0  0  0
   35.7826   20.4753   -7.4945 C   0  0  0  0  0  0  0  0  0  0  0  0
   35.5853   21.6109   -8.3311 N   0  0  0  0  0  0  0  0  0  0  0  0
   35.2071   20.4639   -6.3512 N   0  0  0  0  0  0  0  0  0  0  0  0
   36.1501   22.4884   -8.1748 H   0  0  0  0  0  0  0  0  0  0  0  0
   34.8753   21.5318   -9.0834 H   0  0  0  0  0  0  0  0  0  0  0  0
   34.6165   21.2380   -6.0281 H   0  0  0  0  0  0  0  0  0  0  0  0
   37.3680   14.5260  -11.7589 C   0  0  0  0  0  0  0  0  0  0  0  0
   36.7626   15.0286  -13.0810 C   0  0  0  0  0  0  0  0  0  0  0  0
   35.6071   14.1704  -13.4777 C   0  0  0  0  0  0  0  0  0  0  0  0
   34.4745   14.5018  -12.5853 N   0  0  0  0  0  0  0  0  0  0  0  0
   33.3050   14.1734  -12.9631 C   0  0  0  0  0  0  0  0  0  0  0  0
   33.0675   13.5150  -14.1882 N   0  0  0  0  0  0  0  0  0  0  0  0
   32.2172   14.4929  -12.0987 N   0  0  0  0  0  0  0  0  0  0  0  0
   33.3378   12.5122  -14.3211 H   0  0  0  0  0  0  0  0  0  0  0  0
   32.6171   14.0390  -14.9681 H   0  0  0  0  0  0  0  0  0  0  0  0
   31.3464   14.9343  -12.4656 H   0  0  0  0  0  0  0  0  0  0  0  0
   32.2977   14.2764  -11.0731 H   0  0  0  0  0  0  0  0  0  0  0  0
   41.9774   15.4839  -11.8327 C   0  0  0  0  0  0  0  0  0  0  0  0
   42.4037   15.0520  -13.1300 N   0  0  0  0  0  0  0  0  0  0  0  0
   43.0890   13.8176  -13.3825 C   0  0  0  0  0  0  0  0  0  0  0  0
   43.2795   13.1245  -12.3214 O   0  0  0  0  0  0  0  0  0  0  0  0
   42.2172   15.6296  -13.9613 H   0  0  0  0  0  0  0  0  0  0  0  0
   43.5418   13.3541  -14.6844 C   0  0  0  0  0  0  0  0  0  0  0  0
   42.3931   13.2562  -15.5640 N   0  0  0  0  0  0  0  0  0  0  0  0
   42.2946   12.4346  -16.6898 C   0  0  0  0  0  0  0  0  0  0  0  0
   43.2513   11.6991  -17.0170 O   0  0  0  0  0  0  0  0  0  0  0  0
   41.5510   13.8529  -15.3337 H   0  0  0  0  0  0  0  0  0  0  0  0
   41.1508   12.4206  -17.4505 O   0  0  0  0  0  0  0  0  0  0  0  0
   40.3879   11.2999  -17.7770 C   0  0  0  0  0  0  0  0  0  0  0  0
   38.9952   11.3074  -17.3294 C   0  0  0  0  0  0  0  0  0  0  0  0
   38.6802   11.9566  -16.1399 C   0  0  0  0  0  0  0  0  0  0  0  0
   37.3993   11.9975  -15.6881 C   0  0  0  0  0  0  0  0  0  0  0  0
   36.3697   11.4177  -16.3588 C   0  0  0  0  0  0  0  0  0  0  0  0
   36.6349   10.7642  -17.5413 C   0  0  0  0  0  0  0  0  0  0  0  0
   37.9525   10.7215  -18.0073 C   0  0  0  0  0  0  0  0  0  0  0  0
   44.6802   14.0053  -15.3042 C   0  0  0  0  0  0  0  0  0  0  0  0
   46.0664   13.6638  -14.9415 C   0  0  0  0  0  0  0  0  0  0  0  0
   46.5600   14.8829  -14.1192 C   0  0  0  0  0  0  0  0  0  0  0  0
   46.2828   12.4874  -14.0569 C   0  0  0  0  0  0  0  0  0  0  0  0
   42.8737   16.3936  -11.0965 C   0  0  0  0  0  0  0  0  0  0  0  0
   45.2570   16.5717  -10.2497 C   0  0  0  0  0  0  0  0  0  0  0  0
   44.3167   16.3876  -11.3780 C   0  0  0  0  0  0  0  0  0  0  0  0
   44.5669   17.5291  -12.3828 C   0  0  0  0  0  0  0  0  0  0  0  0
 54 55  1  0  0  0
 55 56  1  0  0  0
 55 53  1  0  0  0
 53 31  1  0  0  0
 31 32  1  0  0  0
 32 33  1  0  0  0
 33 34  2  0  0  0
 33 36  1  0  0  0
 36 49  1  0  0  0
 49 50  1  0  0  0
 50 51  1  0  0  0
 50 52  1  0  0  0
 36 37  1  0  0  0
 37 38  1  0  0  0
 38 39  2  0  0  0
 38 41  1  0  0  0
 41 42  1  0  0  0
 42 43  1  0  0  0
 43 44  2  0  0  0
 44 45  1  0  0  0
 45 46  2  0  0  0
 46 47  1  0  0  0
 47 48  2  0  0  0
 31  1  1  0  0  0
  1  2  2  0  0  0
  1  3  1  0  0  0
  3  5  1  0  0  0
  5 20  1  0  0  0
 20 21  1  0  0  0
 21 22  1  0  0  0
 22 23  1  0  0  0
 23 24  2  0  0  0
 24 25  1  0  0  0
 24 26  1  0  0  0
  5  6  1  0  0  0
  6  7  2  0  0  0
  6  8  1  0  0  0
  8  9  1  0  0  0
  9 10  1  0  0  0
 10 11  1  0  0  0
 11 12  1  0  0  0
 12 13  1  0  0  0
 11 14  1  0  0  0
 14 15  1  0  0  0
 14 16  2  0  0  0
 48 43  1  0  0  0
 13  8  1  0  0  0
 32 35  1  0  0  0
 37 40  1  0  0  0
  3  4  1  0  0  0
 25 27  1  0  0  0
 25 28  1  0  0  0
 26 29  1  0  0  0
 26 30  1  0  0  0
 15 17  1  0  0  0
 15 18  1  0  0  0
 16 19  1  0  0  0
M  END
> <minimizedAffinity>
-8.35655

> <CNNscore>
0.4143530130

> <CNNaffinity>
7.2369680405

> <CNN_VS>
2.9986596107

> <CNNaffinity_variance>
0.2604943216

$$$$
[H]N=C(N([H])[H])N1C([H])([H])C([H])([H])N(C(=O)[C@@]([H])(N([H])C(=O)[C@@]([H])(N([H])C(=O)[C@@]([H])(N([H])C(=O)OC([H])([H])c2c([H])c([H])c([H])c([H])c2[H])C([H])([H])C([H])(C([H])([H])[H])C([H])([H])[H])C([H])([H])C([H])(C([H])([H])[H])C([H])([H])[H])C([H])([H])C([H])([H])C([H])([H])N=C(N([H])[H])N([H])[H])C([H])([H])C1([H])[H]


 56 57  0  0  0  0  0  0  0  0999 V2000
   37.9418   14.2244  -13.1483 C   0  0  0  0  0  0  0  0  0  0  0  0
   37.7996   13.0294  -12.7925 O   0  0  0  0  0  0  0  0  0  0  0  0
   37.0662   15.2121  -12.7519 N   0  0  0  0  0  0  0  0  0  0  0  0
   37.2287   16.2088  -13.0905 H   0  0  0  0  0  0  0  0  0  0  0  0
   35.8885   15.0659  -11.8856 C   0  0  0  0  0  0  0  0  0  0  0  0
   36.4001   15.2389  -10.5060 C   0  0  0  0  0  0  0  0  0  0  0  0
   36.1546   14.1885   -9.7496 O   0  0  0  0  0  0  0  0  0  0  0  0
   37.0678   16.3155   -9.9599 N   0  0  0  0  0  0  0  0  0  0  0  0
   37.4256   17.5259  -10.5987 C   0  0  0  0  0  0  0  0  0  0  0  0
   38.1167   18.4969   -9.6272 C   0  0  0  0  0  0  0  0  0  0  0  0
   37.4214   18.5453   -8.3681 N   0  0  0  0  0  0  0  0  0  0  0  0
   36.7727   17.3472   -7.8386 C   0  0  0  0  0  0  0  0  0  0  0  0
   37.4586   16.1845   -8.5325 C   0  0  0  0  0  0  0  0  0  0  0  0
   37.3429   19.7389   -7.6087 C   0  0  0  0  0  0  0  0  0  0  0  0
   37.2833   20.9988   -8.2703 N   0  0  0  0  0  0  0  0  0  0  0  0
   37.3241   19.7308   -6.3288 N   0  0  0  0  0  0  0  0  0  0  0  0
   38.1554   21.5832   -8.3760 H   0  0  0  0  0  0  0  0  0  0  0  0
   36.3607   21.3035   -8.6340 H   0  0  0  0  0  0  0  0  0  0  0  0
   37.2671   20.5937   -5.7769 H   0  0  0  0  0  0  0  0  0  0  0  0
   35.2299   13.8161  -12.2617 C   0  0  0  0  0  0  0  0  0  0  0  0
   33.8768   14.1446  -12.9162 C   0  0  0  0  0  0  0  0  0  0  0  0
   33.1489   15.1681  -12.1090 C   0  0  0  0  0  0  0  0  0  0  0  0
   31.8002   14.6341  -11.8178 N   0  0  0  0  0  0  0  0  0  0  0  0
   31.1345   15.1804  -10.8815 C   0  0  0  0  0  0  0  0  0  0  0  0
   31.6420   16.2608  -10.1292 N   0  0  0  0  0  0  0  0  0  0  0  0
   29.8346   14.6637  -10.6061 N   0  0  0  0  0  0  0  0  0  0  0  0
   31.7345   17.2142  -10.5521 H   0  0  0  0  0  0  0  0  0  0  0  0
   31.9277   16.1019   -9.1399 H   0  0  0  0  0  0  0  0  0  0  0  0
   29.5265   14.4668   -9.6295 H   0  0  0  0  0  0  0  0  0  0  0  0
   29.1767   14.4806  -11.4055 H   0  0  0  0  0  0  0  0  0  0  0  0
   39.1318   14.4713  -14.0275 C   0  0  0  0  0  0  0  0  0  0  0  0
   40.3696   14.2843  -13.3318 N   0  0  0  0  0  0  0  0  0  0  0  0
   41.1509   15.3520  -12.7778 C   0  0  0  0  0  0  0  0  0  0  0  0
   40.6235   16.5057  -12.9612 O   0  0  0  0  0  0  0  0  0  0  0  0
   40.7527   13.3395  -13.1900 H   0  0  0  0  0  0  0  0  0  0  0  0
   42.4138   15.1970  -12.0739 C   0  0  0  0  0  0  0  0  0  0  0  0
   42.1788   15.3937  -10.6566 N   0  0  0  0  0  0  0  0  0  0  0  0
   42.9894   16.1305   -9.7892 C   0  0  0  0  0  0  0  0  0  0  0  0
   44.0225   16.6898  -10.2170 O   0  0  0  0  0  0  0  0  0  0  0  0
   41.3160   14.9469  -10.2392 H   0  0  0  0  0  0  0  0  0  0  0  0
   42.6652   16.2531   -8.4599 O   0  0  0  0  0  0  0  0  0  0  0  0
   41.4887   15.8170   -7.8514 C   0  0  0  0  0  0  0  0  0  0  0  0
   41.5121   14.4711   -7.2788 C   0  0  0  0  0  0  0  0  0  0  0  0
   42.3052   14.2355   -6.1603 C   0  0  0  0  0  0  0  0  0  0  0  0
   42.3525   13.0038   -5.5883 C   0  0  0  0  0  0  0  0  0  0  0  0
   41.6412   11.9493   -6.0658 C   0  0  0  0  0  0  0  0  0  0  0  0
   40.8421   12.1363   -7.1712 C   0  0  0  0  0  0  0  0  0  0  0  0
   40.7925   13.4033   -7.7608 C   0  0  0  0  0  0  0  0  0  0  0  0
   43.2387   14.0385  -12.3593 C   0  0  0  0  0  0  0  0  0  0  0  0
   44.3528   14.0926  -13.3215 C   0  0  0  0  0  0  0  0  0  0  0  0
   43.7644   13.4919  -14.6249 C   0  0  0  0  0  0  0  0  0  0  0  0
   44.8686   15.4324  -13.7116 C   0  0  0  0  0  0  0  0  0  0  0  0
   39.0046   13.8476  -15.3571 C   0  0  0  0  0  0  0  0  0  0  0  0
   40.8093   12.7284  -16.7425 C   0  0  0  0  0  0  0  0  0  0  0  0
   39.7830   12.6428  -15.6792 C   0  0  0  0  0  0  0  0  0  0  0  0
   38.7627   11.5683  -16.1033 C   0  0  0  0  0  0  0  0  0  0  0  0
 54 55  1  0  0  0
 55 56  1  0  0  0
 55 53  1  0  0  0
 53 31  1  0  0  0
 31 32  1  0  0  0
 32 33  1  0  0  0
 33 34  2  0  0  0
 33 36  1  0  0  0
 36 49  1  0  0  0
 49 50  1  0  0  0
 50 51  1  0  0  0
 50 52  1  0  0  0
 36 37  1  0  0  0
 37 38  1  0  0  0
 38 39  2  0  0  0
 38 41  1  0  0  0
 41 42  1  0  0  0
 42 43  1  0  0  0
 43 44  2  0  0  0
 44 45  1  0  0  0
 45 46  2  0  0  0
 46 47  1  0  0  0
 47 48  2  0  0  0
 31  1  1  0  0  0
  1  2  2  0  0  0
  1  3  1  0  0  0
  3  5  1  0  0  0
  5 20  1  0  0  0
 20 21  1  0  0  0
 21 22  1  0  0  0
 22 23  1  0  0  0
 23 24  2  0  0  0
 24 25  1  0  0  0
 24 26  1  0  0  0
  5  6  1  0  0  0
  6  7  2  0  0  0
  6  8  1  0  0  0
  8  9  1  0  0  0
  9 10  1  0  0  0
 10 11  1  0  0  0
 11 12  1  0  0  0
 12 13  1  0  0  0
 11 14  1  0  0  0
 14 15  1  0  0  0
 14 16  2  0  0  0
 48 43  1  0  0  0
 13  8  1  0  0  0
 32 35  1  0  0  0
 37 40  1  0  0  0
  3  4  1  0  0  0
 25 27  1  0  0  0
 25 28  1  0  0  0
 26 29  1  0  0  0
 26 30  1  0  0  0
 15 17  1  0  0  0
 15 18  1  0  0  0
 16 19  1  0  0  0
M  END
> <minimizedAffinity>
-7.35650

> <CNNscore>
0.3280598223

> <CNNaffinity>
6.8262853622

> <CNN_VS>
2.2394299507

> <CNNaffinity_variance>
0.7046537399

$$$$
[H]N=C(N([H])[H])N1C([H])([H])C([H])([H])N(C(=O)[C@@]([H])(N([H])C(=O)[C@@]([H])(N([H])C(=O)[C@@]([H])(N([H])C(=O)OC([H])([H])c2c([H])c([H])c([H])c([H])c2[H])C([H])([H])C([H])(C([H])([H])[H])C([H])([H])[H])C([H])([H])C([H])(C([H])([H])[H])C([H])([H])[H])C([H])([H])C([H])([H])C([H])([H])N=C(N([H])[H])N([H])[H])C([H])([H])C1([H])[H]


 56 57  0  0  0  0  0  0  0  0999 V2000
   37.8579   13.5331  -13.5947 C   0  0  0  0  0  0  0  0  0  0  0  0
   37.5689   12.5894  -12.8197 O   0  0  0  0  0  0  0  0  0  0  0  0
   37.2917   14.7828  -13.4644 N   0  0  0  0  0  0  0  0  0  0  0  0
   37.5659   15.5456  -14.1554 H   0  0  0  0  0  0  0  0  0  0  0  0
   36.3192   15.2212  -12.4541 C   0  0  0  0  0  0  0  0  0  0  0  0
   37.1343   15.6430  -11.2910 C   0  0  0  0  0  0  0  0  0  0  0  0
   38.2692   16.2034  -11.6566 O   0  0  0  0  0  0  0  0  0  0  0  0
   36.8503   15.5219   -9.9464 N   0  0  0  0  0  0  0  0  0  0  0  0
   35.6967   14.9573   -9.3536 C   0  0  0  0  0  0  0  0  0  0  0  0
   35.7866   14.9652   -7.8186 C   0  0  0  0  0  0  0  0  0  0  0  0
   37.0866   14.5329   -7.3781 N   0  0  0  0  0  0  0  0  0  0  0  0
   38.2758   14.8564   -8.1642 C   0  0  0  0  0  0  0  0  0  0  0  0
   37.8782   16.0504   -9.0128 C   0  0  0  0  0  0  0  0  0  0  0  0
   37.2567   13.7895   -6.1838 C   0  0  0  0  0  0  0  0  0  0  0  0
   38.3885   14.0297   -5.3532 N   0  0  0  0  0  0  0  0  0  0  0  0
   36.4198   12.8940   -5.8150 N   0  0  0  0  0  0  0  0  0  0  0  0
   39.2299   13.3953   -5.4082 H   0  0  0  0  0  0  0  0  0  0  0  0
   38.3433   14.8407   -4.7079 H   0  0  0  0  0  0  0  0  0  0  0  0
   36.5407   12.3547   -4.9507 H   0  0  0  0  0  0  0  0  0  0  0  0
   35.3425   14.1443  -12.3008 C   0  0  0  0  0  0  0  0  0  0  0  0
   34.4593   14.0913  -13.5594 C   0  0  0  0  0  0  0  0  0  0  0  0
   33.0201   13.9908  -13.1751 C   0  0  0  0  0  0  0  0  0  0  0  0
   32.8042   14.8745  -12.0083 N   0  0  0  0  0  0  0  0  0  0  0  0
   31.6099   15.0435  -11.6041 C   0  0  0  0  0  0  0  0  0  0  0  0
   30.5090   14.4213  -12.2300 N   0  0  0  0  0  0  0  0  0  0  0  0
   31.4072   15.8942  -10.4782 N   0  0  0  0  0  0  0  0  0  0  0  0
   30.3443   13.3921  -12.1297 H   0  0  0  0  0  0  0  0  0  0  0  0
   29.8544   14.9987  -12.7990 H   0  0  0  0  0  0  0  0  0  0  0  0
   30.6629   16.6246  -10.4791 H   0  0  0  0  0  0  0  0  0  0  0  0
   32.0209   15.7787   -9.6324 H   0  0  0  0  0  0  0  0  0  0  0  0
   38.8586   13.1796  -14.6546 C   0  0  0  0  0  0  0  0  0  0  0  0
   40.2029   13.1996  -14.1612 N   0  0  0  0  0  0  0  0  0  0  0  0
   40.9192   14.3959  -13.8249 C   0  0  0  0  0  0  0  0  0  0  0  0
   40.2281   15.4604  -14.0039 O   0  0  0  0  0  0  0  0  0  0  0  0
   40.7198   12.3216  -14.0147 H   0  0  0  0  0  0  0  0  0  0  0  0
   42.2854   14.4512  -13.3298 C   0  0  0  0  0  0  0  0  0  0  0  0
   42.2556   14.8603  -11.9390 N   0  0  0  0  0  0  0  0  0  0  0  0
   42.8700   15.9978  -11.4092 C   0  0  0  0  0  0  0  0  0  0  0  0
   43.5181   16.7662  -12.1527 O   0  0  0  0  0  0  0  0  0  0  0  0
   41.7175   14.2503  -11.2632 H   0  0  0  0  0  0  0  0  0  0  0  0
   42.7713   16.2897  -10.0704 O   0  0  0  0  0  0  0  0  0  0  0  0
   41.6806   16.0228   -9.2436 C   0  0  0  0  0  0  0  0  0  0  0  0
   41.9209   15.1155   -8.1215 C   0  0  0  0  0  0  0  0  0  0  0  0
   41.7391   15.5924   -6.8272 C   0  0  0  0  0  0  0  0  0  0  0  0
   41.9418   14.7844   -5.7536 C   0  0  0  0  0  0  0  0  0  0  0  0
   42.3266   13.4874   -5.8783 C   0  0  0  0  0  0  0  0  0  0  0  0
   42.5182   12.9725   -7.1407 C   0  0  0  0  0  0  0  0  0  0  0  0
   42.3099   13.8028   -8.2464 C   0  0  0  0  0  0  0  0  0  0  0  0
   43.1663   13.3249  -13.5737 C   0  0  0  0  0  0  0  0  0  0  0  0
   44.2865   13.4034  -14.5271 C   0  0  0  0  0  0  0  0  0  0  0  0
   43.6447   13.0788  -15.9015 C   0  0  0  0  0  0  0  0  0  0  0  0
   44.9497   14.7221  -14.7118 C   0  0  0  0  0  0  0  0  0  0  0  0
   38.4542   12.0149  -15.4628 C   0  0  0  0  0  0  0  0  0  0  0  0
   40.0119   12.6446  -17.3618 C   0  0  0  0  0  0  0  0  0  0  0  0
   39.2688   11.6042  -16.6157 C   0  0  0  0  0  0  0  0  0  0  0  0
   38.3052   10.9210  -17.6057 C   0  0  0  0  0  0  0  0  0  0  0  0
 54 55  1  0  0  0
 55 56  1  0  0  0
 55 53  1  0  0  0
 53 31  1  0  0  0
 31 32  1  0  0  0
 32 33  1  0  0  0
 33 34  2  0  0  0
 33 36  1  0  0  0
 36 49  1  0  0  0
 49 50  1  0  0  0
 50 51  1  0  0  0
 50 52  1  0  0  0
 36 37  1  0  0  0
 37 38  1  0  0  0
 38 39  2  0  0  0
 38 41  1  0  0  0
 41 42  1  0  0  0
 42 43  1  0  0  0
 43 44  2  0  0  0
 44 45  1  0  0  0
 45 46  2  0  0  0
 46 47  1  0  0  0
 47 48  2  0  0  0
 31  1  1  0  0  0
  1  2  2  0  0  0
  1  3  1  0  0  0
  3  5  1  0  0  0
  5 20  1  0  0  0
 20 21  1  0  0  0
 21 22  1  0  0  0
 22 23  1  0  0  0
 23 24  2  0  0  0
 24 25  1  0  0  0
 24 26  1  0  0  0
  5  6  1  0  0  0
  6  7  2  0  0  0
  6  8  1  0  0  0
  8  9  1  0  0  0
  9 10  1  0  0  0
 10 11  1  0  0  0
 11 12  1  0  0  0
 12 13  1  0  0  0
 11 14  1  0  0  0
 14 15  1  0  0  0
 14 16  2  0  0  0
 48 43  1  0  0  0
 13  8  1  0  0  0
 32 35  1  0  0  0
 37 40  1  0  0  0
  3  4  1  0  0  0
 25 27  1  0  0  0
 25 28  1  0  0  0
 26 29  1  0  0  0
 26 30  1  0  0  0
 15 17  1  0  0  0
 15 18  1  0  0  0
 16 19  1  0  0  0
M  END
> <minimizedAffinity>
-7.85018

> <CNNscore>
0.2891241908

> <CNNaffinity>
6.8451032639

> <CNN_VS>
1.9790849686

> <CNNaffinity_variance>
0.6802837253

$$$$
[H]N=C(N([H])[H])N1C([H])([H])C([H])([H])N(C(=O)[C@@]([H])(N([H])C(=O)[C@@]([H])(N([H])C(=O)[C@@]([H])(N([H])C(=O)OC([H])([H])c2c([H])c([H])c([H])c([H])c2[H])C([H])([H])C([H])(C([H])([H])[H])C([H])([H])[H])C([H])([H])C([H])(C([H])([H])[H])C([H])([H])[H])C([H])([H])C([H])([H])C([H])([H])N=C(N([H])[H])N([H])[H])C([H])([H])C1([H])[H]


 56 57  0  0  0  0  0  0  0  0999 V2000
   38.1018   15.3370  -12.0286 C   0  0  0  0  0  0  0  0  0  0  0  0
   37.7643   14.1297  -11.9716 O   0  0  0  0  0  0  0  0  0  0  0  0
   39.3126   15.7313  -12.5559 N   0  0  0  0  0  0  0  0  0  0  0  0
   39.5526   16.7688  -12.5716 H   0  0  0  0  0  0  0  0  0  0  0  0
   40.3604   14.8727  -13.1249 C   0  0  0  0  0  0  0  0  0  0  0  0
   41.6324   15.5787  -12.8448 C   0  0  0  0  0  0  0  0  0  0  0  0
   41.4674   16.8827  -12.7540 O   0  0  0  0  0  0  0  0  0  0  0  0
   42.8958   15.0507  -12.6766 N   0  0  0  0  0  0  0  0  0  0  0  0
   43.2792   13.6903  -12.7337 C   0  0  0  0  0  0  0  0  0  0  0  0
   44.7956   13.5203  -12.5445 C   0  0  0  0  0  0  0  0  0  0  0  0
   45.5220   14.4886  -13.3228 N   0  0  0  0  0  0  0  0  0  0  0  0
   44.9744   15.8281  -13.5290 C   0  0  0  0  0  0  0  0  0  0  0  0
   43.9797   16.0287  -12.4002 C   0  0  0  0  0  0  0  0  0  0  0  0
   46.7756   14.1817  -13.9076 C   0  0  0  0  0  0  0  0  0  0  0  0
   47.7659   13.4977  -13.1461 N   0  0  0  0  0  0  0  0  0  0  0  0
   47.0597   14.5009  -15.1142 N   0  0  0  0  0  0  0  0  0  0  0  0
   48.5490   14.0375  -12.6892 H   0  0  0  0  0  0  0  0  0  0  0  0
   47.6787   12.4671  -13.0659 H   0  0  0  0  0  0  0  0  0  0  0  0
   47.9665   14.2796  -15.5398 H   0  0  0  0  0  0  0  0  0  0  0  0
   39.9802   14.5879  -14.5074 C   0  0  0  0  0  0  0  0  0  0  0  0
   40.6703   13.2878  -14.9551 C   0  0  0  0  0  0  0  0  0  0  0  0
   41.5954   13.5615  -16.0945 C   0  0  0  0  0  0  0  0  0  0  0  0
   42.4400   12.3618  -16.2853 N   0  0  0  0  0  0  0  0  0  0  0  0
   43.6884   12.5355  -16.4573 C   0  0  0  0  0  0  0  0  0  0  0  0
   44.2743   13.8190  -16.4708 N   0  0  0  0  0  0  0  0  0  0  0  0
   44.4982   11.3763  -16.6385 N   0  0  0  0  0  0  0  0  0  0  0  0
   44.3689   14.3764  -15.5895 H   0  0  0  0  0  0  0  0  0  0  0  0
   44.6153   14.2128  -17.3732 H   0  0  0  0  0  0  0  0  0  0  0  0
   45.2109   11.3277  -17.3983 H   0  0  0  0  0  0  0  0  0  0  0  0
   44.3725   10.5577  -15.9909 H   0  0  0  0  0  0  0  0  0  0  0  0
   37.0828   16.2914  -11.4804 C   0  0  0  0  0  0  0  0  0  0  0  0
   35.8111   16.1581  -12.1253 N   0  0  0  0  0  0  0  0  0  0  0  0
   34.7026   15.4315  -11.5769 C   0  0  0  0  0  0  0  0  0  0  0  0
   34.9608   14.9116  -10.4342 O   0  0  0  0  0  0  0  0  0  0  0  0
   35.6367   16.6049  -13.0361 H   0  0  0  0  0  0  0  0  0  0  0  0
   33.4028   15.2706  -12.2088 C   0  0  0  0  0  0  0  0  0  0  0  0
   33.5993   14.7064  -13.5301 N   0  0  0  0  0  0  0  0  0  0  0  0
   34.1917   13.4726  -13.8112 C   0  0  0  0  0  0  0  0  0  0  0  0
   34.6100   12.7495  -12.8809 O   0  0  0  0  0  0  0  0  0  0  0  0
   33.2605   15.2723  -14.3567 H   0  0  0  0  0  0  0  0  0  0  0  0
   34.3221   13.0357  -15.1071 O   0  0  0  0  0  0  0  0  0  0  0  0
   34.5887   11.7299  -15.5171 C   0  0  0  0  0  0  0  0  0  0  0  0
   35.8908   11.4966  -16.1418 C   0  0  0  0  0  0  0  0  0  0  0  0
   35.9401   10.7820  -17.3345 C   0  0  0  0  0  0  0  0  0  0  0  0
   37.1255   10.5476  -17.9562 C   0  0  0  0  0  0  0  0  0  0  0  0
   38.3103   10.9893  -17.4593 C   0  0  0  0  0  0  0  0  0  0  0  0
   38.3094   11.7014  -16.2809 C   0  0  0  0  0  0  0  0  0  0  0  0
   37.0904   11.9433  -15.6402 C   0  0  0  0  0  0  0  0  0  0  0  0
   32.3367   14.6253  -11.4664 C   0  0  0  0  0  0  0  0  0  0  0  0
   31.1213   15.3506  -11.0581 C   0  0  0  0  0  0  0  0  0  0  0  0
   29.9835   14.6843  -11.8750 C   0  0  0  0  0  0  0  0  0  0  0  0
   30.6924   15.2421   -9.6378 C   0  0  0  0  0  0  0  0  0  0  0  0
   37.0886   16.3566  -10.0077 C   0  0  0  0  0  0  0  0  0  0  0  0
   37.8948   18.6502   -9.2879 C   0  0  0  0  0  0  0  0  0  0  0  0
   36.8202   17.6329   -9.3293 C   0  0  0  0  0  0  0  0  0  0  0  0
   36.4561   17.2817   -7.8735 C   0  0  0  0  0  0  0  0  0  0  0  0
 54 55  1  0  0  0
 55 56  1  0  0  0
 55 53  1  0  0  0
 53 31  1  0  0  0
 31 32  1  0  0  0
 32 33  1  0  0  0
 33 34  2  0  0  0
 33 36  1  0  0  0
 36 49  1  0  0  0
 49 50  1  0  0  0
 50 51  1  0  0  0
 50 52  1  0  0  0
 36 37  1  0  0  0
 37 38  1  0  0  0
 38 39  2  0  0  0
 38 41  1  0  0  0
 41 42  1  0  0  0
 42 43  1  0  0  0
 43 44  2  0  0  0
 44 45  1  0  0  0
 45 46  2  0  0  0
 46 47  1  0  0  0
 47 48  2  0  0  0
 31  1  1  0  0  0
  1  2  2  0  0  0
  1  3  1  0  0  0
  3  5  1  0  0  0
  5 20  1  0  0  0
 20 21  1  0  0  0
 21 22  1  0  0  0
 22 23  1  0  0  0
 23 24  2  0  0  0
 24 25  1  0  0  0
 24 26  1  0  0  0
  5  6  1  0  0  0
  6  7  2  0  0  0
  6  8  1  0  0  0
  8  9  1  0  0  0
  9 10  1  0  0  0
 10 11  1  0  0  0
 11 12  1  0  0  0
 12 13  1  0  0  0
 11 14  1  0  0  0
 14 15  1  0  0  0
 14 16  2  0  0  0
 48 43  1  0  0  0
 13  8  1  0  0  0
 32 35  1  0  0  0
 37 40  1  0  0  0
  3  4  1  0  0  0
 25 27  1  0  0  0
 25 28  1  0  0  0
 26 29  1  0  0  0
 26 30  1  0  0  0
 15 17  1  0  0  0
 15 18  1  0  0  0
 16 19  1  0  0  0
M  END
> <minimizedAffinity>
-8.63075

> <CNNscore>
0.2801764011

> <CNNaffinity>
7.3234262466

> <CNN_VS>
2.0518512726

> <CNNaffinity_variance>
0.2091194689

$$$$
[H]N=C(N([H])[H])N1C([H])([H])C([H])([H])N(C(=O)[C@@]([H])(N([H])C(=O)[C@@]([H])(N([H])C(=O)[C@@]([H])(N([H])C(=O)OC([H])([H])c2c([H])c([H])c([H])c([H])c2[H])C([H])([H])C([H])(C([H])([H])[H])C([H])([H])[H])C([H])([H])C([H])(C([H])([H])[H])C([H])([H])[H])C([H])([H])C([H])([H])C([H])([H])N=C(N([H])[H])N([H])[H])C([H])([H])C1([H])[H]


 56 57  0  0  0  0  0  0  0  0999 V2000
   40.7311   15.7913  -12.2159 C   0  0  0  0  0  0  0  0  0  0  0  0
   40.4040   16.9236  -12.6468 O   0  0  0  0  0  0  0  0  0  0  0  0
   40.4178   14.6341  -12.8958 N   0  0  0  0  0  0  0  0  0  0  0  0
   40.7117   13.6986  -12.4803 H   0  0  0  0  0  0  0  0  0  0  0  0
   39.7021   14.5156  -14.1735 C   0  0  0  0  0  0  0  0  0  0  0  0
   38.6138   13.5434  -13.9178 C   0  0  0  0  0  0  0  0  0  0  0  0
   38.8194   12.3949  -14.5297 O   0  0  0  0  0  0  0  0  0  0  0  0
   37.4768   13.6997  -13.1522 N   0  0  0  0  0  0  0  0  0  0  0  0
   37.0768   14.8427  -12.4211 C   0  0  0  0  0  0  0  0  0  0  0  0
   35.7146   14.6318  -11.7397 C   0  0  0  0  0  0  0  0  0  0  0  0
   34.7801   14.0113  -12.6412 N   0  0  0  0  0  0  0  0  0  0  0  0
   35.2438   13.0361  -13.6264 C   0  0  0  0  0  0  0  0  0  0  0  0
   36.5680   12.5261  -13.0875 C   0  0  0  0  0  0  0  0  0  0  0  0
   33.3976   14.3196  -12.6055 C   0  0  0  0  0  0  0  0  0  0  0  0
   32.5278   13.7981  -13.6055 N   0  0  0  0  0  0  0  0  0  0  0  0
   32.8896   15.0621  -11.6950 N   0  0  0  0  0  0  0  0  0  0  0  0
   32.2434   14.3983  -14.4254 H   0  0  0  0  0  0  0  0  0  0  0  0
   32.1973   12.8217  -13.4885 H   0  0  0  0  0  0  0  0  0  0  0  0
   31.8889   15.2865  -11.6669 H   0  0  0  0  0  0  0  0  0  0  0  0
   40.7012   14.2293  -15.2017 C   0  0  0  0  0  0  0  0  0  0  0  0
   41.9071   13.5364  -14.5438 C   0  0  0  0  0  0  0  0  0  0  0  0
   42.6982   12.7947  -15.5700 C   0  0  0  0  0  0  0  0  0  0  0  0
   44.1206   13.1603  -15.3910 N   0  0  0  0  0  0  0  0  0  0  0  0
   44.9443   12.7999  -16.2910 C   0  0  0  0  0  0  0  0  0  0  0  0
   44.5416   12.0740  -17.4319 N   0  0  0  0  0  0  0  0  0  0  0  0
   46.3134   13.1564  -16.1150 N   0  0  0  0  0  0  0  0  0  0  0  0
   43.9874   12.5321  -18.1930 H   0  0  0  0  0  0  0  0  0  0  0  0
   44.8016   11.0682  -17.5126 H   0  0  0  0  0  0  0  0  0  0  0  0
   47.0766   12.4612  -16.2625 H   0  0  0  0  0  0  0  0  0  0  0  0
   46.5539   14.1401  -15.8327 H   0  0  0  0  0  0  0  0  0  0  0  0
   41.4813   15.8159  -10.9173 C   0  0  0  0  0  0  0  0  0  0  0  0
   40.7705   15.1515   -9.8664 N   0  0  0  0  0  0  0  0  0  0  0  0
   39.6979   15.7436   -9.1205 C   0  0  0  0  0  0  0  0  0  0  0  0
   39.4277   16.9391   -9.4953 O   0  0  0  0  0  0  0  0  0  0  0  0
   41.0061   14.1842   -9.6053 H   0  0  0  0  0  0  0  0  0  0  0  0
   38.9621   15.1001   -8.0439 C   0  0  0  0  0  0  0  0  0  0  0  0
   39.7994   14.0662   -7.4670 N   0  0  0  0  0  0  0  0  0  0  0  0
   39.3494   12.9685   -6.7290 C   0  0  0  0  0  0  0  0  0  0  0  0
   38.1275   12.8141   -6.5136 O   0  0  0  0  0  0  0  0  0  0  0  0
   40.8429   14.1422   -7.6209 H   0  0  0  0  0  0  0  0  0  0  0  0
   40.2371   12.0454   -6.2320 O   0  0  0  0  0  0  0  0  0  0  0  0
   41.6183   12.0393   -6.4233 C   0  0  0  0  0  0  0  0  0  0  0  0
   42.3910   11.1441   -5.5622 C   0  0  0  0  0  0  0  0  0  0  0  0
   41.8235   10.7135   -4.3671 C   0  0  0  0  0  0  0  0  0  0  0  0
   42.4994    9.8748   -3.5387 C   0  0  0  0  0  0  0  0  0  0  0  0
   43.7460    9.4155   -3.8233 C   0  0  0  0  0  0  0  0  0  0  0  0
   44.3467    9.8153   -4.9959 C   0  0  0  0  0  0  0  0  0  0  0  0
   43.6523   10.6782   -5.8492 C   0  0  0  0  0  0  0  0  0  0  0  0
   38.3103   15.9277   -7.0468 C   0  0  0  0  0  0  0  0  0  0  0  0
   36.8815   16.2752   -7.1352 C   0  0  0  0  0  0  0  0  0  0  0  0
   36.2874   15.2159   -8.1000 C   0  0  0  0  0  0  0  0  0  0  0  0
   36.0641   16.1719   -5.8965 C   0  0  0  0  0  0  0  0  0  0  0  0
   42.9116   15.4942  -11.0723 C   0  0  0  0  0  0  0  0  0  0  0  0
   44.2405   16.2331  -13.1013 C   0  0  0  0  0  0  0  0  0  0  0  0
   43.8175   16.4659  -11.7020 C   0  0  0  0  0  0  0  0  0  0  0  0
   45.0888   16.5003  -10.8316 C   0  0  0  0  0  0  0  0  0  0  0  0
 54 55  1  0  0  0
 55 56  1  0  0  0
 55 53  1  0  0  0
 53 31  1  0  0  0
 31 32  1  0  0  0
 32 33  1  0  0  0
 33 34  2  0  0  0
 33 36  1  0  0  0
 36 49  1  0  0  0
 49 50  1  0  0  0
 50 51  1  0  0  0
 50 52  1  0  0  0
 36 37  1  0  0  0
 37 38  1  0  0  0
 38 39  2  0  0  0
 38 41  1  0  0  0
 41 42  1  0  0  0
 42 43  1  0  0  0
 43 44  2  0  0  0
 44 45  1  0  0  0
 45 46  2  0  0  0
 46 47  1  0  0  0
 47 48  2  0  0  0
 31  1  1  0  0  0
  1  2  2  0  0  0
  1  3  1  0  0  0
  3  5  1  0  0  0
  5 20  1  0  0  0
 20 21  1  0  0  0
 21 22  1  0  0  0
 22 23  1  0  0  0
 23 24  2  0  0  0
 24 25  1  0  0  0
 24 26  1  0  0  0
  5  6  1  0  0  0
  6  7  2  0  0  0
  6  8  1  0  0  0
  8  9  1  0  0  0
  9 10  1  0  0  0
 10 11  1  0  0  0
 11 12  1  0  0  0
 12 13  1  0  0  0
 11 14  1  0  0  0
 14 15  1  0  0  0
 14 16  2  0  0  0
 48 43  1  0  0  0
 13  8  1  0  0  0
 32 35  1  0  0  0
 37 40  1  0  0  0
  3  4  1  0  0  0
 25 27  1  0  0  0
 25 28  1  0  0  0
 26 29  1  0  0  0
 26 30  1  0  0  0
 15 17  1  0  0  0
 15 18  1  0  0  0
 16 19  1  0  0  0
M  END
> <minimizedAffinity>
-8.21234

> <CNNscore>
0.2736456990

> <CNNaffinity>
6.6044149399

> <CNN_VS>
1.8072696924

> <CNNaffinity_variance>
0.6543455720

$$$$
[H]N=C(N([H])[H])N1C([H])([H])C([H])([H])N(C(=O)[C@@]([H])(N([H])C(=O)[C@@]([H])(N([H])C(=O)[C@@]([H])(N([H])C(=O)OC([H])([H])c2c([H])c([H])c([H])c([H])c2[H])C([H])([H])C([H])(C([H])([H])[H])C([H])([H])[H])C([H])([H])C([H])(C([H])([H])[H])C([H])([H])[H])C([H])([H])C([H])([H])C([H])([H])N=C(N([H])[H])N([H])[H])C([H])([H])C1([H])[H]


 56 57  0  0  0  0  0  0  0  0999 V2000
   40.3678   15.8146  -11.6390 C   0  0  0  0  0  0  0  0  0  0  0  0
   39.9990   16.7042  -12.4435 O   0  0  0  0  0  0  0  0  0  0  0  0
   39.4799   15.1781  -10.7988 N   0  0  0  0  0  0  0  0  0  0  0  0
   39.8481   14.4365  -10.1288 H   0  0  0  0  0  0  0  0  0  0  0  0
   38.0301   15.3959  -10.7018 C   0  0  0  0  0  0  0  0  0  0  0  0
   37.7243   15.3208   -9.2542 C   0  0  0  0  0  0  0  0  0  0  0  0
   38.7902   15.0323   -8.5354 O   0  0  0  0  0  0  0  0  0  0  0  0
   36.5170   15.5108   -8.6142 N   0  0  0  0  0  0  0  0  0  0  0  0
   35.2683   15.8262   -9.1993 C   0  0  0  0  0  0  0  0  0  0  0  0
   34.1515   15.9030   -8.1451 C   0  0  0  0  0  0  0  0  0  0  0  0
   34.2381   14.8006   -7.2240 N   0  0  0  0  0  0  0  0  0  0  0  0
   35.5414   14.2585   -6.8447 C   0  0  0  0  0  0  0  0  0  0  0  0
   36.5337   15.3697   -7.1353 C   0  0  0  0  0  0  0  0  0  0  0  0
   33.0793   14.2110   -6.6607 C   0  0  0  0  0  0  0  0  0  0  0  0
   31.9102   14.0420   -7.4566 N   0  0  0  0  0  0  0  0  0  0  0  0
   33.0394   13.8180   -5.4432 N   0  0  0  0  0  0  0  0  0  0  0  0
   31.1177   14.7351   -7.3872 H   0  0  0  0  0  0  0  0  0  0  0  0
   31.8801   13.2226   -8.0921 H   0  0  0  0  0  0  0  0  0  0  0  0
   32.2016   13.3907   -5.0333 H   0  0  0  0  0  0  0  0  0  0  0  0
   37.3914   14.4602  -11.6257 C   0  0  0  0  0  0  0  0  0  0  0  0
   36.6891   15.2598  -12.7368 C   0  0  0  0  0  0  0  0  0  0  0  0
   35.5686   14.4614  -13.3167 C   0  0  0  0  0  0  0  0  0  0  0  0
   34.3796   14.6690  -12.4610 N   0  0  0  0  0  0  0  0  0  0  0  0
   33.2570   14.2556  -12.8937 C   0  0  0  0  0  0  0  0  0  0  0  0
   33.1220   13.6176  -14.1449 N   0  0  0  0  0  0  0  0  0  0  0  0
   32.1147   14.4560  -12.0647 N   0  0  0  0  0  0  0  0  0  0  0  0
   33.4812   12.6456  -14.2946 H   0  0  0  0  0  0  0  0  0  0  0  0
   32.6580   14.1257  -14.9274 H   0  0  0  0  0  0  0  0  0  0  0  0
   31.2238   14.8340  -12.4534 H   0  0  0  0  0  0  0  0  0  0  0  0
   32.1752   14.2155  -11.0430 H   0  0  0  0  0  0  0  0  0  0  0  0
   41.8370   15.5147  -11.6781 C   0  0  0  0  0  0  0  0  0  0  0  0
   42.2701   15.0879  -12.9748 N   0  0  0  0  0  0  0  0  0  0  0  0
   43.0768   13.9258  -13.2119 C   0  0  0  0  0  0  0  0  0  0  0  0
   43.3708   13.2926  -12.1371 O   0  0  0  0  0  0  0  0  0  0  0  0
   41.9991   15.6144  -13.8167 H   0  0  0  0  0  0  0  0  0  0  0  0
   43.5396   13.4703  -14.5130 C   0  0  0  0  0  0  0  0  0  0  0  0
   42.4000   13.3928  -15.4064 N   0  0  0  0  0  0  0  0  0  0  0  0
   42.2974   12.5675  -16.5292 C   0  0  0  0  0  0  0  0  0  0  0  0
   43.2417   11.8094  -16.8405 O   0  0  0  0  0  0  0  0  0  0  0  0
   41.5684   14.0091  -15.1898 H   0  0  0  0  0  0  0  0  0  0  0  0
   41.1631   12.5744  -17.3040 O   0  0  0  0  0  0  0  0  0  0  0  0
   40.3873   11.4671  -17.6452 C   0  0  0  0  0  0  0  0  0  0  0  0
   39.0000   11.4761  -17.1814 C   0  0  0  0  0  0  0  0  0  0  0  0
   38.0457   10.7815  -17.9179 C   0  0  0  0  0  0  0  0  0  0  0  0
   36.7461   10.7541  -17.5217 C   0  0  0  0  0  0  0  0  0  0  0  0
   36.3101   11.3912  -16.4037 C   0  0  0  0  0  0  0  0  0  0  0  0
   37.2200   12.0910  -15.6435 C   0  0  0  0  0  0  0  0  0  0  0  0
   38.5576   12.1200  -16.0500 C   0  0  0  0  0  0  0  0  0  0  0  0
   44.6915   14.1156  -15.1136 C   0  0  0  0  0  0  0  0  0  0  0  0
   46.0694   13.6965  -14.8039 C   0  0  0  0  0  0  0  0  0  0  0  0
   46.6514   14.8718  -13.9756 C   0  0  0  0  0  0  0  0  0  0  0  0
   46.2534   12.4927  -13.9494 C   0  0  0  0  0  0  0  0  0  0  0  0
   42.6518   16.5376  -10.9977 C   0  0  0  0  0  0  0  0  0  0  0  0
   43.9816   16.6954   -8.8447 C   0  0  0  0  0  0  0  0  0  0  0  0
   43.8226   16.1343  -10.2053 C   0  0  0  0  0  0  0  0  0  0  0  0
   45.0621   16.5433  -11.0247 C   0  0  0  0  0  0  0  0  0  0  0  0
 54 55  1  0  0  0
 55 56  1  0  0  0
 55 53  1  0  0  0
 53 31  1  0  0  0
 31 32  1  0  0  0
 32 33  1  0  0  0
 33 34  2  0  0  0
 33 36  1  0  0  0
 36 49  1  0  0  0
 49 50  1  0  0  0
 50 51  1  0  0  0
 50 52  1  0  0  0
 36 37  1  0  0  0
 37 38  1  0  0  0
 38 39  2  0  0  0
 38 41  1  0  0  0
 41 42  1  0  0  0
 42 43  1  0  0  0
 43 44  2  0  0  0
 44 45  1  0  0  0
 45 46  2  0  0  0
 46 47  1  0  0  0
 47 48  2  0  0  0
 31  1  1  0  0  0
  1  2  2  0  0  0
  1  3  1  0  0  0
  3  5  1  0  0  0
  5 20  1  0  0  0
 20 21  1  0  0  0
 21 22  1  0  0  0
 22 23  1  0  0  0
 23 24  2  0  0  0
 24 25  1  0  0  0
 24 26  1  0  0  0
  5  6  1  0  0  0
  6  7  2  0  0  0
  6  8  1  0  0  0
  8  9  1  0  0  0
  9 10  1  0  0  0
 10 11  1  0  0  0
 11 12  1  0  0  0
 12 13  1  0  0  0
 11 14  1  0  0  0
 14 15  1  0  0  0
 14 16  2  0  0  0
 48 43  1  0  0  0
 13  8  1  0  0  0
 32 35  1  0  0  0
 37 40  1  0  0  0
  3  4  1  0  0  0
 25 27  1  0  0  0
 25 28  1  0  0  0
 26 29  1  0  0  0
 26 30  1  0  0  0
 15 17  1  0  0  0
 15 18  1  0  0  0
 16 19  1  0  0  0
M  END
> <minimizedAffinity>
-8.28774

> <CNNscore>
0.2526238561

> <CNNaffinity>
6.8969092369

> <CNN_VS>
1.7423237562

> <CNNaffinity_variance>
0.6977830529

$$$$
[H]N=C(N([H])[H])N1C([H])([H])C([H])([H])N(C(=O)[C@@]([H])(N([H])C(=O)[C@@]([H])(N([H])C(=O)[C@@]([H])(N([H])C(=O)OC([H])([H])c2c([H])c([H])c([H])c([H])c2[H])C([H])([H])C([H])(C([H])([H])[H])C([H])([H])[H])C([H])([H])C([H])(C([H])([H])[H])C([H])([H])[H])C([H])([H])C([H])([H])C([H])([H])N=C(N([H])[H])N([H])[H])C([H])([H])C1([H])[H]


 56 57  0  0  0  0  0  0  0  0999 V2000
   36.7805   14.5552  -11.5483 C   0  0  0  0  0  0  0  0  0  0  0  0
   36.0076   13.8470  -10.8584 O   0  0  0  0  0  0  0  0  0  0  0  0
   37.7466   15.3525  -10.9735 N   0  0  0  0  0  0  0  0  0  0  0  0
   38.3702   15.9407  -11.6056 H   0  0  0  0  0  0  0  0  0  0  0  0
   38.0437   15.5038   -9.5425 C   0  0  0  0  0  0  0  0  0  0  0  0
   36.9126   16.2879   -8.9941 C   0  0  0  0  0  0  0  0  0  0  0  0
   36.9170   17.5335   -9.4234 O   0  0  0  0  0  0  0  0  0  0  0  0
   35.9131   15.8795   -8.1354 N   0  0  0  0  0  0  0  0  0  0  0  0
   35.7312   14.5967   -7.5677 C   0  0  0  0  0  0  0  0  0  0  0  0
   34.5226   14.5633   -6.6177 C   0  0  0  0  0  0  0  0  0  0  0  0
   34.5109   15.7195   -5.7608 N   0  0  0  0  0  0  0  0  0  0  0  0
   34.9948   17.0073   -6.2548 C   0  0  0  0  0  0  0  0  0  0  0  0
   34.9084   16.9104   -7.7671 C   0  0  0  0  0  0  0  0  0  0  0  0
   34.0362   15.6507   -4.4275 C   0  0  0  0  0  0  0  0  0  0  0  0
   34.2188   16.7583   -3.5508 N   0  0  0  0  0  0  0  0  0  0  0  0
   33.4400   14.6144   -3.9704 N   0  0  0  0  0  0  0  0  0  0  0  0
   35.0132   16.7585   -2.8563 H   0  0  0  0  0  0  0  0  0  0  0  0
   33.5470   17.5448   -3.6294 H   0  0  0  0  0  0  0  0  0  0  0  0
   33.0953   14.5624   -3.0055 H   0  0  0  0  0  0  0  0  0  0  0  0
   39.4047   16.0271   -9.4382 C   0  0  0  0  0  0  0  0  0  0  0  0
   39.9671   15.6767   -8.0497 C   0  0  0  0  0  0  0  0  0  0  0  0
   41.3968   15.2617   -8.1626 C   0  0  0  0  0  0  0  0  0  0  0  0
   41.7577   14.5507   -6.9163 N   0  0  0  0  0  0  0  0  0  0  0  0
   41.9620   13.2970   -6.9857 C   0  0  0  0  0  0  0  0  0  0  0  0
   41.8540   12.5833   -8.1980 N   0  0  0  0  0  0  0  0  0  0  0  0
   42.3116   12.6167   -5.7825 N   0  0  0  0  0  0  0  0  0  0  0  0
   42.5727   12.6916   -8.9517 H   0  0  0  0  0  0  0  0  0  0  0  0
   41.0456   11.9415   -8.3400 H   0  0  0  0  0  0  0  0  0  0  0  0
   41.8516   11.7198   -5.5151 H   0  0  0  0  0  0  0  0  0  0  0  0
   43.0485   13.0297   -5.1567 H   0  0  0  0  0  0  0  0  0  0  0  0
   36.5585   14.4532  -13.0282 C   0  0  0  0  0  0  0  0  0  0  0  0
   37.7627   14.6636  -13.7742 N   0  0  0  0  0  0  0  0  0  0  0  0
   38.7530   13.6522  -14.0061 C   0  0  0  0  0  0  0  0  0  0  0  0
   38.4488   12.5237  -13.4803 O   0  0  0  0  0  0  0  0  0  0  0  0
   37.9638   15.5808  -14.1958 H   0  0  0  0  0  0  0  0  0  0  0  0
   39.9884   13.8351  -14.7511 C   0  0  0  0  0  0  0  0  0  0  0  0
   41.0413   14.1878  -13.8185 N   0  0  0  0  0  0  0  0  0  0  0  0
   41.0464   15.3029  -12.9766 C   0  0  0  0  0  0  0  0  0  0  0  0
   40.0857   16.1031  -12.9871 O   0  0  0  0  0  0  0  0  0  0  0  0
   41.8784   13.5442  -13.7627 H   0  0  0  0  0  0  0  0  0  0  0  0
   42.1006   15.5361  -12.1271 O   0  0  0  0  0  0  0  0  0  0  0  0
   43.4127   15.0954  -12.2963 C   0  0  0  0  0  0  0  0  0  0  0  0
   44.3427   16.0410  -12.9135 C   0  0  0  0  0  0  0  0  0  0  0  0
   45.1990   15.5811  -13.9089 C   0  0  0  0  0  0  0  0  0  0  0  0
   46.0743   16.4240  -14.5173 C   0  0  0  0  0  0  0  0  0  0  0  0
   46.1629   17.7410  -14.1957 C   0  0  0  0  0  0  0  0  0  0  0  0
   45.3343   18.2402  -13.2160 C   0  0  0  0  0  0  0  0  0  0  0  0
   44.4331   17.3740  -12.5893 C   0  0  0  0  0  0  0  0  0  0  0  0
   40.3894   12.8191  -15.7055 C   0  0  0  0  0  0  0  0  0  0  0  0
   39.5483   12.4584  -16.8598 C   0  0  0  0  0  0  0  0  0  0  0  0
   40.5609   12.1857  -18.0027 C   0  0  0  0  0  0  0  0  0  0  0  0
   38.7313   11.2189  -16.7631 C   0  0  0  0  0  0  0  0  0  0  0  0
   35.7235   13.2989  -13.4070 C   0  0  0  0  0  0  0  0  0  0  0  0
   33.4824   13.2527  -14.5920 C   0  0  0  0  0  0  0  0  0  0  0  0
   34.9591   13.3275  -14.6624 C   0  0  0  0  0  0  0  0  0  0  0  0
   35.4464   12.1249  -15.4940 C   0  0  0  0  0  0  0  0  0  0  0  0
 54 55  1  0  0  0
 55 56  1  0  0  0
 55 53  1  0  0  0
 53 31  1  0  0  0
 31 32  1  0  0  0
 32 33  1  0  0  0
 33 34  2  0  0  0
 33 36  1  0  0  0
 36 49  1  0  0  0
 49 50  1  0  0  0
 50 51  1  0  0  0
 50 52  1  0  0  0
 36 37  1  0  0  0
 37 38  1  0  0  0
 38 39  2  0  0  0
 38 41  1  0  0  0
 41 42  1  0  0  0
 42 43  1  0  0  0
 43 44  2  0  0  0
 44 45  1  0  0  0
 45 46  2  0  0  0
 46 47  1  0  0  0
 47 48  2  0  0  0
 31  1  1  0  0  0
  1  2  2  0  0  0
  1  3  1  0  0  0
  3  5  1  0  0  0
  5 20  1  0  0  0
 20 21  1  0  0  0
 21 22  1  0  0  0
 22 23  1  0  0  0
 23 24  2  0  0  0
 24 25  1  0  0  0
 24 26  1  0  0  0
  5  6  1  0  0  0
  6  7  2  0  0  0
  6  8  1  0  0  0
  8  9  1  0  0  0
  9 10  1  0  0  0
 10 11  1  0  0  0
 11 12  1  0  0  0
 12 13  1  0  0  0
 11 14  1  0  0  0
 14 15  1  0  0  0
 14 16  2  0  0  0
 48 43  1  0  0  0
 13  8  1  0  0  0
 32 35  1  0  0  0
 37 40  1  0  0  0
  3  4  1  0  0  0
 25 27  1  0  0  0
 25 28  1  0  0  0
 26 29  1  0  0  0
 26 30  1  0  0  0
 15 17  1  0  0  0
 15 18  1  0  0  0
 16 19  1  0  0  0
M  END
> <minimizedAffinity>
-7.68950

> <CNNscore>
0.2515090406

> <CNNaffinity>
6.7658729553

> <CNN_VS>
1.7016781569

> <CNNaffinity_variance>
0.2940723300

$$$$
[H]N=C(N([H])[H])N1C([H])([H])C([H])([H])N(C(=O)[C@@]([H])(N([H])C(=O)[C@@]([H])(N([H])C(=O)[C@@]([H])(N([H])C(=O)OC([H])([H])c2c([H])c([H])c([H])c([H])c2[H])C([H])([H])C([H])(C([H])([H])[H])C([H])([H])[H])C([H])([H])C([H])(C([H])([H])[H])C([H])([H])[H])C([H])([H])C([H])([H])C([H])([H])N=C(N([H])[H])N([H])[H])C([H])([H])C1([H])[H]


 56 57  0  0  0  0  0  0  0  0999 V2000
   38.3203   14.4781  -13.2763 C   0  0  0  0  0  0  0  0  0  0  0  0
   38.1003   13.2481  -13.1604 O   0  0  0  0  0  0  0  0  0  0  0  0
   37.4493   15.4242  -12.7807 N   0  0  0  0  0  0  0  0  0  0  0  0
   37.6803   16.4553  -12.9146 H   0  0  0  0  0  0  0  0  0  0  0  0
   36.1908   15.1884  -12.0600 C   0  0  0  0  0  0  0  0  0  0  0  0
   36.5283   15.3596  -10.6276 C   0  0  0  0  0  0  0  0  0  0  0  0
   36.2833   14.2718   -9.9259 O   0  0  0  0  0  0  0  0  0  0  0  0
   37.0426   16.4677   -9.9867 N   0  0  0  0  0  0  0  0  0  0  0  0
   37.3730   17.7200  -10.5555 C   0  0  0  0  0  0  0  0  0  0  0  0
   37.8709   18.7123   -9.4916 C   0  0  0  0  0  0  0  0  0  0  0  0
   37.0365   18.6705   -8.3199 N   0  0  0  0  0  0  0  0  0  0  0  0
   36.4293   17.4113   -7.8927 C   0  0  0  0  0  0  0  0  0  0  0  0
   37.2792   16.3253   -8.5268 C   0  0  0  0  0  0  0  0  0  0  0  0
   36.7785   19.8319   -7.5503 C   0  0  0  0  0  0  0  0  0  0  0  0
   37.1449   19.8679   -6.1745 N   0  0  0  0  0  0  0  0  0  0  0  0
   36.2182   20.8685   -8.0503 N   0  0  0  0  0  0  0  0  0  0  0  0
   36.4211   19.6855   -5.4287 H   0  0  0  0  0  0  0  0  0  0  0  0
   38.1359   20.0771   -5.9500 H   0  0  0  0  0  0  0  0  0  0  0  0
   36.0306   21.7106   -7.4952 H   0  0  0  0  0  0  0  0  0  0  0  0
   35.6583   13.9107  -12.5302 C   0  0  0  0  0  0  0  0  0  0  0  0
   34.6469   14.1785  -13.6582 C   0  0  0  0  0  0  0  0  0  0  0  0
   33.2564   13.9361  -13.1718 C   0  0  0  0  0  0  0  0  0  0  0  0
   32.9869   14.9012  -12.0832 N   0  0  0  0  0  0  0  0  0  0  0  0
   31.7845   15.0311  -11.6888 C   0  0  0  0  0  0  0  0  0  0  0  0
   30.7236   14.2922  -12.2539 N   0  0  0  0  0  0  0  0  0  0  0  0
   31.5302   15.9606  -10.6381 N   0  0  0  0  0  0  0  0  0  0  0  0
   30.6219   13.2672  -12.0658 H   0  0  0  0  0  0  0  0  0  0  0  0
   30.0351   14.7783  -12.8666 H   0  0  0  0  0  0  0  0  0  0  0  0
   30.7428   16.6418  -10.6974 H   0  0  0  0  0  0  0  0  0  0  0  0
   32.1497   15.9550   -9.7887 H   0  0  0  0  0  0  0  0  0  0  0  0
   39.5959   14.8145  -13.9900 C   0  0  0  0  0  0  0  0  0  0  0  0
   40.7362   14.7466  -13.1262 N   0  0  0  0  0  0  0  0  0  0  0  0
   41.1763   15.8240  -12.2878 C   0  0  0  0  0  0  0  0  0  0  0  0
   40.4360   16.8660  -12.3817 O   0  0  0  0  0  0  0  0  0  0  0  0
   41.2966   13.8853  -13.0659 H   0  0  0  0  0  0  0  0  0  0  0  0
   42.3326   15.7902  -11.4067 C   0  0  0  0  0  0  0  0  0  0  0  0
   42.0580   14.8694  -10.3208 N   0  0  0  0  0  0  0  0  0  0  0  0
   41.3979   15.1846   -9.1303 C   0  0  0  0  0  0  0  0  0  0  0  0
   40.9877   16.3482   -8.9280 O   0  0  0  0  0  0  0  0  0  0  0  0
   42.3783   13.8684  -10.4380 H   0  0  0  0  0  0  0  0  0  0  0  0
   41.1887   14.2260   -8.1687 O   0  0  0  0  0  0  0  0  0  0  0  0
   40.9654   14.4510   -6.8108 C   0  0  0  0  0  0  0  0  0  0  0  0
   39.5812   14.3385   -6.3512 C   0  0  0  0  0  0  0  0  0  0  0  0
   38.7765   13.3423   -6.8950 C   0  0  0  0  0  0  0  0  0  0  0  0
   37.4869   13.1934   -6.4932 C   0  0  0  0  0  0  0  0  0  0  0  0
   36.9179   13.9936   -5.5541 C   0  0  0  0  0  0  0  0  0  0  0  0
   37.6772   14.9931   -4.9883 C   0  0  0  0  0  0  0  0  0  0  0  0
   39.0043   15.1473   -5.4008 C   0  0  0  0  0  0  0  0  0  0  0  0
   43.6508   15.6121  -11.9852 C   0  0  0  0  0  0  0  0  0  0  0  0
   44.2215   14.2759  -12.2281 C   0  0  0  0  0  0  0  0  0  0  0  0
   44.5822   14.2805  -13.7367 C   0  0  0  0  0  0  0  0  0  0  0  0
   45.4867   13.9240  -11.5290 C   0  0  0  0  0  0  0  0  0  0  0  0
   39.7080   14.1622  -15.3073 C   0  0  0  0  0  0  0  0  0  0  0  0
   41.8941   13.1045  -16.0358 C   0  0  0  0  0  0  0  0  0  0  0  0
   40.5379   12.9585  -15.4610 C   0  0  0  0  0  0  0  0  0  0  0  0
   39.7470   12.0005  -16.3732 C   0  0  0  0  0  0  0  0  0  0  0  0
 54 55  1  0  0  0
 55 56  1  0  0  0
 55 53  1  0  0  0
 53 31  1  0  0  0
 31 32  1  0  0  0
 32 33  1  0  0  0
 33 34  2  0  0  0
 33 36  1  0  0  0
 36 49  1  0  0  0
 49 50  1  0  0  0
 50 51  1  0  0  0
 50 52  1  0  0  0
 36 37  1  0  0  0
 37 38  1  0  0  0
 38 39  2  0  0  0
 38 41  1  0  0  0
 41 42  1  0  0  0
 42 43  1  0  0  0
 43 44  2  0  0  0
 44 45  1  0  0  0
 45 46  2  0  0  0
 46 47  1  0  0  0
 47 48  2  0  0  0
 31  1  1  0  0  0
  1  2  2  0  0  0
  1  3  1  0  0  0
  3  5  1  0  0  0
  5 20  1  0  0  0
 20 21  1  0  0  0
 21 22  1  0  0  0
 22 23  1  0  0  0
 23 24  2  0  0  0
 24 25  1  0  0  0
 24 26  1  0  0  0
  5  6  1  0  0  0
  6  7  2  0  0  0
  6  8  1  0  0  0
  8  9  1  0  0  0
  9 10  1  0  0  0
 10 11  1  0  0  0
 11 12  1  0  0  0
 12 13  1  0  0  0
 11 14  1  0  0  0
 14 15  1  0  0  0
 14 16  2  0  0  0
 48 43  1  0  0  0
 13  8  1  0  0  0
 32 35  1  0  0  0
 37 40  1  0  0  0
  3  4  1  0  0  0
 25 27  1  0  0  0
 25 28  1  0  0  0
 26 29  1  0  0  0
 26 30  1  0  0  0
 15 17  1  0  0  0
 15 18  1  0  0  0
 16 19  1  0  0  0
M  END
> <minimizedAffinity>
-7.25353

> <CNNscore>
0.2304750085

> <CNNaffinity>
6.7153348923

> <CNN_VS>
1.5477168560

> <CNNaffinity_variance>
0.8422908783

$$$$
[H]Oc1c([H])c([H])c([H])c(OC([H])([H])C([H])([H])C([H])([H])C([H])([H])C([H])([H])C([H])([H])C([H])([H])C([H])([H])C([H])([H])C([H])([H])C([H])([H])C([H])([H])[H])c1[H]


 21 21  0  0  0  0  0  0  0  0999 V2000
   41.2291   14.7864  -13.8323 C   0  0  0  0  0  0  0  0  0  0  0  0
   40.0880   15.3290  -13.0015 C   0  0  0  0  0  0  0  0  0  0  0  0
   38.7361   14.9075  -13.5101 C   0  0  0  0  0  0  0  0  0  0  0  0
   37.7263   15.0609  -12.4208 C   0  0  0  0  0  0  0  0  0  0  0  0
   36.3003   14.7292  -12.8830 C   0  0  0  0  0  0  0  0  0  0  0  0
   35.8428   13.4892  -12.2227 C   0  0  0  0  0  0  0  0  0  0  0  0
   36.1084   12.2401  -13.0463 C   0  0  0  0  0  0  0  0  0  0  0  0
   35.5119   12.3975  -14.3956 C   0  0  0  0  0  0  0  0  0  0  0  0
   34.0595   12.1501  -14.5564 C   0  0  0  0  0  0  0  0  0  0  0  0
   34.5587   10.8281  -16.6644 C   0  0  0  0  0  0  0  0  0  0  0  0
   33.6028   11.1874  -15.5800 C   0  0  0  0  0  0  0  0  0  0  0  0
   40.7633   13.4358  -14.3569 C   0  0  0  0  0  0  0  0  0  0  0  0
   40.9833   13.4690  -15.7733 O   0  0  0  0  0  0  0  0  0  0  0  0
   40.1878   12.6236  -16.5283 C   0  0  0  0  0  0  0  0  0  0  0  0
   38.9986   12.2006  -15.9838 C   0  0  0  0  0  0  0  0  0  0  0  0
   38.1547   11.3585  -16.6755 C   0  0  0  0  0  0  0  0  0  0  0  0
   38.5177   10.9377  -17.9360 C   0  0  0  0  0  0  0  0  0  0  0  0
   39.6915   11.3354  -18.5130 C   0  0  0  0  0  0  0  0  0  0  0  0
   39.9915   10.8720  -19.7850 O   0  0  0  0  0  0  0  0  0  0  0  0
   40.5163   12.1804  -17.7930 C   0  0  0  0  0  0  0  0  0  0  0  0
   39.7447   11.3134  -20.6388 H   0  0  0  0  0  0  0  0  0  0  0  0
 10 11  1  0  0  0
 11  9  1  0  0  0
  9  8  1  0  0  0
  8  7  1  0  0  0
  7  6  1  0  0  0
  6  5  1  0  0  0
  5  4  1  0  0  0
  4  3  1  0  0  0
  3  2  1  0  0  0
  2  1  1  0  0  0
  1 12  1  0  0  0
 12 13  1  0  0  0
 13 14  1  0  0  0
 14 15  2  0  0  0
 15 16  1  0  0  0
 16 17  2  0  0  0
 17 18  1  0  0  0
 18 19  1  0  0  0
 18 20  2  0  0  0
 20 14  1  0  0  0
 19 21  1  0  0  0
M  END
> <minimizedAffinity>
-5.90279

> <CNNscore>
0.6875643134

> <CNNaffinity>
6.3251423836

> <CNN_VS>
4.3489422798

> <CNNaffinity_variance>
0.1125987545

$$$$
[H]Oc1c([H])c([H])c([H])c(OC([H])([H])C([H])([H])C([H])([H])C([H])([H])C([H])([H])C([H])([H])C([H])([H])C([H])([H])C([H])([H])C([H])([H])C([H])([H])C([H])([H])[H])c1[H]


 21 21  0  0  0  0  0  0  0  0999 V2000
   39.9515   12.1739  -17.4772 C   0  0  0  0  0  0  0  0  0  0  0  0
   40.6038   13.4213  -16.9245 C   0  0  0  0  0  0  0  0  0  0  0  0
   41.0999   13.2516  -15.5142 C   0  0  0  0  0  0  0  0  0  0  0  0
   42.5187   12.7867  -15.5399 C   0  0  0  0  0  0  0  0  0  0  0  0
   43.4608   13.7131  -14.7581 C   0  0  0  0  0  0  0  0  0  0  0  0
   43.1743   13.6034  -13.3129 C   0  0  0  0  0  0  0  0  0  0  0  0
   44.0501   14.5054  -12.4595 C   0  0  0  0  0  0  0  0  0  0  0  0
   44.6552   15.5604  -13.3093 C   0  0  0  0  0  0  0  0  0  0  0  0
   44.3948   16.9780  -12.9639 C   0  0  0  0  0  0  0  0  0  0  0  0
   45.0238   19.4322  -13.1125 C   0  0  0  0  0  0  0  0  0  0  0  0
   45.3804   18.0066  -13.3558 C   0  0  0  0  0  0  0  0  0  0  0  0
   38.9112   11.7519  -16.4496 C   0  0  0  0  0  0  0  0  0  0  0  0
   37.8482   11.1441  -17.1956 O   0  0  0  0  0  0  0  0  0  0  0  0
   36.5746   11.3117  -16.6786 C   0  0  0  0  0  0  0  0  0  0  0  0
   36.4516   11.9218  -15.4529 C   0  0  0  0  0  0  0  0  0  0  0  0
   35.2167   12.1230  -14.8748 C   0  0  0  0  0  0  0  0  0  0  0  0
   34.0894   11.7016  -15.5451 C   0  0  0  0  0  0  0  0  0  0  0  0
   34.1687   11.0910  -16.7657 C   0  0  0  0  0  0  0  0  0  0  0  0
   32.9919   10.6933  -17.3819 O   0  0  0  0  0  0  0  0  0  0  0  0
   35.4224   10.9037  -17.3187 C   0  0  0  0  0  0  0  0  0  0  0  0
   32.4451   11.2420  -18.0022 H   0  0  0  0  0  0  0  0  0  0  0  0
 10 11  1  0  0  0
 11  9  1  0  0  0
  9  8  1  0  0  0
  8  7  1  0  0  0
  7  6  1  0  0  0
  6  5  1  0  0  0
  5  4  1  0  0  0
  4  3  1  0  0  0
  3  2  1  0  0  0
  2  1  1  0  0  0
  1 12  1  0  0  0
 12 13  1  0  0  0
 13 14  1  0  0  0
 14 15  2  0  0  0
 15 16  1  0  0  0
 16 17  2  0  0  0
 17 18  1  0  0  0
 18 19  1  0  0  0
 18 20  2  0  0  0
 20 14  1  0  0  0
 19 21  1  0  0  0
M  END
> <minimizedAffinity>
-5.61250

> <CNNscore>
0.6044921279

> <CNNaffinity>
5.5572233200

> <CNN_VS>
3.3592977524

> <CNNaffinity_variance>
0.1362863779

$$$$
[H]Oc1c([H])c([H])c([H])c(OC([H])([H])C([H])([H])C([H])([H])C([H])([H])C([H])([H])C([H])([H])C([H])([H])C([H])([H])C([H])([H])C([H])([H])C([H])([H])C([H])([H])[H])c1[H]


 21 21  0  0  0  0  0  0  0  0999 V2000
   40.2709   12.3364  -17.5443 C   0  0  0  0  0  0  0  0  0  0  0  0
   38.9806   11.8314  -16.9384 C   0  0  0  0  0  0  0  0  0  0  0  0
   38.4482   10.6029  -17.6248 C   0  0  0  0  0  0  0  0  0  0  0  0
   36.9852   10.7684  -17.8739 C   0  0  0  0  0  0  0  0  0  0  0  0
   36.2311   11.2999  -16.6467 C   0  0  0  0  0  0  0  0  0  0  0  0
   34.7903   11.0038  -16.7860 C   0  0  0  0  0  0  0  0  0  0  0  0
   33.9890   11.3313  -15.5371 C   0  0  0  0  0  0  0  0  0  0  0  0
   34.6010   12.4911  -14.8430 C   0  0  0  0  0  0  0  0  0  0  0  0
   34.9093   12.3647  -13.3988 C   0  0  0  0  0  0  0  0  0  0  0  0
   37.4260   12.0479  -13.4791 C   0  0  0  0  0  0  0  0  0  0  0  0
   36.2470   12.7598  -12.9117 C   0  0  0  0  0  0  0  0  0  0  0  0
   40.7430   13.4702  -16.6454 C   0  0  0  0  0  0  0  0  0  0  0  0
   40.4832   13.0393  -15.3027 O   0  0  0  0  0  0  0  0  0  0  0  0
   40.9500   13.8722  -14.2998 C   0  0  0  0  0  0  0  0  0  0  0  0
   42.2504   13.7135  -13.8834 C   0  0  0  0  0  0  0  0  0  0  0  0
   42.7850   14.5055  -12.8900 C   0  0  0  0  0  0  0  0  0  0  0  0
   41.9939   15.4720  -12.3089 C   0  0  0  0  0  0  0  0  0  0  0  0
   40.6961   15.6618  -12.6944 C   0  0  0  0  0  0  0  0  0  0  0  0
   39.9594   16.6538  -12.0651 O   0  0  0  0  0  0  0  0  0  0  0  0
   40.1895   14.8509  -13.6936 C   0  0  0  0  0  0  0  0  0  0  0  0
   39.8919   17.6008  -12.3538 H   0  0  0  0  0  0  0  0  0  0  0  0
 10 11  1  0  0  0
 11  9  1  0  0  0
  9  8  1  0  0  0
  8  7  1  0  0  0
  7  6  1  0  0  0
  6  5  1  0  0  0
  5  4  1  0  0  0
  4  3  1  0  0  0
  3  2  1  0  0  0
  2  1  1  0  0  0
  1 12  1  0  0  0
 12 13  1  0  0  0
 13 14  1  0  0  0
 14 15  2  0  0  0
 15 16  1  0  0  0
 16 17  2  0  0  0
 17 18  1  0  0  0
 18 19  1  0  0  0
 18 20  2  0  0  0
 20 14  1  0  0  0
 19 21  1  0  0  0
M  END
> <minimizedAffinity>
-6.02463

> <CNNscore>
0.4891743958

> <CNNaffinity>
5.7117438316

> <CNN_VS>
2.7940387726

> <CNNaffinity_variance>
0.2183331996

$$$$
[H]Oc1c([H])c([H])c([H])c(OC([H])([H])C([H])([H])C([H])([H])C([H])([H])C([H])([H])C([H])([H])C([H])([H])C([H])([H])C([H])([H])C([H])([H])C([H])([H])C([H])([H])[H])c1[H]


 21 21  0  0  0  0  0  0  0  0999 V2000
   37.5837   14.6921  -12.7795 C   0  0  0  0  0  0  0  0  0  0  0  0
   36.4962   13.6548  -12.6114 C   0  0  0  0  0  0  0  0  0  0  0  0
   36.1143   12.9862  -13.9041 C   0  0  0  0  0  0  0  0  0  0  0  0
   35.0501   13.7858  -14.5807 C   0  0  0  0  0  0  0  0  0  0  0  0
   33.6856   13.0821  -14.5753 C   0  0  0  0  0  0  0  0  0  0  0  0
   33.8769   11.6320  -14.7842 C   0  0  0  0  0  0  0  0  0  0  0  0
   33.6797   11.2048  -16.2290 C   0  0  0  0  0  0  0  0  0  0  0  0
   34.8951   10.5033  -16.7109 C   0  0  0  0  0  0  0  0  0  0  0  0
   35.9537   11.3027  -17.3719 C   0  0  0  0  0  0  0  0  0  0  0  0
   38.4423   10.9030  -17.6678 C   0  0  0  0  0  0  0  0  0  0  0  0
   37.3121   11.3179  -16.7908 C   0  0  0  0  0  0  0  0  0  0  0  0
   38.4821   14.1832  -13.8976 C   0  0  0  0  0  0  0  0  0  0  0  0
   39.8044   14.6320  -13.5720 O   0  0  0  0  0  0  0  0  0  0  0  0
   40.8353   14.0406  -14.2827 C   0  0  0  0  0  0  0  0  0  0  0  0
   42.0853   14.0231  -13.7109 C   0  0  0  0  0  0  0  0  0  0  0  0
   43.1599   13.4524  -14.3582 C   0  0  0  0  0  0  0  0  0  0  0  0
   42.9688   12.8911  -15.6017 C   0  0  0  0  0  0  0  0  0  0  0  0
   41.7419   12.8880  -16.2047 C   0  0  0  0  0  0  0  0  0  0  0  0
   41.6241   12.3049  -17.4572 O   0  0  0  0  0  0  0  0  0  0  0  0
   40.6840   13.4686  -15.5292 C   0  0  0  0  0  0  0  0  0  0  0  0
   41.4071   11.3537  -17.6387 H   0  0  0  0  0  0  0  0  0  0  0  0
 10 11  1  0  0  0
 11  9  1  0  0  0
  9  8  1  0  0  0
  8  7  1  0  0  0
  7  6  1  0  0  0
  6  5  1  0  0  0
  5  4  1  0  0  0
  4  3  1  0  0  0
  3  2  1  0  0  0
  2  1  1  0  0  0
  1 12  1  0  0  0
 12 13  1  0  0  0
 13 14  1  0  0  0
 14 15  2  0  0  0
 15 16  1  0  0  0
 16 17  2  0  0  0
 17 18  1  0  0  0
 18 19  1  0  0  0
 18 20  2  0  0  0
 20 14  1  0  0  0
 19 21  1  0  0  0
M  END
> <minimizedAffinity>
-5.96165

> <CNNscore>
0.4698249102

> <CNNaffinity>
6.0852427483

> <CNN_VS>
2.8589985371

> <CNNaffinity_variance>
0.0907740220

$$$$
[H]Oc1c([H])c([H])c([H])c(OC([H])([H])C([H])([H])C([H])([H])C([H])([H])C([H])([H])C([H])([H])C([H])([H])C([H])([H])C([H])([H])C([H])([H])C([H])([H])C([H])([H])[H])c1[H]


 21 21  0  0  0  0  0  0  0  0999 V2000
   39.6467   11.0814  -17.4276 C   0  0  0  0  0  0  0  0  0  0  0  0
   39.9101   12.5597  -17.2482 C   0  0  0  0  0  0  0  0  0  0  0  0
   40.7339   12.8679  -16.0275 C   0  0  0  0  0  0  0  0  0  0  0  0
   42.1479   12.4509  -16.2649 C   0  0  0  0  0  0  0  0  0  0  0  0
   43.1562   13.2944  -15.4718 C   0  0  0  0  0  0  0  0  0  0  0  0
   42.6273   13.5509  -14.1162 C   0  0  0  0  0  0  0  0  0  0  0  0
   43.6636   14.1351  -13.1708 C   0  0  0  0  0  0  0  0  0  0  0  0
   43.7449   13.3024  -11.9455 C   0  0  0  0  0  0  0  0  0  0  0  0
   44.9702   12.4995  -11.7201 C   0  0  0  0  0  0  0  0  0  0  0  0
   46.3054   10.8970  -10.2746 C   0  0  0  0  0  0  0  0  0  0  0  0
   45.1857   11.8712  -10.4003 C   0  0  0  0  0  0  0  0  0  0  0  0
   38.1372   10.9348  -17.5554 C   0  0  0  0  0  0  0  0  0  0  0  0
   37.5751   11.7717  -16.5358 O   0  0  0  0  0  0  0  0  0  0  0  0
   36.2270   11.5878  -16.2784 C   0  0  0  0  0  0  0  0  0  0  0  0
   35.5765   10.5747  -16.9418 C   0  0  0  0  0  0  0  0  0  0  0  0
   34.2354   10.3313  -16.7372 C   0  0  0  0  0  0  0  0  0  0  0  0
   33.5413   11.1233  -15.8491 C   0  0  0  0  0  0  0  0  0  0  0  0
   34.1511   12.1408  -15.1694 C   0  0  0  0  0  0  0  0  0  0  0  0
   33.3897   12.8968  -14.2913 O   0  0  0  0  0  0  0  0  0  0  0  0
   35.4977   12.3592  -15.3970 C   0  0  0  0  0  0  0  0  0  0  0  0
   33.2528   12.7069  -13.3270 H   0  0  0  0  0  0  0  0  0  0  0  0
 10 11  1  0  0  0
 11  9  1  0  0  0
  9  8  1  0  0  0
  8  7  1  0  0  0
  7  6  1  0  0  0
  6  5  1  0  0  0
  5  4  1  0  0  0
  4  3  1  0  0  0
  3  2  1  0  0  0
  2  1  1  0  0  0
  1 12  1  0  0  0
 12 13  1  0  0  0
 13 14  1  0  0  0
 14 15  2  0  0  0
 15 16  1  0  0  0
 16 17  2  0  0  0
 17 18  1  0  0  0
 18 19  1  0  0  0
 18 20  2  0  0  0
 20 14  1  0  0  0
 19 21  1  0  0  0
M  END
> <minimizedAffinity>
-5.72182

> <CNNscore>
0.4436012805

> <CNNaffinity>
5.5747399330

> <CNN_VS>
2.4729616642

> <CNNaffinity_variance>
0.0984475613

$$$$
[H]Oc1c([H])c([H])c([H])c(OC([H])([H])C([H])([H])C([H])([H])C([H])([H])C([H])([H])C([H])([H])C([H])([H])C([H])([H])C([H])([H])C([H])([H])C([H])([H])C([H])([H])[H])c1[H]


 21 21  0  0  0  0  0  0  0  0999 V2000
   39.3635   11.0790  -19.2065 C   0  0  0  0  0  0  0  0  0  0  0  0
   37.9264   10.6894  -18.9426 C   0  0  0  0  0  0  0  0  0  0  0  0
   37.5611   10.7370  -17.4837 C   0  0  0  0  0  0  0  0  0  0  0  0
   36.2178   11.3706  -17.3290 C   0  0  0  0  0  0  0  0  0  0  0  0
   35.1503   10.3844  -16.8343 C   0  0  0  0  0  0  0  0  0  0  0  0
   33.9050   11.1176  -16.5270 C   0  0  0  0  0  0  0  0  0  0  0  0
   33.6746   11.3069  -15.0370 C   0  0  0  0  0  0  0  0  0  0  0  0
   33.7835   12.7467  -14.6955 C   0  0  0  0  0  0  0  0  0  0  0  0
   35.1192   13.2898  -14.3527 C   0  0  0  0  0  0  0  0  0  0  0  0
   37.1908   11.9714  -13.7117 C   0  0  0  0  0  0  0  0  0  0  0  0
   35.9173   12.6261  -13.3013 C   0  0  0  0  0  0  0  0  0  0  0  0
   40.0223   11.2097  -17.8408 C   0  0  0  0  0  0  0  0  0  0  0  0
   40.4376   12.5780  -17.7358 O   0  0  0  0  0  0  0  0  0  0  0  0
   40.8717   12.9835  -16.4850 C   0  0  0  0  0  0  0  0  0  0  0  0
   42.2104   12.8623  -16.1968 C   0  0  0  0  0  0  0  0  0  0  0  0
   42.7160   13.2448  -14.9731 C   0  0  0  0  0  0  0  0  0  0  0  0
   41.8564   13.7575  -14.0265 C   0  0  0  0  0  0  0  0  0  0  0  0
   40.5188   13.8943  -14.2736 C   0  0  0  0  0  0  0  0  0  0  0  0
   39.7136   14.4180  -13.2736 O   0  0  0  0  0  0  0  0  0  0  0  0
   40.0428   13.5012  -15.5111 C   0  0  0  0  0  0  0  0  0  0  0  0
   39.5038   15.3784  -13.1381 H   0  0  0  0  0  0  0  0  0  0  0  0
 10 11  1  0  0  0
 11  9  1  0  0  0
  9  8  1  0  0  0
  8  7  1  0  0  0
  7  6  1  0  0  0
  6  5  1  0  0  0
  5  4  1  0  0  0
  4  3  1  0  0  0
  3  2  1  0  0  0
  2  1  1  0  0  0
  1 12  1  0  0  0
 12 13  1  0  0  0
 13 14  1  0  0  0
 14 15  2  0  0  0
 15 16  1  0  0  0
 16 17  2  0  0  0
 17 18  1  0  0  0
 18 19  1  0  0  0
 18 20  2  0  0  0
 20 14  1  0  0  0
 19 21  1  0  0  0
M  END
> <minimizedAffinity>
-6.12897

> <CNNscore>
0.4421733022

> <CNNaffinity>
6.1427869797

> <CNN_VS>
2.7161765099

> <CNNaffinity_variance>
0.0840287954

$$$$
[H]Oc1c([H])c([H])c([H])c(OC([H])([H])C([H])([H])C([H])([H])C([H])([H])C([H])([H])C([H])([H])C([H])([H])C([H])([H])C([H])([H])C([H])([H])C([H])([H])C([H])([H])[H])c1[H]


 21 21  0  0  0  0  0  0  0  0999 V2000
   38.9476   11.3384  -17.1417 C   0  0  0  0  0  0  0  0  0  0  0  0
   37.6334   11.6591  -16.4657 C   0  0  0  0  0  0  0  0  0  0  0  0
   37.7769   12.6390  -15.3329 C   0  0  0  0  0  0  0  0  0  0  0  0
   37.7832   11.9000  -14.0354 C   0  0  0  0  0  0  0  0  0  0  0  0
   36.8355   12.5169  -12.9969 C   0  0  0  0  0  0  0  0  0  0  0  0
   36.0575   13.6056  -13.6233 C   0  0  0  0  0  0  0  0  0  0  0  0
   34.5720   13.5350  -13.3114 C   0  0  0  0  0  0  0  0  0  0  0  0
   33.8326   13.0740  -14.5123 C   0  0  0  0  0  0  0  0  0  0  0  0
   33.8958   11.6369  -14.8692 C   0  0  0  0  0  0  0  0  0  0  0  0
   34.3119   10.0251  -16.7848 C   0  0  0  0  0  0  0  0  0  0  0  0
   33.6074   11.2276  -16.2593 C   0  0  0  0  0  0  0  0  0  0  0  0
   39.7650   12.6217  -17.1039 C   0  0  0  0  0  0  0  0  0  0  0  0
   41.1387   12.2114  -17.1225 O   0  0  0  0  0  0  0  0  0  0  0  0
   41.9367   12.7257  -16.1144 C   0  0  0  0  0  0  0  0  0  0  0  0
   41.3159   13.2696  -15.0152 C   0  0  0  0  0  0  0  0  0  0  0  0
   42.0440   13.8006  -13.9724 C   0  0  0  0  0  0  0  0  0  0  0  0
   43.4197   13.7818  -14.0412 C   0  0  0  0  0  0  0  0  0  0  0  0
   44.0754   13.2503  -15.1166 C   0  0  0  0  0  0  0  0  0  0  0  0
   45.4619   13.2657  -15.1174 O   0  0  0  0  0  0  0  0  0  0  0  0
   43.3161   12.7254  -16.1466 C   0  0  0  0  0  0  0  0  0  0  0  0
   46.0523   12.5539  -14.7577 H   0  0  0  0  0  0  0  0  0  0  0  0
 10 11  1  0  0  0
 11  9  1  0  0  0
  9  8  1  0  0  0
  8  7  1  0  0  0
  7  6  1  0  0  0
  6  5  1  0  0  0
  5  4  1  0  0  0
  4  3  1  0  0  0
  3  2  1  0  0  0
  2  1  1  0  0  0
  1 12  1  0  0  0
 12 13  1  0  0  0
 13 14  1  0  0  0
 14 15  2  0  0  0
 15 16  1  0  0  0
 16 17  2  0  0  0
 17 18  1  0  0  0
 18 19  1  0  0  0
 18 20  2  0  0  0
 20 14  1  0  0  0
 19 21  1  0  0  0
M  END
> <minimizedAffinity>
-5.86013

> <CNNscore>
0.4283434451

> <CNNaffinity>
5.8872547150

> <CNN_VS>
2.5217669010

> <CNNaffinity_variance>
0.0292757787

$$$$
[H]Oc1c([H])c([H])c([H])c(OC([H])([H])C([H])([H])C([H])([H])C([H])([H])C([H])([H])C([H])([H])C([H])([H])C([H])([H])C([H])([H])C([H])([H])C([H])([H])C([H])([H])[H])c1[H]


 21 21  0  0  0  0  0  0  0  0999 V2000
   39.9311   14.5834  -14.4578 C   0  0  0  0  0  0  0  0  0  0  0  0
   38.5228   14.0324  -14.4546 C   0  0  0  0  0  0  0  0  0  0  0  0
   38.4413   12.6257  -13.9269 C   0  0  0  0  0  0  0  0  0  0  0  0
   37.0820   12.0713  -14.2001 C   0  0  0  0  0  0  0  0  0  0  0  0
   36.4356   12.6765  -15.4543 C   0  0  0  0  0  0  0  0  0  0  0  0
   35.3648   11.7813  -15.9390 C   0  0  0  0  0  0  0  0  0  0  0  0
   35.6311   11.2287  -17.3292 C   0  0  0  0  0  0  0  0  0  0  0  0
   36.8622   10.4008  -17.3084 C   0  0  0  0  0  0  0  0  0  0  0  0
   37.9452   10.7255  -18.2667 C   0  0  0  0  0  0  0  0  0  0  0  0
   40.1951   11.8466  -18.6155 C   0  0  0  0  0  0  0  0  0  0  0  0
   39.2940   11.0360  -17.7497 C   0  0  0  0  0  0  0  0  0  0  0  0
   40.8544   13.3803  -14.3286 C   0  0  0  0  0  0  0  0  0  0  0  0
   42.1849   13.9121  -14.2751 O   0  0  0  0  0  0  0  0  0  0  0  0
   43.1294   13.2558  -15.0463 C   0  0  0  0  0  0  0  0  0  0  0  0
   42.7026   12.6286  -16.1926 C   0  0  0  0  0  0  0  0  0  0  0  0
   43.5845   11.9553  -17.0103 C   0  0  0  0  0  0  0  0  0  0  0  0
   44.9174   11.9152  -16.6646 C   0  0  0  0  0  0  0  0  0  0  0  0
   45.3821   12.5259  -15.5332 C   0  0  0  0  0  0  0  0  0  0  0  0
   46.7367   12.4440  -15.2484 O   0  0  0  0  0  0  0  0  0  0  0  0
   44.4719   13.1931  -14.7339 C   0  0  0  0  0  0  0  0  0  0  0  0
   47.4340   13.0843  -15.5459 H   0  0  0  0  0  0  0  0  0  0  0  0
 10 11  1  0  0  0
 11  9  1  0  0  0
  9  8  1  0  0  0
  8  7  1  0  0  0
  7  6  1  0  0  0
  6  5  1  0  0  0
  5  4  1  0  0  0
  4  3  1  0  0  0
  3  2  1  0  0  0
  2  1  1  0  0  0
  1 12  1  0  0  0
 12 13  1  0  0  0
 13 14  1  0  0  0
 14 15  2  0  0  0
 15 16  1  0  0  0
 16 17  2  0  0  0
 17 18  1  0  0  0
 18 19  1  0  0  0
 18 20  2  0  0  0
 20 14  1  0  0  0
 19 21  1  0  0  0
M  END
> <minimizedAffinity>
-5.76951

> <CNNscore>
0.4252265990

> <CNNaffinity>
5.7149324417

> <CNN_VS>
2.4301412106

> <CNNaffinity_variance>
0.1152164489

$$$$
[H]Oc1c([H])c([H])c([H])c(OC([H])([H])C([H])([H])C([H])([H])C([H])([H])C([H])([H])C([H])([H])C([H])([H])C([H])([H])C([H])([H])C([H])([H])C([H])([H])C([H])([H])[H])c1[H]


 21 21  0  0  0  0  0  0  0  0999 V2000
   41.1830   13.2884  -15.9410 C   0  0  0  0  0  0  0  0  0  0  0  0
   40.0265   13.0020  -16.8724 C   0  0  0  0  0  0  0  0  0  0  0  0
   40.4390   12.2560  -18.1123 C   0  0  0  0  0  0  0  0  0  0  0  0
   39.6186   11.0150  -18.2406 C   0  0  0  0  0  0  0  0  0  0  0  0
   38.5936   10.8618  -17.1079 C   0  0  0  0  0  0  0  0  0  0  0  0
   37.2350   10.7668  -17.6806 C   0  0  0  0  0  0  0  0  0  0  0  0
   36.1761   11.4395  -16.8231 C   0  0  0  0  0  0  0  0  0  0  0  0
   34.9182   10.6546  -16.8786 C   0  0  0  0  0  0  0  0  0  0  0  0
   33.7257   11.1855  -16.1767 C   0  0  0  0  0  0  0  0  0  0  0  0
   33.5438   13.2017  -14.6461 C   0  0  0  0  0  0  0  0  0  0  0  0
   33.8839   11.7627  -14.8258 C   0  0  0  0  0  0  0  0  0  0  0  0
   40.5630   13.6667  -14.6035 C   0  0  0  0  0  0  0  0  0  0  0  0
   39.3344   12.9321  -14.5199 O   0  0  0  0  0  0  0  0  0  0  0  0
   38.3970   13.4222  -13.6264 C   0  0  0  0  0  0  0  0  0  0  0  0
   37.3134   12.6301  -13.3298 C   0  0  0  0  0  0  0  0  0  0  0  0
   36.3395   13.0505  -12.4498 C   0  0  0  0  0  0  0  0  0  0  0  0
   36.4624   14.2897  -11.8606 C   0  0  0  0  0  0  0  0  0  0  0  0
   37.5245   15.1077  -12.1287 C   0  0  0  0  0  0  0  0  0  0  0  0
   37.5822   16.3415  -11.4988 O   0  0  0  0  0  0  0  0  0  0  0  0
   38.4846   14.6567  -13.0162 C   0  0  0  0  0  0  0  0  0  0  0  0
   38.0142   16.5298  -10.6255 H   0  0  0  0  0  0  0  0  0  0  0  0
 10 11  1  0  0  0
 11  9  1  0  0  0
  9  8  1  0  0  0
  8  7  1  0  0  0
  7  6  1  0  0  0
  6  5  1  0  0  0
  5  4  1  0  0  0
  4  3  1  0  0  0
  3  2  1  0  0  0
  2  1  1  0  0  0
  1 12  1  0  0  0
 12 13  1  0  0  0
 13 14  1  0  0  0
 14 15  2  0  0  0
 15 16  1  0  0  0
 16 17  2  0  0  0
 17 18  1  0  0  0
 18 19  1  0  0  0
 18 20  2  0  0  0
 20 14  1  0  0  0
 19 21  1  0  0  0
M  END
> <minimizedAffinity>
-6.13291

> <CNNscore>
0.4069837332

> <CNNaffinity>
5.6663961411

> <CNN_VS>
2.3061311245

> <CNNaffinity_variance>
0.2770192623

$$$$
[H]OC1(C#Cc2c([H])c([H])c([H])c([H])c2[H])C([H])([H])C([H])([H])N(c2nc3c([H])c(Br)c(C(F)(F)F)c([H])c3n([H])c2=O)C([H])([H])C1([H])[H]


 33 36  0  0  0  0  0  0  0  0999 V2000
   42.0817   13.2426  -15.0124 C   0  0  0  0  0  0  0  0  0  0  0  0
   40.7635   13.2460  -14.6350 N   0  0  0  0  0  0  0  0  0  0  0  0
   39.7845   12.7016  -15.3324 C   0  0  0  0  0  0  0  0  0  0  0  0
   38.4591   12.7291  -14.9093 C   0  0  0  0  0  0  0  0  0  0  0  0
   37.4671   12.1390  -15.6845 C   0  0  0  0  0  0  0  0  0  0  0  0
   35.6793   12.2160  -15.0423 Br  0  0  0  0  0  0  0  0  0  0  0  0
   37.7511   11.5194  -16.8722 C   0  0  0  0  0  0  0  0  0  0  0  0
   39.0698   11.5001  -17.2787 C   0  0  0  0  0  0  0  0  0  0  0  0
   40.0789   12.0778  -16.5307 C   0  0  0  0  0  0  0  0  0  0  0  0
   41.3558   12.0509  -16.9391 N   0  0  0  0  0  0  0  0  0  0  0  0
   42.3551   12.6210  -16.2018 C   0  0  0  0  0  0  0  0  0  0  0  0
   43.5299   12.5704  -16.6275 O   0  0  0  0  0  0  0  0  0  0  0  0
   41.5921   11.5841  -17.8403 H   0  0  0  0  0  0  0  0  0  0  0  0
   45.4632   14.8026  -12.3857 O   0  0  0  0  0  0  0  0  0  0  0  0
   45.1149   13.4416  -12.4912 C   0  0  0  0  0  0  0  0  0  0  0  0
   45.2694   13.0542  -13.9230 C   0  0  0  0  0  0  0  0  0  0  0  0
   44.3982   14.0081  -14.7551 C   0  0  0  0  0  0  0  0  0  0  0  0
   43.0332   13.8354  -14.1848 N   0  0  0  0  0  0  0  0  0  0  0  0
   42.9018   14.3219  -12.8460 C   0  0  0  0  0  0  0  0  0  0  0  0
   43.6948   13.3290  -11.9733 C   0  0  0  0  0  0  0  0  0  0  0  0
   46.1279   14.8812  -11.6589 H   0  0  0  0  0  0  0  0  0  0  0  0
   45.9567   12.6174  -11.6245 C   0  0  0  0  0  0  0  0  0  0  0  0
   46.6719   11.9438  -10.9135 C   0  0  0  0  0  0  0  0  0  0  0  0
   47.5355   11.1559  -10.0884 C   0  0  0  0  0  0  0  0  0  0  0  0
   48.5060   11.7359   -9.2984 C   0  0  0  0  0  0  0  0  0  0  0  0
   49.3489   11.0042   -8.4965 C   0  0  0  0  0  0  0  0  0  0  0  0
   49.2441    9.6335   -8.4593 C   0  0  0  0  0  0  0  0  0  0  0  0
   48.2916    9.0287   -9.2313 C   0  0  0  0  0  0  0  0  0  0  0  0
   47.4636    9.7756  -10.0217 C   0  0  0  0  0  0  0  0  0  0  0  0
   36.6901   10.8820  -17.7123 C   0  0  0  0  0  0  0  0  0  0  0  0
   36.1620    9.8130  -17.0222 F   0  0  0  0  0  0  0  0  0  0  0  0
   35.7311   11.8284  -18.0355 F   0  0  0  0  0  0  0  0  0  0  0  0
   37.3255   10.4432  -18.8771 F   0  0  0  0  0  0  0  0  0  0  0  0
 14 15  1  0  0  0
 15 16  1  0  0  0
 16 17  1  0  0  0
 17 18  1  0  0  0
 18 19  1  0  0  0
 19 20  1  0  0  0
 18  1  1  0  0  0
  1  2  2  0  0  0
  2  3  1  0  0  0
  3  4  2  0  0  0
  4  5  1  0  0  0
  5  6  1  0  0  0
  5  7  2  0  0  0
  7  8  1  0  0  0
  8  9  2  0  0  0
  9 10  1  0  0  0
 10 11  1  0  0  0
 11 12  2  0  0  0
  7 30  1  0  0  0
 30 31  1  0  0  0
 30 32  1  0  0  0
 30 33  1  0  0  0
 15 22  1  0  0  0
 22 23  3  0  0  0
 23 24  1  0  0  0
 24 25  2  0  0  0
 25 26  1  0  0  0
 26 27  2  0  0  0
 27 28  1  0  0  0
 28 29  2  0  0  0
 20 15  1  0  0  0
 11  1  1  0  0  0
 29 24  1  0  0  0
  9  3  1  0  0  0
 14 21  1  0  0  0
 10 13  1  0  0  0
M  END
> <minimizedAffinity>
-8.69021

> <CNNscore>
0.5541751981

> <CNNaffinity>
6.6433563232

> <CNN_VS>
3.6815834045

> <CNNaffinity_variance>
0.3411780596

$$$$
[H]OC1(C#Cc2c([H])c([H])c([H])c([H])c2[H])C([H])([H])C([H])([H])N(c2nc3c([H])c(Br)c(C(F)(F)F)c([H])c3n([H])c2=O)C([H])([H])C1([H])[H]


 33 36  0  0  0  0  0  0  0  0999 V2000
   40.2512   13.1737  -15.4751 C   0  0  0  0  0  0  0  0  0  0  0  0
   39.0910   13.4424  -14.7954 N   0  0  0  0  0  0  0  0  0  0  0  0
   37.9179   12.9086  -15.0782 C   0  0  0  0  0  0  0  0  0  0  0  0
   36.7652   13.2112  -14.3596 C   0  0  0  0  0  0  0  0  0  0  0  0
   35.5547   12.6188  -14.7013 C   0  0  0  0  0  0  0  0  0  0  0  0
   34.0226   13.0805  -13.6744 Br  0  0  0  0  0  0  0  0  0  0  0  0
   35.4521   11.7311  -15.7390 C   0  0  0  0  0  0  0  0  0  0  0  0
   36.6035   11.4409  -16.4422 C   0  0  0  0  0  0  0  0  0  0  0  0
   37.8220   12.0132  -16.1273 C   0  0  0  0  0  0  0  0  0  0  0  0
   38.9322   11.7211  -16.8203 N   0  0  0  0  0  0  0  0  0  0  0  0
   40.1378   12.2852  -16.5113 C   0  0  0  0  0  0  0  0  0  0  0  0
   41.1435   11.9811  -17.1895 O   0  0  0  0  0  0  0  0  0  0  0  0
   38.8746   11.0479  -17.6136 H   0  0  0  0  0  0  0  0  0  0  0  0
   44.3336   14.7497  -14.2028 O   0  0  0  0  0  0  0  0  0  0  0  0
   43.8436   13.4734  -13.8623 C   0  0  0  0  0  0  0  0  0  0  0  0
   43.5807   12.7450  -15.1368 C   0  0  0  0  0  0  0  0  0  0  0  0
   42.6155   13.6044  -15.9681 C   0  0  0  0  0  0  0  0  0  0  0  0
   41.4375   13.7854  -15.0748 N   0  0  0  0  0  0  0  0  0  0  0  0
   41.7076   14.5837  -13.9189 C   0  0  0  0  0  0  0  0  0  0  0  0
   42.6047   13.7086  -13.0213 C   0  0  0  0  0  0  0  0  0  0  0  0
   45.1697   14.8894  -13.6953 H   0  0  0  0  0  0  0  0  0  0  0  0
   44.8018   12.7512  -13.0260 C   0  0  0  0  0  0  0  0  0  0  0  0
   45.6089   12.1498  -12.3495 C   0  0  0  0  0  0  0  0  0  0  0  0
   46.5721   11.4319  -11.5721 C   0  0  0  0  0  0  0  0  0  0  0  0
   47.9222   11.6956  -11.6728 C   0  0  0  0  0  0  0  0  0  0  0  0
   48.8692   11.0222  -10.9389 C   0  0  0  0  0  0  0  0  0  0  0  0
   48.4846   10.0383  -10.0585 C   0  0  0  0  0  0  0  0  0  0  0  0
   47.1530    9.7534   -9.9361 C   0  0  0  0  0  0  0  0  0  0  0  0
   46.2279   10.4355  -10.6757 C   0  0  0  0  0  0  0  0  0  0  0  0
   34.1537   11.0892  -16.1132 C   0  0  0  0  0  0  0  0  0  0  0  0
   33.5520   10.6091  -14.9708 F   0  0  0  0  0  0  0  0  0  0  0  0
   33.3624   12.0103  -16.7805 F   0  0  0  0  0  0  0  0  0  0  0  0
   34.4729   10.0359  -16.9744 F   0  0  0  0  0  0  0  0  0  0  0  0
 14 15  1  0  0  0
 15 16  1  0  0  0
 16 17  1  0  0  0
 17 18  1  0  0  0
 18 19  1  0  0  0
 19 20  1  0  0  0
 18  1  1  0  0  0
  1  2  2  0  0  0
  2  3  1  0  0  0
  3  4  2  0  0  0
  4  5  1  0  0  0
  5  6  1  0  0  0
  5  7  2  0  0  0
  7  8  1  0  0  0
  8  9  2  0  0  0
  9 10  1  0  0  0
 10 11  1  0  0  0
 11 12  2  0  0  0
  7 30  1  0  0  0
 30 31  1  0  0  0
 30 32  1  0  0  0
 30 33  1  0  0  0
 15 22  1  0  0  0
 22 23  3  0  0  0
 23 24  1  0  0  0
 24 25  2  0  0  0
 25 26  1  0  0  0
 26 27  2  0  0  0
 27 28  1  0  0  0
 28 29  2  0  0  0
 20 15  1  0  0  0
 11  1  1  0  0  0
 29 24  1  0  0  0
  9  3  1  0  0  0
 14 21  1  0  0  0
 10 13  1  0  0  0
M  END
> <minimizedAffinity>
-8.17230

> <CNNscore>
0.5458531976

> <CNNaffinity>
7.0067062378

> <CNN_VS>
3.8246331215

> <CNNaffinity_variance>
0.3567092121

$$$$
[H]OC1(C#Cc2c([H])c([H])c([H])c([H])c2[H])C([H])([H])C([H])([H])N(c2nc3c([H])c(Br)c(C(F)(F)F)c([H])c3n([H])c2=O)C([H])([H])C1([H])[H]


 33 36  0  0  0  0  0  0  0  0999 V2000
   43.2807   13.8603  -14.1771 C   0  0  0  0  0  0  0  0  0  0  0  0
   41.9357   13.6025  -14.2448 N   0  0  0  0  0  0  0  0  0  0  0  0
   41.3322   13.0445  -15.2769 C   0  0  0  0  0  0  0  0  0  0  0  0
   39.9622   12.8013  -15.3012 C   0  0  0  0  0  0  0  0  0  0  0  0
   39.3784   12.2101  -16.4159 C   0  0  0  0  0  0  0  0  0  0  0  0
   37.5015   11.9089  -16.3768 Br  0  0  0  0  0  0  0  0  0  0  0  0
   40.1155   11.8509  -17.5127 C   0  0  0  0  0  0  0  0  0  0  0  0
   41.4727   12.0982  -17.4741 C   0  0  0  0  0  0  0  0  0  0  0  0
   42.0830   12.6845  -16.3808 C   0  0  0  0  0  0  0  0  0  0  0  0
   43.4031   12.9186  -16.3582 N   0  0  0  0  0  0  0  0  0  0  0  0
   44.0089   13.4979  -15.2791 C   0  0  0  0  0  0  0  0  0  0  0  0
   45.2432   13.6965  -15.3083 O   0  0  0  0  0  0  0  0  0  0  0  0
   43.9813   12.6524  -17.1833 H   0  0  0  0  0  0  0  0  0  0  0  0
   45.0746   15.3150  -10.2485 O   0  0  0  0  0  0  0  0  0  0  0  0
   44.2498   14.1784  -10.3619 C   0  0  0  0  0  0  0  0  0  0  0  0
   44.9240   13.2332  -11.2978 C   0  0  0  0  0  0  0  0  0  0  0  0
   45.1686   13.9851  -12.6154 C   0  0  0  0  0  0  0  0  0  0  0  0
   43.8107   14.4392  -13.0257 N   0  0  0  0  0  0  0  0  0  0  0  0
   43.2472   15.4283  -12.1594 C   0  0  0  0  0  0  0  0  0  0  0  0
   42.9072   14.6800  -10.8553 C   0  0  0  0  0  0  0  0  0  0  0  0
   45.2127   15.4839   -9.2849 H   0  0  0  0  0  0  0  0  0  0  0  0
   44.0260   13.5620   -9.0546 C   0  0  0  0  0  0  0  0  0  0  0  0
   43.8285   13.0675   -7.9650 C   0  0  0  0  0  0  0  0  0  0  0  0
   43.5872   12.5061   -6.6711 C   0  0  0  0  0  0  0  0  0  0  0  0
   44.4489   12.7258   -5.6168 C   0  0  0  0  0  0  0  0  0  0  0  0
   44.2423   12.1995   -4.3641 C   0  0  0  0  0  0  0  0  0  0  0  0
   43.1382   11.4165   -4.1213 C   0  0  0  0  0  0  0  0  0  0  0  0
   42.2650   11.1801   -5.1463 C   0  0  0  0  0  0  0  0  0  0  0  0
   42.4897   11.7135   -6.3846 C   0  0  0  0  0  0  0  0  0  0  0  0
   39.4955   11.2143  -18.7161 C   0  0  0  0  0  0  0  0  0  0  0  0
   40.4433   10.4349  -19.3422 F   0  0  0  0  0  0  0  0  0  0  0  0
   38.3838   10.4845  -18.3272 F   0  0  0  0  0  0  0  0  0  0  0  0
   39.0984   12.2622  -19.5511 F   0  0  0  0  0  0  0  0  0  0  0  0
 14 15  1  0  0  0
 15 16  1  0  0  0
 16 17  1  0  0  0
 17 18  1  0  0  0
 18 19  1  0  0  0
 19 20  1  0  0  0
 18  1  1  0  0  0
  1  2  2  0  0  0
  2  3  1  0  0  0
  3  4  2  0  0  0
  4  5  1  0  0  0
  5  6  1  0  0  0
  5  7  2  0  0  0
  7  8  1  0  0  0
  8  9  2  0  0  0
  9 10  1  0  0  0
 10 11  1  0  0  0
 11 12  2  0  0  0
  7 30  1  0  0  0
 30 31  1  0  0  0
 30 32  1  0  0  0
 30 33  1  0  0  0
 15 22  1  0  0  0
 22 23  3  0  0  0
 23 24  1  0  0  0
 24 25  2  0  0  0
 25 26  1  0  0  0
 26 27  2  0  0  0
 27 28  1  0  0  0
 28 29  2  0  0  0
 20 15  1  0  0  0
 11  1  1  0  0  0
 29 24  1  0  0  0
  9  3  1  0  0  0
 14 21  1  0  0  0
 10 13  1  0  0  0
M  END
> <minimizedAffinity>
-7.77449

> <CNNscore>
0.3374148309

> <CNNaffinity>
6.2826075554

> <CNN_VS>
2.1198449135

> <CNNaffinity_variance>
0.1440766603

$$$$
[H]OC1(C#Cc2c([H])c([H])c([H])c([H])c2[H])C([H])([H])C([H])([H])N(c2nc3c([H])c(Br)c(C(F)(F)F)c([H])c3n([H])c2=O)C([H])([H])C1([H])[H]


 33 36  0  0  0  0  0  0  0  0999 V2000
   43.1119   13.6093  -14.8863 C   0  0  0  0  0  0  0  0  0  0  0  0
   41.8796   13.7673  -14.3062 N   0  0  0  0  0  0  0  0  0  0  0  0
   40.7506   13.3080  -14.8117 C   0  0  0  0  0  0  0  0  0  0  0  0
   39.5211   13.4924  -14.1867 C   0  0  0  0  0  0  0  0  0  0  0  0
   38.3621   12.9864  -14.7646 C   0  0  0  0  0  0  0  0  0  0  0  0
   36.7192   13.2771  -13.8530 Br  0  0  0  0  0  0  0  0  0  0  0  0
   38.3857   12.2998  -15.9492 C   0  0  0  0  0  0  0  0  0  0  0  0
   39.6121   12.1250  -16.5572 C   0  0  0  0  0  0  0  0  0  0  0  0
   40.7822   12.6158  -16.0082 C   0  0  0  0  0  0  0  0  0  0  0  0
   41.9666   12.4379  -16.6112 N   0  0  0  0  0  0  0  0  0  0  0  0
   43.1247   12.9219  -16.0708 C   0  0  0  0  0  0  0  0  0  0  0  0
   44.2036   12.7308  -16.6735 O   0  0  0  0  0  0  0  0  0  0  0  0
   42.0053   11.9180  -17.5135 H   0  0  0  0  0  0  0  0  0  0  0  0
   46.5881   15.1893  -12.3987 O   0  0  0  0  0  0  0  0  0  0  0  0
   45.2358   15.3055  -12.0212 C   0  0  0  0  0  0  0  0  0  0  0  0
   44.6842   13.9238  -11.9176 C   0  0  0  0  0  0  0  0  0  0  0  0
   44.9180   13.2317  -13.2696 C   0  0  0  0  0  0  0  0  0  0  0  0
   44.2400   14.1241  -14.2505 N   0  0  0  0  0  0  0  0  0  0  0  0
   44.8684   15.4006  -14.3992 C   0  0  0  0  0  0  0  0  0  0  0  0
   44.5724   16.1543  -13.0875 C   0  0  0  0  0  0  0  0  0  0  0  0
   47.1191   15.7260  -11.7614 H   0  0  0  0  0  0  0  0  0  0  0  0
   45.1062   16.0252  -10.7546 C   0  0  0  0  0  0  0  0  0  0  0  0
   44.9892   16.6050   -9.6959 C   0  0  0  0  0  0  0  0  0  0  0  0
   44.8346   17.2719   -8.4394 C   0  0  0  0  0  0  0  0  0  0  0  0
   45.7599   18.1914   -7.9916 C   0  0  0  0  0  0  0  0  0  0  0  0
   45.6371   18.8467   -6.7897 C   0  0  0  0  0  0  0  0  0  0  0  0
   44.5563   18.5954   -5.9773 C   0  0  0  0  0  0  0  0  0  0  0  0
   43.6215   17.6887   -6.3934 C   0  0  0  0  0  0  0  0  0  0  0  0
   43.7632   17.0483   -7.5926 C   0  0  0  0  0  0  0  0  0  0  0  0
   37.1436   11.7522  -16.5778 C   0  0  0  0  0  0  0  0  0  0  0  0
   37.4876   11.0976  -17.7401 F   0  0  0  0  0  0  0  0  0  0  0  0
   36.5001   10.9221  -15.6741 F   0  0  0  0  0  0  0  0  0  0  0  0
   36.3315   12.8535  -16.8617 F   0  0  0  0  0  0  0  0  0  0  0  0
 14 15  1  0  0  0
 15 16  1  0  0  0
 16 17  1  0  0  0
 17 18  1  0  0  0
 18 19  1  0  0  0
 19 20  1  0  0  0
 18  1  1  0  0  0
  1  2  2  0  0  0
  2  3  1  0  0  0
  3  4  2  0  0  0
  4  5  1  0  0  0
  5  6  1  0  0  0
  5  7  2  0  0  0
  7  8  1  0  0  0
  8  9  2  0  0  0
  9 10  1  0  0  0
 10 11  1  0  0  0
 11 12  2  0  0  0
  7 30  1  0  0  0
 30 31  1  0  0  0
 30 32  1  0  0  0
 30 33  1  0  0  0
 15 22  1  0  0  0
 22 23  3  0  0  0
 23 24  1  0  0  0
 24 25  2  0  0  0
 25 26  1  0  0  0
 26 27  2  0  0  0
 27 28  1  0  0  0
 28 29  2  0  0  0
 20 15  1  0  0  0
 11  1  1  0  0  0
 29 24  1  0  0  0
  9  3  1  0  0  0
 14 21  1  0  0  0
 10 13  1  0  0  0
M  END
> <minimizedAffinity>
-7.63249

> <CNNscore>
0.2856557965

> <CNNaffinity>
6.2229366302

> <CNN_VS>
1.7776179314

> <CNNaffinity_variance>
0.4015088677

$$$$
[H]OC1(C#Cc2c([H])c([H])c([H])c([H])c2[H])C([H])([H])C([H])([H])N(c2nc3c([H])c(Br)c(C(F)(F)F)c([H])c3n([H])c2=O)C([H])([H])C1([H])[H]


 33 36  0  0  0  0  0  0  0  0999 V2000
   41.5742   13.6533  -14.5297 C   0  0  0  0  0  0  0  0  0  0  0  0
   40.2368   13.5662  -14.2399 N   0  0  0  0  0  0  0  0  0  0  0  0
   39.3476   12.9453  -14.9914 C   0  0  0  0  0  0  0  0  0  0  0  0
   37.9983   12.8823  -14.6568 C   0  0  0  0  0  0  0  0  0  0  0  0
   37.1045   12.2140  -15.4860 C   0  0  0  0  0  0  0  0  0  0  0  0
   35.2769   12.1696  -14.9641 Br  0  0  0  0  0  0  0  0  0  0  0  0
   37.5103   11.6032  -16.6426 C   0  0  0  0  0  0  0  0  0  0  0  0
   38.8512   11.6741  -16.9612 C   0  0  0  0  0  0  0  0  0  0  0  0
   39.7647   12.3310  -16.1577 C   0  0  0  0  0  0  0  0  0  0  0  0
   41.0646   12.3913  -16.4808 N   0  0  0  0  0  0  0  0  0  0  0  0
   41.9697   13.0398  -15.6886 C   0  0  0  0  0  0  0  0  0  0  0  0
   43.1708   13.0690  -16.0353 O   0  0  0  0  0  0  0  0  0  0  0  0
   41.3931   11.9327  -17.3571 H   0  0  0  0  0  0  0  0  0  0  0  0
   44.4026   15.4292  -11.4291 O   0  0  0  0  0  0  0  0  0  0  0  0
   43.4551   14.4263  -11.1443 C   0  0  0  0  0  0  0  0  0  0  0  0
   43.7783   13.2534  -12.0067 C   0  0  0  0  0  0  0  0  0  0  0  0
   43.7822   13.7402  -13.4642 C   0  0  0  0  0  0  0  0  0  0  0  0
   42.4240   14.3220  -13.6508 N   0  0  0  0  0  0  0  0  0  0  0  0
   42.1957   15.5100  -12.8873 C   0  0  0  0  0  0  0  0  0  0  0  0
   42.0969   15.0389  -11.4229 C   0  0  0  0  0  0  0  0  0  0  0  0
   44.7845   15.7269  -10.5678 H   0  0  0  0  0  0  0  0  0  0  0  0
   43.4836   14.0670   -9.7268 C   0  0  0  0  0  0  0  0  0  0  0  0
   43.5204   13.7530   -8.5560 C   0  0  0  0  0  0  0  0  0  0  0  0
   43.5737   13.3605   -7.1811 C   0  0  0  0  0  0  0  0  0  0  0  0
   42.7492   12.3754   -6.6790 C   0  0  0  0  0  0  0  0  0  0  0  0
   42.7786   11.9785   -5.3636 C   0  0  0  0  0  0  0  0  0  0  0  0
   43.6570   12.5706   -4.4867 C   0  0  0  0  0  0  0  0  0  0  0  0
   44.4877   13.5506   -4.9540 C   0  0  0  0  0  0  0  0  0  0  0  0
   44.4418   13.9301   -6.2663 C   0  0  0  0  0  0  0  0  0  0  0  0
   36.5555   10.8821  -17.5404 C   0  0  0  0  0  0  0  0  0  0  0  0
   35.9866    9.8426  -16.8377 F   0  0  0  0  0  0  0  0  0  0  0  0
   35.6113   11.7763  -18.0184 F   0  0  0  0  0  0  0  0  0  0  0  0
   37.3159   10.3910  -18.6051 F   0  0  0  0  0  0  0  0  0  0  0  0
 14 15  1  0  0  0
 15 16  1  0  0  0
 16 17  1  0  0  0
 17 18  1  0  0  0
 18 19  1  0  0  0
 19 20  1  0  0  0
 18  1  1  0  0  0
  1  2  2  0  0  0
  2  3  1  0  0  0
  3  4  2  0  0  0
  4  5  1  0  0  0
  5  6  1  0  0  0
  5  7  2  0  0  0
  7  8  1  0  0  0
  8  9  2  0  0  0
  9 10  1  0  0  0
 10 11  1  0  0  0
 11 12  2  0  0  0
  7 30  1  0  0  0
 30 31  1  0  0  0
 30 32  1  0  0  0
 30 33  1  0  0  0
 15 22  1  0  0  0
 22 23  3  0  0  0
 23 24  1  0  0  0
 24 25  2  0  0  0
 25 26  1  0  0  0
 26 27  2  0  0  0
 27 28  1  0  0  0
 28 29  2  0  0  0
 20 15  1  0  0  0
 11  1  1  0  0  0
 29 24  1  0  0  0
  9  3  1  0  0  0
 14 21  1  0  0  0
 10 13  1  0  0  0
M  END
> <minimizedAffinity>
-8.39775

> <CNNscore>
0.2676584125

> <CNNaffinity>
6.4856781960

> <CNN_VS>
1.7359462976

> <CNNaffinity_variance>
0.3033167422

$$$$
[H]OC1(C#Cc2c([H])c([H])c([H])c([H])c2[H])C([H])([H])C([H])([H])N(c2nc3c([H])c(Br)c(C(F)(F)F)c([H])c3n([H])c2=O)C([H])([H])C1([H])[H]


 33 36  0  0  0  0  0  0  0  0999 V2000
   43.1625   14.1467  -14.0755 C   0  0  0  0  0  0  0  0  0  0  0  0
   41.8208   13.8698  -14.1338 N   0  0  0  0  0  0  0  0  0  0  0  0
   41.2311   13.2330  -15.1277 C   0  0  0  0  0  0  0  0  0  0  0  0
   39.8641   12.9736  -15.1440 C   0  0  0  0  0  0  0  0  0  0  0  0
   39.2951   12.2979  -16.2176 C   0  0  0  0  0  0  0  0  0  0  0  0
   37.4213   11.9794  -16.1701 Br  0  0  0  0  0  0  0  0  0  0  0  0
   40.0444   11.8697  -17.2809 C   0  0  0  0  0  0  0  0  0  0  0  0
   41.3985   12.1342  -17.2507 C   0  0  0  0  0  0  0  0  0  0  0  0
   41.9941   12.8037  -16.1978 C   0  0  0  0  0  0  0  0  0  0  0  0
   43.3115   13.0534  -16.1829 N   0  0  0  0  0  0  0  0  0  0  0  0
   43.9028   13.7149  -15.1437 C   0  0  0  0  0  0  0  0  0  0  0  0
   45.1352   13.9246  -15.1785 O   0  0  0  0  0  0  0  0  0  0  0  0
   43.8988   12.7355  -16.9829 H   0  0  0  0  0  0  0  0  0  0  0  0
   44.6365   15.9931  -10.1785 O   0  0  0  0  0  0  0  0  0  0  0  0
   43.3820   15.3694  -10.3267 C   0  0  0  0  0  0  0  0  0  0  0  0
   43.6343   13.9588  -10.7399 C   0  0  0  0  0  0  0  0  0  0  0  0
   44.4884   13.9985  -12.0167 C   0  0  0  0  0  0  0  0  0  0  0  0
   43.6774   14.8121  -12.9646 N   0  0  0  0  0  0  0  0  0  0  0  0
   43.5536   16.1859  -12.5855 C   0  0  0  0  0  0  0  0  0  0  0  0
   42.6248   16.1856  -11.3552 C   0  0  0  0  0  0  0  0  0  0  0  0
   44.6494   16.4211   -9.2881 H   0  0  0  0  0  0  0  0  0  0  0  0
   42.6177   15.4291   -9.0811 C   0  0  0  0  0  0  0  0  0  0  0  0
   41.9875   15.4995   -8.0473 C   0  0  0  0  0  0  0  0  0  0  0  0
   41.2535   15.6052   -6.8236 C   0  0  0  0  0  0  0  0  0  0  0  0
   41.4782   16.6347   -5.9337 C   0  0  0  0  0  0  0  0  0  0  0  0
   40.7886   16.7611   -4.7516 C   0  0  0  0  0  0  0  0  0  0  0  0
   39.8276   15.8370   -4.4145 C   0  0  0  0  0  0  0  0  0  0  0  0
   39.5816   14.8044   -5.2761 C   0  0  0  0  0  0  0  0  0  0  0  0
   40.2792   14.6977   -6.4467 C   0  0  0  0  0  0  0  0  0  0  0  0
   39.4404   11.1421  -18.4400 C   0  0  0  0  0  0  0  0  0  0  0  0
   40.4474   10.5224  -19.1469 F   0  0  0  0  0  0  0  0  0  0  0  0
   38.4920   10.2455  -17.9748 F   0  0  0  0  0  0  0  0  0  0  0  0
   38.8184   12.1133  -19.2293 F   0  0  0  0  0  0  0  0  0  0  0  0
 14 15  1  0  0  0
 15 16  1  0  0  0
 16 17  1  0  0  0
 17 18  1  0  0  0
 18 19  1  0  0  0
 19 20  1  0  0  0
 18  1  1  0  0  0
  1  2  2  0  0  0
  2  3  1  0  0  0
  3  4  2  0  0  0
  4  5  1  0  0  0
  5  6  1  0  0  0
  5  7  2  0  0  0
  7  8  1  0  0  0
  8  9  2  0  0  0
  9 10  1  0  0  0
 10 11  1  0  0  0
 11 12  2  0  0  0
  7 30  1  0  0  0
 30 31  1  0  0  0
 30 32  1  0  0  0
 30 33  1  0  0  0
 15 22  1  0  0  0
 22 23  3  0  0  0
 23 24  1  0  0  0
 24 25  2  0  0  0
 25 26  1  0  0  0
 26 27  2  0  0  0
 27 28  1  0  0  0
 28 29  2  0  0  0
 20 15  1  0  0  0
 11  1  1  0  0  0
 29 24  1  0  0  0
  9  3  1  0  0  0
 14 21  1  0  0  0
 10 13  1  0  0  0
M  END
> <minimizedAffinity>
-7.49292

> <CNNscore>
0.2629423738

> <CNNaffinity>
5.9905157089

> <CNN_VS>
1.5751603842

> <CNNaffinity_variance>
0.1284485608

$$$$
[H]OC1(C#Cc2c([H])c([H])c([H])c([H])c2[H])C([H])([H])C([H])([H])N(c2nc3c([H])c(Br)c(C(F)(F)F)c([H])c3n([H])c2=O)C([H])([H])C1([H])[H]


 33 36  0  0  0  0  0  0  0  0999 V2000
   34.8514   15.0198  -12.0890 C   0  0  0  0  0  0  0  0  0  0  0  0
   35.8679   14.4521  -12.8133 N   0  0  0  0  0  0  0  0  0  0  0  0
   35.6929   13.6243  -13.8258 C   0  0  0  0  0  0  0  0  0  0  0  0
   36.7563   13.0717  -14.5331 C   0  0  0  0  0  0  0  0  0  0  0  0
   36.5138   12.2045  -15.5925 C   0  0  0  0  0  0  0  0  0  0  0  0
   38.0162   11.4888  -16.5119 Br  0  0  0  0  0  0  0  0  0  0  0  0
   35.2425   11.8670  -15.9735 C   0  0  0  0  0  0  0  0  0  0  0  0
   34.1982   12.4228  -15.2628 C   0  0  0  0  0  0  0  0  0  0  0  0
   34.4064   13.2881  -14.2048 C   0  0  0  0  0  0  0  0  0  0  0  0
   33.3812   13.8201  -13.5237 N   0  0  0  0  0  0  0  0  0  0  0  0
   33.5840   14.6756  -12.4776 C   0  0  0  0  0  0  0  0  0  0  0  0
   32.5940   15.1434  -11.8735 O   0  0  0  0  0  0  0  0  0  0  0  0
   32.4062   13.5755  -13.7984 H   0  0  0  0  0  0  0  0  0  0  0  0
   36.3034   17.7727   -8.7601 O   0  0  0  0  0  0  0  0  0  0  0  0
   36.9009   16.5357   -9.0727 C   0  0  0  0  0  0  0  0  0  0  0  0
   37.3603   16.6108  -10.4896 C   0  0  0  0  0  0  0  0  0  0  0  0
   36.1402   16.9724  -11.3510 C   0  0  0  0  0  0  0  0  0  0  0  0
   35.1569   15.8954  -11.0489 N   0  0  0  0  0  0  0  0  0  0  0  0
   34.6590   15.9286   -9.7082 C   0  0  0  0  0  0  0  0  0  0  0  0
   35.8406   15.4813   -8.8249 C   0  0  0  0  0  0  0  0  0  0  0  0
   36.7188   18.0978   -7.9247 H   0  0  0  0  0  0  0  0  0  0  0  0
   38.0140   16.2490   -8.1683 C   0  0  0  0  0  0  0  0  0  0  0  0
   38.9505   16.0155   -7.4341 C   0  0  0  0  0  0  0  0  0  0  0  0
   40.0705   15.7389   -6.5876 C   0  0  0  0  0  0  0  0  0  0  0  0
   40.5328   14.4531   -6.3993 C   0  0  0  0  0  0  0  0  0  0  0  0
   41.6057   14.1582   -5.5926 C   0  0  0  0  0  0  0  0  0  0  0  0
   42.2665   15.1671   -4.9319 C   0  0  0  0  0  0  0  0  0  0  0  0
   41.8322   16.4527   -5.0982 C   0  0  0  0  0  0  0  0  0  0  0  0
   40.7629   16.7237   -5.9053 C   0  0  0  0  0  0  0  0  0  0  0  0
   34.9726   10.9349  -17.1120 C   0  0  0  0  0  0  0  0  0  0  0  0
   35.6173   11.4082  -18.2337 F   0  0  0  0  0  0  0  0  0  0  0  0
   35.3829    9.6576  -16.7658 F   0  0  0  0  0  0  0  0  0  0  0  0
   33.5886   10.9453  -17.3055 F   0  0  0  0  0  0  0  0  0  0  0  0
 14 15  1  0  0  0
 15 16  1  0  0  0
 16 17  1  0  0  0
 17 18  1  0  0  0
 18 19  1  0  0  0
 19 20  1  0  0  0
 18  1  1  0  0  0
  1  2  2  0  0  0
  2  3  1  0  0  0
  3  4  2  0  0  0
  4  5  1  0  0  0
  5  6  1  0  0  0
  5  7  2  0  0  0
  7  8  1  0  0  0
  8  9  2  0  0  0
  9 10  1  0  0  0
 10 11  1  0  0  0
 11 12  2  0  0  0
  7 30  1  0  0  0
 30 31  1  0  0  0
 30 32  1  0  0  0
 30 33  1  0  0  0
 15 22  1  0  0  0
 22 23  3  0  0  0
 23 24  1  0  0  0
 24 25  2  0  0  0
 25 26  1  0  0  0
 26 27  2  0  0  0
 27 28  1  0  0  0
 28 29  2  0  0  0
 20 15  1  0  0  0
 11  1  1  0  0  0
 29 24  1  0  0  0
  9  3  1  0  0  0
 14 21  1  0  0  0
 10 13  1  0  0  0
M  END
> <minimizedAffinity>
-8.70679

> <CNNscore>
0.2260660231

> <CNNaffinity>
6.2735099792

> <CNN_VS>
1.4182274342

> <CNNaffinity_variance>
0.2199344635

$$$$
[H]OC1(C#Cc2c([H])c([H])c([H])c([H])c2[H])C([H])([H])C([H])([H])N(c2nc3c([H])c(Br)c(C(F)(F)F)c([H])c3n([H])c2=O)C([H])([H])C1([H])[H]


 33 36  0  0  0  0  0  0  0  0999 V2000
   38.0097   14.9493  -12.8889 C   0  0  0  0  0  0  0  0  0  0  0  0
   36.8337   14.3577  -13.2724 N   0  0  0  0  0  0  0  0  0  0  0  0
   36.7240   13.4730  -14.2452 C   0  0  0  0  0  0  0  0  0  0  0  0
   35.5076   12.8978  -14.6001 C   0  0  0  0  0  0  0  0  0  0  0  0
   35.4500   11.9700  -15.6340 C   0  0  0  0  0  0  0  0  0  0  0  0
   33.7534   11.2266  -16.0624 Br  0  0  0  0  0  0  0  0  0  0  0  0
   36.5677   11.5934  -16.3300 C   0  0  0  0  0  0  0  0  0  0  0  0
   37.7667   12.1723  -15.9667 C   0  0  0  0  0  0  0  0  0  0  0  0
   37.8568   13.0977  -14.9435 C   0  0  0  0  0  0  0  0  0  0  0  0
   39.0293   13.6516  -14.6022 N   0  0  0  0  0  0  0  0  0  0  0  0
   39.1214   14.5664  -13.5914 C   0  0  0  0  0  0  0  0  0  0  0  0
   40.2383   15.0551  -13.3129 O   0  0  0  0  0  0  0  0  0  0  0  0
   39.8913   13.3780  -15.1200 H   0  0  0  0  0  0  0  0  0  0  0  0
   37.9938   17.5529   -9.1487 O   0  0  0  0  0  0  0  0  0  0  0  0
   37.3046   16.3289   -9.2562 C   0  0  0  0  0  0  0  0  0  0  0  0
   38.3180   15.2734   -9.5446 C   0  0  0  0  0  0  0  0  0  0  0  0
   39.0778   15.6979  -10.8111 C   0  0  0  0  0  0  0  0  0  0  0  0
   38.0070   15.8594  -11.8336 N   0  0  0  0  0  0  0  0  0  0  0  0
   37.1227   16.9536  -11.5747 C   0  0  0  0  0  0  0  0  0  0  0  0
   36.2816   16.5171  -10.3587 C   0  0  0  0  0  0  0  0  0  0  0  0
   37.7176   17.9728   -8.2980 H   0  0  0  0  0  0  0  0  0  0  0  0
   36.5663   16.0346   -8.0284 C   0  0  0  0  0  0  0  0  0  0  0  0
   35.9725   15.7859   -7.0007 C   0  0  0  0  0  0  0  0  0  0  0  0
   35.2922   15.4812   -5.7793 C   0  0  0  0  0  0  0  0  0  0  0  0
   35.8858   15.6876   -4.5516 C   0  0  0  0  0  0  0  0  0  0  0  0
   35.2565   15.4042   -3.3631 C   0  0  0  0  0  0  0  0  0  0  0  0
   33.9802   14.8920   -3.3664 C   0  0  0  0  0  0  0  0  0  0  0  0
   33.3646   14.6762   -4.5679 C   0  0  0  0  0  0  0  0  0  0  0  0
   34.0089   14.9651   -5.7382 C   0  0  0  0  0  0  0  0  0  0  0  0
   36.5147   10.5960  -17.4436 C   0  0  0  0  0  0  0  0  0  0  0  0
   35.8802   11.1710  -18.5227 F   0  0  0  0  0  0  0  0  0  0  0  0
   37.8006   10.1789  -17.7470 F   0  0  0  0  0  0  0  0  0  0  0  0
   35.7729    9.5135  -16.9631 F   0  0  0  0  0  0  0  0  0  0  0  0
 14 15  1  0  0  0
 15 16  1  0  0  0
 16 17  1  0  0  0
 17 18  1  0  0  0
 18 19  1  0  0  0
 19 20  1  0  0  0
 18  1  1  0  0  0
  1  2  2  0  0  0
  2  3  1  0  0  0
  3  4  2  0  0  0
  4  5  1  0  0  0
  5  6  1  0  0  0
  5  7  2  0  0  0
  7  8  1  0  0  0
  8  9  2  0  0  0
  9 10  1  0  0  0
 10 11  1  0  0  0
 11 12  2  0  0  0
  7 30  1  0  0  0
 30 31  1  0  0  0
 30 32  1  0  0  0
 30 33  1  0  0  0
 15 22  1  0  0  0
 22 23  3  0  0  0
 23 24  1  0  0  0
 24 25  2  0  0  0
 25 26  1  0  0  0
 26 27  2  0  0  0
 27 28  1  0  0  0
 28 29  2  0  0  0
 20 15  1  0  0  0
 11  1  1  0  0  0
 29 24  1  0  0  0
  9  3  1  0  0  0
 14 21  1  0  0  0
 10 13  1  0  0  0
M  END
> <minimizedAffinity>
-7.82159

> <CNNscore>
0.2227707505

> <CNNaffinity>
6.3881821632

> <CNN_VS>
1.4231001139

> <CNNaffinity_variance>
0.2353748083

$$$$
[H]OC1(C#Cc2c([H])c([H])c([H])c([H])c2[H])C([H])([H])C([H])([H])N(c2nc3c([H])c(Br)c(C(F)(F)F)c([H])c3n([H])c2=O)C([H])([H])C1([H])[H]


 33 36  0  0  0  0  0  0  0  0999 V2000
   36.6977   14.6361  -11.9763 C   0  0  0  0  0  0  0  0  0  0  0  0
   35.6928   13.9669  -12.6262 N   0  0  0  0  0  0  0  0  0  0  0  0
   35.8539   13.2687  -13.7342 C   0  0  0  0  0  0  0  0  0  0  0  0
   34.8031   12.6045  -14.3597 C   0  0  0  0  0  0  0  0  0  0  0  0
   35.0300   11.8828  -15.5262 C   0  0  0  0  0  0  0  0  0  0  0  0
   33.5464   11.0015  -16.3242 Br  0  0  0  0  0  0  0  0  0  0  0  0
   36.2734   11.7993  -16.0939 C   0  0  0  0  0  0  0  0  0  0  0  0
   37.3054   12.4631  -15.4623 C   0  0  0  0  0  0  0  0  0  0  0  0
   37.1122   13.1890  -14.3016 C   0  0  0  0  0  0  0  0  0  0  0  0
   38.1252   13.8288  -13.6996 N   0  0  0  0  0  0  0  0  0  0  0  0
   37.9371   14.5469  -12.5523 C   0  0  0  0  0  0  0  0  0  0  0  0
   38.9144   15.1271  -12.0306 O   0  0  0  0  0  0  0  0  0  0  0  0
   39.0789   13.7774  -14.1162 H   0  0  0  0  0  0  0  0  0  0  0  0
   36.1985   17.0804   -8.1625 O   0  0  0  0  0  0  0  0  0  0  0  0
   37.4099   16.4788   -8.5567 C   0  0  0  0  0  0  0  0  0  0  0  0
   37.7783   17.0518   -9.8833 C   0  0  0  0  0  0  0  0  0  0  0  0
   36.5976   16.8057  -10.8355 C   0  0  0  0  0  0  0  0  0  0  0  0
   36.4120   15.3283  -10.8011 N   0  0  0  0  0  0  0  0  0  0  0  0
   35.9515   14.8342   -9.5401 C   0  0  0  0  0  0  0  0  0  0  0  0
   37.1498   14.9857   -8.5823 C   0  0  0  0  0  0  0  0  0  0  0  0
   36.3265   17.4283   -7.2467 H   0  0  0  0  0  0  0  0  0  0  0  0
   38.4589   16.7169   -7.5657 C   0  0  0  0  0  0  0  0  0  0  0  0
   39.3346   16.8940   -6.7456 C   0  0  0  0  0  0  0  0  0  0  0  0
   40.3701   17.0783   -5.7755 C   0  0  0  0  0  0  0  0  0  0  0  0
   40.6813   18.3273   -5.2801 C   0  0  0  0  0  0  0  0  0  0  0  0
   41.6703   18.5338   -4.3484 C   0  0  0  0  0  0  0  0  0  0  0  0
   42.3977   17.4688   -3.8710 C   0  0  0  0  0  0  0  0  0  0  0  0
   42.1130   16.2176   -4.3427 C   0  0  0  0  0  0  0  0  0  0  0  0
   41.1251   16.0348   -5.2694 C   0  0  0  0  0  0  0  0  0  0  0  0
   36.5263   11.0251  -17.3486 C   0  0  0  0  0  0  0  0  0  0  0  0
   36.1572    9.7141  -17.1416 F   0  0  0  0  0  0  0  0  0  0  0  0
   35.8334   11.6103  -18.3960 F   0  0  0  0  0  0  0  0  0  0  0  0
   37.9000   11.1113  -17.5904 F   0  0  0  0  0  0  0  0  0  0  0  0
 14 15  1  0  0  0
 15 16  1  0  0  0
 16 17  1  0  0  0
 17 18  1  0  0  0
 18 19  1  0  0  0
 19 20  1  0  0  0
 18  1  1  0  0  0
  1  2  2  0  0  0
  2  3  1  0  0  0
  3  4  2  0  0  0
  4  5  1  0  0  0
  5  6  1  0  0  0
  5  7  2  0  0  0
  7  8  1  0  0  0
  8  9  2  0  0  0
  9 10  1  0  0  0
 10 11  1  0  0  0
 11 12  2  0  0  0
  7 30  1  0  0  0
 30 31  1  0  0  0
 30 32  1  0  0  0
 30 33  1  0  0  0
 15 22  1  0  0  0
 22 23  3  0  0  0
 23 24  1  0  0  0
 24 25  2  0  0  0
 25 26  1  0  0  0
 26 27  2  0  0  0
 27 28  1  0  0  0
 28 29  2  0  0  0
 20 15  1  0  0  0
 11  1  1  0  0  0
 29 24  1  0  0  0
  9  3  1  0  0  0
 14 21  1  0  0  0
 10 13  1  0  0  0
M  END
> <minimizedAffinity>
-8.26655

> <CNNscore>
0.2067097574

> <CNNaffinity>
6.0110540390

> <CNN_VS>
1.2425435781

> <CNNaffinity_variance>
0.1292421073

$$$$
[H]O[C@]1([H])[C@@]([H])(C([H])([H])OS(=O)(=O)N([H])C(=O)[C@@]([H])(N([H])[H])C([H])([H])C([H])([H])[H])O[C@@]([H])(n2c([H])nc3c(N([H])[H])nc([H])nc32)[C@]1([H])O[H]


 36 38  0  0  0  0  0  0  0  0999 V2000
   39.2607   14.5540  -12.9681 C   0  0  0  0  0  0  0  0  0  0  0  0
   39.0525   14.1892  -14.2812 O   0  0  0  0  0  0  0  0  0  0  0  0
   40.1878   13.3464  -14.4462 C   0  0  0  0  0  0  0  0  0  0  0  0
   41.3322   14.2233  -14.0705 C   0  0  0  0  0  0  0  0  0  0  0  0
   42.2687   13.4943  -13.3076 O   0  0  0  0  0  0  0  0  0  0  0  0
   40.6502   15.1732  -13.0724 C   0  0  0  0  0  0  0  0  0  0  0  0
   41.2461   15.1578  -11.8359 O   0  0  0  0  0  0  0  0  0  0  0  0
   41.7236   12.9703  -12.6406 H   0  0  0  0  0  0  0  0  0  0  0  0
   40.8466   15.9272  -11.3290 H   0  0  0  0  0  0  0  0  0  0  0  0
   40.2508   12.7797  -15.7445 N   0  0  0  0  0  0  0  0  0  0  0  0
   41.2931   12.7760  -16.6107 C   0  0  0  0  0  0  0  0  0  0  0  0
   40.9355   12.1459  -17.7435 N   0  0  0  0  0  0  0  0  0  0  0  0
   39.6725   11.7330  -17.6389 C   0  0  0  0  0  0  0  0  0  0  0  0
   38.8548   11.0470  -18.5276 C   0  0  0  0  0  0  0  0  0  0  0  0
   39.2702   10.6368  -19.8132 N   0  0  0  0  0  0  0  0  0  0  0  0
   37.6090   10.7919  -18.0884 N   0  0  0  0  0  0  0  0  0  0  0  0
   37.1681   11.1683  -16.8721 C   0  0  0  0  0  0  0  0  0  0  0  0
   37.9934   11.8295  -16.0446 N   0  0  0  0  0  0  0  0  0  0  0  0
   39.2603   12.1352  -16.3867 C   0  0  0  0  0  0  0  0  0  0  0  0
   38.8462   11.0685  -20.6469 H   0  0  0  0  0  0  0  0  0  0  0  0
   39.9934    9.9122  -19.9102 H   0  0  0  0  0  0  0  0  0  0  0  0
   38.3082   15.5135  -12.3715 C   0  0  0  0  0  0  0  0  0  0  0  0
   37.5998   15.1036  -11.2807 O   0  0  0  0  0  0  0  0  0  0  0  0
   36.1013   15.8474  -11.2401 S   0  0  0  0  0  0  0  0  0  0  0  0
   35.5248   15.7713   -9.8293 O   0  0  0  0  0  0  0  0  0  0  0  0
   36.3447   17.3145  -11.5759 O   0  0  0  0  0  0  0  0  0  0  0  0
   34.9405   13.8059  -12.6450 C   0  0  0  0  0  0  0  0  0  0  0  0
   35.7058   13.0211  -12.0447 O   0  0  0  0  0  0  0  0  0  0  0  0
   35.0075   15.1852  -12.3781 N   0  0  0  0  0  0  0  0  0  0  0  0
   34.3704   15.8078  -12.8978 H   0  0  0  0  0  0  0  0  0  0  0  0
   33.9752   13.2633  -13.6258 C   0  0  0  0  0  0  0  0  0  0  0  0
   33.5106   14.3010  -14.5372 N   0  0  0  0  0  0  0  0  0  0  0  0
   34.2966   14.7055  -15.0880 H   0  0  0  0  0  0  0  0  0  0  0  0
   33.1275   15.0548  -13.9158 H   0  0  0  0  0  0  0  0  0  0  0  0
   33.6730   11.4602  -15.3319 C   0  0  0  0  0  0  0  0  0  0  0  0
   34.6353   12.1444  -14.4014 C   0  0  0  0  0  0  0  0  0  0  0  0
 35 36  1  0  0  0
 36 31  1  0  0  0
 31 32  1  0  0  0
 31 27  1  0  0  0
 27 28  2  0  0  0
 27 29  1  0  0  0
 29 24  1  0  0  0
 24 25  2  0  0  0
 24 26  2  0  0  0
 24 23  1  0  0  0
 23 22  1  0  0  0
 22  1  1  0  0  0
  1  2  1  0  0  0
  2  3  1  0  0  0
  3  4  1  0  0  0
  4  5  1  0  0  0
  4  6  1  0  0  0
  6  7  1  0  0  0
  3 10  1  0  0  0
 10 11  1  0  0  0
 11 12  2  0  0  0
 12 13  1  0  0  0
 13 14  2  0  0  0
 14 15  1  0  0  0
 14 16  1  0  0  0
 16 17  2  0  0  0
 17 18  1  0  0  0
 18 19  2  0  0  0
  6  1  1  0  0  0
 19 10  1  0  0  0
 19 13  1  0  0  0
 32 33  1  0  0  0
 32 34  1  0  0  0
 29 30  1  0  0  0
  5  8  1  0  0  0
  7  9  1  0  0  0
 15 20  1  0  0  0
 15 21  1  0  0  0
M  END
> <minimizedAffinity>
-8.43499

> <CNNscore>
0.8949036002

> <CNNaffinity>
6.8983163834

> <CNN_VS>
6.1733283997

> <CNNaffinity_variance>
0.1229002327

$$$$
[H]O[C@]1([H])[C@@]([H])(C([H])([H])OS(=O)(=O)N([H])C(=O)[C@@]([H])(N([H])[H])C([H])([H])C([H])([H])[H])O[C@@]([H])(n2c([H])nc3c(N([H])[H])nc([H])nc32)[C@]1([H])O[H]


 36 38  0  0  0  0  0  0  0  0999 V2000
   37.6043   13.8008  -12.8878 C   0  0  0  0  0  0  0  0  0  0  0  0
   37.6677   13.3797  -14.1991 O   0  0  0  0  0  0  0  0  0  0  0  0
   39.0729   13.1681  -14.2825 C   0  0  0  0  0  0  0  0  0  0  0  0
   39.6493   14.4798  -13.8740 C   0  0  0  0  0  0  0  0  0  0  0  0
   40.7721   14.2764  -13.0445 O   0  0  0  0  0  0  0  0  0  0  0  0
   38.5452   14.9995  -12.9388 C   0  0  0  0  0  0  0  0  0  0  0  0
   39.0061   15.2668  -11.6737 O   0  0  0  0  0  0  0  0  0  0  0  0
   40.4985   13.5585  -12.3915 H   0  0  0  0  0  0  0  0  0  0  0  0
   38.2640   15.7592  -11.2096 H   0  0  0  0  0  0  0  0  0  0  0  0
   39.4692   12.6959  -15.5596 N   0  0  0  0  0  0  0  0  0  0  0  0
   40.6610   12.8592  -16.1837 C   0  0  0  0  0  0  0  0  0  0  0  0
   40.6221   12.2687  -17.3912 N   0  0  0  0  0  0  0  0  0  0  0  0
   39.4224   11.7174  -17.5742 C   0  0  0  0  0  0  0  0  0  0  0  0
   38.8927   11.0066  -18.6434 C   0  0  0  0  0  0  0  0  0  0  0  0
   39.6102   10.7265  -19.8268 N   0  0  0  0  0  0  0  0  0  0  0  0
   37.6220   10.5923  -18.4899 N   0  0  0  0  0  0  0  0  0  0  0  0
   36.8980   10.8406  -17.3809 C   0  0  0  0  0  0  0  0  0  0  0  0
   37.4506   11.5315  -16.3708 N   0  0  0  0  0  0  0  0  0  0  0  0
   38.7159   11.9920  -16.4232 C   0  0  0  0  0  0  0  0  0  0  0  0
   39.3198   11.1632  -20.7134 H   0  0  0  0  0  0  0  0  0  0  0  0
   40.4181   10.0911  -19.7970 H   0  0  0  0  0  0  0  0  0  0  0  0
   36.2805   14.2016  -12.3675 C   0  0  0  0  0  0  0  0  0  0  0  0
   35.3287   13.2319  -12.2503 O   0  0  0  0  0  0  0  0  0  0  0  0
   34.2061   13.3587  -13.4848 S   0  0  0  0  0  0  0  0  0  0  0  0
   34.6820   14.3812  -14.5127 O   0  0  0  0  0  0  0  0  0  0  0  0
   34.1590   11.9925  -14.1597 O   0  0  0  0  0  0  0  0  0  0  0  0
   32.4074   14.8489  -12.0590 C   0  0  0  0  0  0  0  0  0  0  0  0
   33.3646   15.5610  -11.6866 O   0  0  0  0  0  0  0  0  0  0  0  0
   32.6425   13.7566  -12.9134 N   0  0  0  0  0  0  0  0  0  0  0  0
   31.8335   13.1817  -13.1938 H   0  0  0  0  0  0  0  0  0  0  0  0
   31.0419   15.1741  -11.5923 C   0  0  0  0  0  0  0  0  0  0  0  0
   30.0603   14.2557  -12.1547 N   0  0  0  0  0  0  0  0  0  0  0  0
   30.2463   13.2730  -11.8643 H   0  0  0  0  0  0  0  0  0  0  0  0
   30.1953   14.3187  -13.1935 H   0  0  0  0  0  0  0  0  0  0  0  0
   30.0059   14.1106   -9.5802 C   0  0  0  0  0  0  0  0  0  0  0  0
   31.0087   15.1124  -10.0809 C   0  0  0  0  0  0  0  0  0  0  0  0
 35 36  1  0  0  0
 36 31  1  0  0  0
 31 32  1  0  0  0
 31 27  1  0  0  0
 27 28  2  0  0  0
 27 29  1  0  0  0
 29 24  1  0  0  0
 24 25  2  0  0  0
 24 26  2  0  0  0
 24 23  1  0  0  0
 23 22  1  0  0  0
 22  1  1  0  0  0
  1  2  1  0  0  0
  2  3  1  0  0  0
  3  4  1  0  0  0
  4  5  1  0  0  0
  4  6  1  0  0  0
  6  7  1  0  0  0
  3 10  1  0  0  0
 10 11  1  0  0  0
 11 12  2  0  0  0
 12 13  1  0  0  0
 13 14  2  0  0  0
 14 15  1  0  0  0
 14 16  1  0  0  0
 16 17  2  0  0  0
 17 18  1  0  0  0
 18 19  2  0  0  0
  6  1  1  0  0  0
 19 10  1  0  0  0
 19 13  1  0  0  0
 32 33  1  0  0  0
 32 34  1  0  0  0
 29 30  1  0  0  0
  5  8  1  0  0  0
  7  9  1  0  0  0
 15 20  1  0  0  0
 15 21  1  0  0  0
M  END
> <minimizedAffinity>
-8.71545

> <CNNscore>
0.7393383980

> <CNNaffinity>
6.1691007614

> <CNN_VS>
4.5610532761

> <CNNaffinity_variance>
0.1169446558

$$$$
[H]O[C@]1([H])[C@@]([H])(C([H])([H])OS(=O)(=O)N([H])C(=O)[C@@]([H])(N([H])[H])C([H])([H])C([H])([H])[H])O[C@@]([H])(n2c([H])nc3c(N([H])[H])nc([H])nc32)[C@]1([H])O[H]


 36 38  0  0  0  0  0  0  0  0999 V2000
   37.1003   13.5137  -12.5326 C   0  0  0  0  0  0  0  0  0  0  0  0
   36.7815   13.0135  -13.7772 O   0  0  0  0  0  0  0  0  0  0  0  0
   38.1010   12.7434  -14.2377 C   0  0  0  0  0  0  0  0  0  0  0  0
   38.7958   14.0539  -14.0975 C   0  0  0  0  0  0  0  0  0  0  0  0
   40.1032   13.8569  -13.6053 O   0  0  0  0  0  0  0  0  0  0  0  0
   38.0123   14.6702  -12.9271 C   0  0  0  0  0  0  0  0  0  0  0  0
   38.8176   14.9941  -11.8637 O   0  0  0  0  0  0  0  0  0  0  0  0
   40.0110   13.1900  -12.8547 H   0  0  0  0  0  0  0  0  0  0  0  0
   38.2474   15.5413  -11.2441 H   0  0  0  0  0  0  0  0  0  0  0  0
   38.1100   12.1815  -15.5397 N   0  0  0  0  0  0  0  0  0  0  0  0
   37.0827   11.6147  -16.2179 C   0  0  0  0  0  0  0  0  0  0  0  0
   37.5147   11.1907  -17.4187 N   0  0  0  0  0  0  0  0  0  0  0  0
   38.8123   11.4691  -17.5441 C   0  0  0  0  0  0  0  0  0  0  0  0
   39.7052   11.2332  -18.5814 C   0  0  0  0  0  0  0  0  0  0  0  0
   39.3475   10.5962  -19.7898 N   0  0  0  0  0  0  0  0  0  0  0  0
   40.9659   11.6503  -18.3656 N   0  0  0  0  0  0  0  0  0  0  0  0
   41.3531   12.2578  -17.2270 C   0  0  0  0  0  0  0  0  0  0  0  0
   40.4559   12.4663  -16.2500 N   0  0  0  0  0  0  0  0  0  0  0  0
   39.1679   12.0871  -16.3647 C   0  0  0  0  0  0  0  0  0  0  0  0
   39.7338    9.6667  -20.0088 H   0  0  0  0  0  0  0  0  0  0  0  0
   38.7033   11.0617  -20.4423 H   0  0  0  0  0  0  0  0  0  0  0  0
   35.9862   13.9954  -11.6895 C   0  0  0  0  0  0  0  0  0  0  0  0
   35.9819   15.3144  -11.3429 O   0  0  0  0  0  0  0  0  0  0  0  0
   35.5049   15.5014   -9.7498 S   0  0  0  0  0  0  0  0  0  0  0  0
   36.0776   14.3687   -8.9028 O   0  0  0  0  0  0  0  0  0  0  0  0
   36.1213   16.8112   -9.2716 O   0  0  0  0  0  0  0  0  0  0  0  0
   33.1851   15.9382   -8.3654 C   0  0  0  0  0  0  0  0  0  0  0  0
   33.8871   16.1942   -7.3635 O   0  0  0  0  0  0  0  0  0  0  0  0
   33.8039   15.5859   -9.5783 N   0  0  0  0  0  0  0  0  0  0  0  0
   33.1970   15.3698  -10.3836 H   0  0  0  0  0  0  0  0  0  0  0  0
   31.7121   16.0143   -8.2528 C   0  0  0  0  0  0  0  0  0  0  0  0
   31.1648   17.0103   -9.1648 N   0  0  0  0  0  0  0  0  0  0  0  0
   31.3742   16.7751  -10.1576 H   0  0  0  0  0  0  0  0  0  0  0  0
   31.6692   17.8995   -8.9282 H   0  0  0  0  0  0  0  0  0  0  0  0
   29.9419   14.7416   -9.4774 C   0  0  0  0  0  0  0  0  0  0  0  0
   31.1230   14.6531   -8.5515 C   0  0  0  0  0  0  0  0  0  0  0  0
 35 36  1  0  0  0
 36 31  1  0  0  0
 31 32  1  0  0  0
 31 27  1  0  0  0
 27 28  2  0  0  0
 27 29  1  0  0  0
 29 24  1  0  0  0
 24 25  2  0  0  0
 24 26  2  0  0  0
 24 23  1  0  0  0
 23 22  1  0  0  0
 22  1  1  0  0  0
  1  2  1  0  0  0
  2  3  1  0  0  0
  3  4  1  0  0  0
  4  5  1  0  0  0
  4  6  1  0  0  0
  6  7  1  0  0  0
  3 10  1  0  0  0
 10 11  1  0  0  0
 11 12  2  0  0  0
 12 13  1  0  0  0
 13 14  2  0  0  0
 14 15  1  0  0  0
 14 16  1  0  0  0
 16 17  2  0  0  0
 17 18  1  0  0  0
 18 19  2  0  0  0
  6  1  1  0  0  0
 19 10  1  0  0  0
 19 13  1  0  0  0
 32 33  1  0  0  0
 32 34  1  0  0  0
 29 30  1  0  0  0
  5  8  1  0  0  0
  7  9  1  0  0  0
 15 20  1  0  0  0
 15 21  1  0  0  0
M  END
> <minimizedAffinity>
-8.12706

> <CNNscore>
0.6478379965

> <CNNaffinity>
5.8133459091

> <CNN_VS>
3.7661063671

> <CNNaffinity_variance>
0.1870061904

$$$$
[H]O[C@]1([H])[C@@]([H])(C([H])([H])OS(=O)(=O)N([H])C(=O)[C@@]([H])(N([H])[H])C([H])([H])C([H])([H])[H])O[C@@]([H])(n2c([H])nc3c(N([H])[H])nc([H])nc32)[C@]1([H])O[H]


 36 38  0  0  0  0  0  0  0  0999 V2000
   37.0103   13.4255  -12.4856 C   0  0  0  0  0  0  0  0  0  0  0  0
   36.6925   12.9341  -13.7340 O   0  0  0  0  0  0  0  0  0  0  0  0
   38.0140   12.7039  -14.2103 C   0  0  0  0  0  0  0  0  0  0  0  0
   38.6766   14.0297  -14.0586 C   0  0  0  0  0  0  0  0  0  0  0  0
   39.9932   13.8595  -13.5812 O   0  0  0  0  0  0  0  0  0  0  0  0
   37.8889   14.6101  -12.8727 C   0  0  0  0  0  0  0  0  0  0  0  0
   38.6959   14.9400  -11.8124 O   0  0  0  0  0  0  0  0  0  0  0  0
   39.9252   13.1805  -12.8389 H   0  0  0  0  0  0  0  0  0  0  0  0
   38.1179   15.4641  -11.1802 H   0  0  0  0  0  0  0  0  0  0  0  0
   38.0248   12.1600  -15.5198 N   0  0  0  0  0  0  0  0  0  0  0  0
   36.9974   11.6064  -16.2088 C   0  0  0  0  0  0  0  0  0  0  0  0
   37.4315   11.1974  -17.4141 N   0  0  0  0  0  0  0  0  0  0  0  0
   38.7304   11.4726  -17.5318 C   0  0  0  0  0  0  0  0  0  0  0  0
   39.6255   11.2477  -18.5696 C   0  0  0  0  0  0  0  0  0  0  0  0
   39.2691   10.6287  -19.7877 N   0  0  0  0  0  0  0  0  0  0  0  0
   40.8871   11.6571  -18.3444 N   0  0  0  0  0  0  0  0  0  0  0  0
   41.2732   12.2474  -17.1963 C   0  0  0  0  0  0  0  0  0  0  0  0
   40.3738   12.4457  -16.2193 N   0  0  0  0  0  0  0  0  0  0  0  0
   39.0848   12.0730  -16.3430 C   0  0  0  0  0  0  0  0  0  0  0  0
   39.6527    9.7009  -20.0184 H   0  0  0  0  0  0  0  0  0  0  0  0
   38.6287   11.1056  -20.4356 H   0  0  0  0  0  0  0  0  0  0  0  0
   35.8925   13.8671  -11.6258 C   0  0  0  0  0  0  0  0  0  0  0  0
   36.1645   14.1066  -10.3110 O   0  0  0  0  0  0  0  0  0  0  0  0
   35.5972   15.6148   -9.8593 S   0  0  0  0  0  0  0  0  0  0  0  0
   36.6946   16.6578  -10.0501 O   0  0  0  0  0  0  0  0  0  0  0  0
   34.4563   15.9447  -10.8151 O   0  0  0  0  0  0  0  0  0  0  0  0
   35.3820   14.6798   -7.2964 C   0  0  0  0  0  0  0  0  0  0  0  0
   36.1651   13.7599   -7.6168 O   0  0  0  0  0  0  0  0  0  0  0  0
   35.0085   15.6416   -8.2522 N   0  0  0  0  0  0  0  0  0  0  0  0
   34.3523   16.3815   -7.9599 H   0  0  0  0  0  0  0  0  0  0  0  0
   34.8652   14.7377   -5.9116 C   0  0  0  0  0  0  0  0  0  0  0  0
   33.8503   13.7169   -5.6849 N   0  0  0  0  0  0  0  0  0  0  0  0
   34.2361   12.7586   -5.8172 H   0  0  0  0  0  0  0  0  0  0  0  0
   33.1294   13.8826   -6.4293 H   0  0  0  0  0  0  0  0  0  0  0  0
   35.6809   13.5809   -3.8501 C   0  0  0  0  0  0  0  0  0  0  0  0
   36.0160   14.5530   -4.9468 C   0  0  0  0  0  0  0  0  0  0  0  0
 35 36  1  0  0  0
 36 31  1  0  0  0
 31 32  1  0  0  0
 31 27  1  0  0  0
 27 28  2  0  0  0
 27 29  1  0  0  0
 29 24  1  0  0  0
 24 25  2  0  0  0
 24 26  2  0  0  0
 24 23  1  0  0  0
 23 22  1  0  0  0
 22  1  1  0  0  0
  1  2  1  0  0  0
  2  3  1  0  0  0
  3  4  1  0  0  0
  4  5  1  0  0  0
  4  6  1  0  0  0
  6  7  1  0  0  0
  3 10  1  0  0  0
 10 11  1  0  0  0
 11 12  2  0  0  0
 12 13  1  0  0  0
 13 14  2  0  0  0
 14 15  1  0  0  0
 14 16  1  0  0  0
 16 17  2  0  0  0
 17 18  1  0  0  0
 18 19  2  0  0  0
  6  1  1  0  0  0
 19 10  1  0  0  0
 19 13  1  0  0  0
 32 33  1  0  0  0
 32 34  1  0  0  0
 29 30  1  0  0  0
  5  8  1  0  0  0
  7  9  1  0  0  0
 15 20  1  0  0  0
 15 21  1  0  0  0
M  END
> <minimizedAffinity>
-7.85829

> <CNNscore>
0.6402582526

> <CNNaffinity>
5.8132877350

> <CNN_VS>
3.7220053673

> <CNNaffinity_variance>
0.4439768791

$$$$
[H]O[C@]1([H])[C@@]([H])(C([H])([H])OS(=O)(=O)N([H])C(=O)[C@@]([H])(N([H])[H])C([H])([H])C([H])([H])[H])O[C@@]([H])(n2c([H])nc3c(N([H])[H])nc([H])nc32)[C@]1([H])O[H]


 36 38  0  0  0  0  0  0  0  0999 V2000
   37.3648   13.5538  -12.3940 C   0  0  0  0  0  0  0  0  0  0  0  0
   36.9752   13.0571  -13.6196 O   0  0  0  0  0  0  0  0  0  0  0  0
   38.2654   12.7715  -14.1487 C   0  0  0  0  0  0  0  0  0  0  0  0
   38.9819   14.0738  -14.0463 C   0  0  0  0  0  0  0  0  0  0  0  0
   40.3109   13.8617  -13.6234 O   0  0  0  0  0  0  0  0  0  0  0  0
   38.2681   14.6995  -12.8369 C   0  0  0  0  0  0  0  0  0  0  0  0
   39.1320   15.0142  -11.8176 O   0  0  0  0  0  0  0  0  0  0  0  0
   40.2506   13.1961  -12.8684 H   0  0  0  0  0  0  0  0  0  0  0  0
   38.6015   15.5682  -11.1694 H   0  0  0  0  0  0  0  0  0  0  0  0
   38.1995   12.2091  -15.4488 N   0  0  0  0  0  0  0  0  0  0  0  0
   37.1314   11.6542  -16.0717 C   0  0  0  0  0  0  0  0  0  0  0  0
   37.4948   11.2249  -17.2931 N   0  0  0  0  0  0  0  0  0  0  0  0
   38.7870   11.4880  -17.4868 C   0  0  0  0  0  0  0  0  0  0  0  0
   39.6214   11.2415  -18.5694 C   0  0  0  0  0  0  0  0  0  0  0  0
   39.1933   10.6084  -19.7567 N   0  0  0  0  0  0  0  0  0  0  0  0
   40.8965   11.6439  -18.4205 N   0  0  0  0  0  0  0  0  0  0  0  0
   41.3501   12.2471  -17.3043 C   0  0  0  0  0  0  0  0  0  0  0  0
   40.5079   12.4663  -16.2817 N   0  0  0  0  0  0  0  0  0  0  0  0
   39.2114   12.1022  -16.3282 C   0  0  0  0  0  0  0  0  0  0  0  0
   39.5567    9.6744  -19.9949 H   0  0  0  0  0  0  0  0  0  0  0  0
   38.5212   11.0813  -20.3748 H   0  0  0  0  0  0  0  0  0  0  0  0
   36.3023   14.0486  -11.4939 C   0  0  0  0  0  0  0  0  0  0  0  0
   36.6738   14.8718  -10.4721 O   0  0  0  0  0  0  0  0  0  0  0  0
   35.8488   16.3252  -10.5592 S   0  0  0  0  0  0  0  0  0  0  0  0
   36.0454   16.9489  -11.9379 O   0  0  0  0  0  0  0  0  0  0  0  0
   34.3713   15.9866  -10.3967 O   0  0  0  0  0  0  0  0  0  0  0  0
   37.5718   18.0459   -9.3106 C   0  0  0  0  0  0  0  0  0  0  0  0
   38.3979   17.8002  -10.2156 O   0  0  0  0  0  0  0  0  0  0  0  0
   36.3127   17.4195   -9.3274 N   0  0  0  0  0  0  0  0  0  0  0  0
   35.6574   17.6346   -8.5606 H   0  0  0  0  0  0  0  0  0  0  0  0
   37.9381   18.9968   -8.2382 C   0  0  0  0  0  0  0  0  0  0  0  0
   38.1037   20.3456   -8.7640 N   0  0  0  0  0  0  0  0  0  0  0  0
   37.2210   20.7018   -9.1868 H   0  0  0  0  0  0  0  0  0  0  0  0
   38.8158   20.2519   -9.5290 H   0  0  0  0  0  0  0  0  0  0  0  0
   36.0461   20.2419   -7.1783 C   0  0  0  0  0  0  0  0  0  0  0  0
   36.8624   18.9795   -7.1743 C   0  0  0  0  0  0  0  0  0  0  0  0
 35 36  1  0  0  0
 36 31  1  0  0  0
 31 32  1  0  0  0
 31 27  1  0  0  0
 27 28  2  0  0  0
 27 29  1  0  0  0
 29 24  1  0  0  0
 24 25  2  0  0  0
 24 26  2  0  0  0
 24 23  1  0  0  0
 23 22  1  0  0  0
 22  1  1  0  0  0
  1  2  1  0  0  0
  2  3  1  0  0  0
  3  4  1  0  0  0
  4  5  1  0  0  0
  4  6  1  0  0  0
  6  7  1  0  0  0
  3 10  1  0  0  0
 10 11  1  0  0  0
 11 12  2  0  0  0
 12 13  1  0  0  0
 13 14  2  0  0  0
 14 15  1  0  0  0
 14 16  1  0  0  0
 16 17  2  0  0  0
 17 18  1  0  0  0
 18 19  2  0  0  0
  6  1  1  0  0  0
 19 10  1  0  0  0
 19 13  1  0  0  0
 32 33  1  0  0  0
 32 34  1  0  0  0
 29 30  1  0  0  0
  5  8  1  0  0  0
  7  9  1  0  0  0
 15 20  1  0  0  0
 15 21  1  0  0  0
M  END
> <minimizedAffinity>
-8.18618

> <CNNscore>
0.5642856359

> <CNNaffinity>
5.4534001350

> <CNN_VS>
3.0772752762

> <CNNaffinity_variance>
0.0583803765

$$$$
[H]O[C@]1([H])[C@@]([H])(C([H])([H])OS(=O)(=O)N([H])C(=O)[C@@]([H])(N([H])[H])C([H])([H])C([H])([H])[H])O[C@@]([H])(n2c([H])nc3c(N([H])[H])nc([H])nc32)[C@]1([H])O[H]


 36 38  0  0  0  0  0  0  0  0999 V2000
   35.9020   13.8760  -13.3839 C   0  0  0  0  0  0  0  0  0  0  0  0
   36.8111   13.2326  -14.1966 O   0  0  0  0  0  0  0  0  0  0  0  0
   35.9149   12.8101  -15.2186 C   0  0  0  0  0  0  0  0  0  0  0  0
   34.8763   12.0408  -14.4775 C   0  0  0  0  0  0  0  0  0  0  0  0
   33.5972   12.3340  -14.9952 O   0  0  0  0  0  0  0  0  0  0  0  0
   34.9268   12.7368  -13.1076 C   0  0  0  0  0  0  0  0  0  0  0  0
   33.7137   13.2603  -12.7352 O   0  0  0  0  0  0  0  0  0  0  0  0
   33.5756   13.3356  -15.1093 H   0  0  0  0  0  0  0  0  0  0  0  0
   33.8130   13.5248  -11.7715 H   0  0  0  0  0  0  0  0  0  0  0  0
   36.5775   12.1039  -16.2546 N   0  0  0  0  0  0  0  0  0  0  0  0
   36.0478   11.2435  -17.1577 C   0  0  0  0  0  0  0  0  0  0  0  0
   37.0207   10.7768  -17.9601 N   0  0  0  0  0  0  0  0  0  0  0  0
   38.1855   11.3161  -17.6008 C   0  0  0  0  0  0  0  0  0  0  0  0
   39.4676   11.1536  -18.1093 C   0  0  0  0  0  0  0  0  0  0  0  0
   39.7749   10.3058  -19.1959 N   0  0  0  0  0  0  0  0  0  0  0  0
   40.4295   11.8622  -17.4907 N   0  0  0  0  0  0  0  0  0  0  0  0
   40.1833   12.6792  -16.4478 C   0  0  0  0  0  0  0  0  0  0  0  0
   38.9279   12.8066  -15.9890 N   0  0  0  0  0  0  0  0  0  0  0  0
   37.8919   12.1415  -16.5368 C   0  0  0  0  0  0  0  0  0  0  0  0
   40.3478    9.4644  -19.0386 H   0  0  0  0  0  0  0  0  0  0  0  0
   39.4243   10.5316  -20.1359 H   0  0  0  0  0  0  0  0  0  0  0  0
   36.4082   14.4448  -12.1174 C   0  0  0  0  0  0  0  0  0  0  0  0
   36.0092   13.8523  -10.9557 O   0  0  0  0  0  0  0  0  0  0  0  0
   35.7191   15.0051   -9.7779 S   0  0  0  0  0  0  0  0  0  0  0  0
   34.2984   15.5435   -9.9209 O   0  0  0  0  0  0  0  0  0  0  0  0
   35.8211   14.2819   -8.4397 O   0  0  0  0  0  0  0  0  0  0  0  0
   36.8551   17.3215   -8.8654 C   0  0  0  0  0  0  0  0  0  0  0  0
   35.9922   17.3327   -7.9614 O   0  0  0  0  0  0  0  0  0  0  0  0
   36.8577   16.2827   -9.8136 N   0  0  0  0  0  0  0  0  0  0  0  0
   37.5757   16.3077  -10.5535 H   0  0  0  0  0  0  0  0  0  0  0  0
   37.8608   18.4051   -8.9163 C   0  0  0  0  0  0  0  0  0  0  0  0
   37.7711   19.1488  -10.1661 N   0  0  0  0  0  0  0  0  0  0  0  0
   36.8402   19.6033  -10.2742 H   0  0  0  0  0  0  0  0  0  0  0  0
   37.8684   18.4245  -10.9192 H   0  0  0  0  0  0  0  0  0  0  0  0
   37.4581   20.7592   -8.1754 C   0  0  0  0  0  0  0  0  0  0  0  0
   37.6472   19.3328   -7.7402 C   0  0  0  0  0  0  0  0  0  0  0  0
 35 36  1  0  0  0
 36 31  1  0  0  0
 31 32  1  0  0  0
 31 27  1  0  0  0
 27 28  2  0  0  0
 27 29  1  0  0  0
 29 24  1  0  0  0
 24 25  2  0  0  0
 24 26  2  0  0  0
 24 23  1  0  0  0
 23 22  1  0  0  0
 22  1  1  0  0  0
  1  2  1  0  0  0
  2  3  1  0  0  0
  3  4  1  0  0  0
  4  5  1  0  0  0
  4  6  1  0  0  0
  6  7  1  0  0  0
  3 10  1  0  0  0
 10 11  1  0  0  0
 11 12  2  0  0  0
 12 13  1  0  0  0
 13 14  2  0  0  0
 14 15  1  0  0  0
 14 16  1  0  0  0
 16 17  2  0  0  0
 17 18  1  0  0  0
 18 19  2  0  0  0
  6  1  1  0  0  0
 19 10  1  0  0  0
 19 13  1  0  0  0
 32 33  1  0  0  0
 32 34  1  0  0  0
 29 30  1  0  0  0
  5  8  1  0  0  0
  7  9  1  0  0  0
 15 20  1  0  0  0
 15 21  1  0  0  0
M  END
> <minimizedAffinity>
-7.81214

> <CNNscore>
0.5032043457

> <CNNaffinity>
5.9133648872

> <CNN_VS>
2.9756309986

> <CNNaffinity_variance>
0.1057933569

$$$$
[H]O[C@]1([H])[C@@]([H])(C([H])([H])OS(=O)(=O)N([H])C(=O)[C@@]([H])(N([H])[H])C([H])([H])C([H])([H])[H])O[C@@]([H])(n2c([H])nc3c(N([H])[H])nc([H])nc32)[C@]1([H])O[H]


 36 38  0  0  0  0  0  0  0  0999 V2000
   41.2257   12.6026  -16.1422 C   0  0  0  0  0  0  0  0  0  0  0  0
   40.1544   13.1836  -15.4974 O   0  0  0  0  0  0  0  0  0  0  0  0
   39.1443   12.2663  -15.9030 C   0  0  0  0  0  0  0  0  0  0  0  0
   39.2373   12.2781  -17.3899 C   0  0  0  0  0  0  0  0  0  0  0  0
   39.0929   10.9681  -17.8930 O   0  0  0  0  0  0  0  0  0  0  0  0
   40.7232   12.6229  -17.5817 C   0  0  0  0  0  0  0  0  0  0  0  0
   41.3968   11.6735  -18.3092 O   0  0  0  0  0  0  0  0  0  0  0  0
   39.6671   10.3873  -17.3018 H   0  0  0  0  0  0  0  0  0  0  0  0
   42.2913   12.0761  -18.5243 H   0  0  0  0  0  0  0  0  0  0  0  0
   37.8739   12.5957  -15.3660 N   0  0  0  0  0  0  0  0  0  0  0  0
   37.5800   13.4856  -14.3871 C   0  0  0  0  0  0  0  0  0  0  0  0
   36.2541   13.4871  -14.1624 N   0  0  0  0  0  0  0  0  0  0  0  0
   35.6675   12.6115  -14.9785 C   0  0  0  0  0  0  0  0  0  0  0  0
   34.3356   12.2479  -15.1297 C   0  0  0  0  0  0  0  0  0  0  0  0
   33.2839   12.8011  -14.3669 N   0  0  0  0  0  0  0  0  0  0  0  0
   34.0944   11.3102  -16.0638 N   0  0  0  0  0  0  0  0  0  0  0  0
   35.0665   10.7516  -16.8111 C   0  0  0  0  0  0  0  0  0  0  0  0
   36.3411   11.1337  -16.6317 N   0  0  0  0  0  0  0  0  0  0  0  0
   36.6908   12.0649  -15.7226 C   0  0  0  0  0  0  0  0  0  0  0  0
   32.7755   12.2077  -13.6957 H   0  0  0  0  0  0  0  0  0  0  0  0
   33.0330   13.7914  -14.4840 H   0  0  0  0  0  0  0  0  0  0  0  0
   42.5317   13.2863  -16.0386 C   0  0  0  0  0  0  0  0  0  0  0  0
   43.3526   12.9258  -15.0109 O   0  0  0  0  0  0  0  0  0  0  0  0
   44.9573   13.1039  -15.4510 S   0  0  0  0  0  0  0  0  0  0  0  0
   45.8235   12.1387  -14.6468 O   0  0  0  0  0  0  0  0  0  0  0  0
   45.0425   12.7075  -16.9206 O   0  0  0  0  0  0  0  0  0  0  0  0
   45.4020   15.4172  -14.0582 C   0  0  0  0  0  0  0  0  0  0  0  0
   44.8716   14.8676  -13.0690 O   0  0  0  0  0  0  0  0  0  0  0  0
   45.5142   14.7123  -15.2702 N   0  0  0  0  0  0  0  0  0  0  0  0
   45.9465   15.1972  -16.0711 H   0  0  0  0  0  0  0  0  0  0  0  0
   45.9044   16.8026  -13.9306 C   0  0  0  0  0  0  0  0  0  0  0  0
   46.4397   17.2876  -15.1962 N   0  0  0  0  0  0  0  0  0  0  0  0
   45.7092   17.3047  -15.9384 H   0  0  0  0  0  0  0  0  0  0  0  0
   47.1657   16.5814  -15.4709 H   0  0  0  0  0  0  0  0  0  0  0  0
   45.2691   19.0524  -13.0428 C   0  0  0  0  0  0  0  0  0  0  0  0
   44.7760   17.6962  -13.4643 C   0  0  0  0  0  0  0  0  0  0  0  0
 35 36  1  0  0  0
 36 31  1  0  0  0
 31 32  1  0  0  0
 31 27  1  0  0  0
 27 28  2  0  0  0
 27 29  1  0  0  0
 29 24  1  0  0  0
 24 25  2  0  0  0
 24 26  2  0  0  0
 24 23  1  0  0  0
 23 22  1  0  0  0
 22  1  1  0  0  0
  1  2  1  0  0  0
  2  3  1  0  0  0
  3  4  1  0  0  0
  4  5  1  0  0  0
  4  6  1  0  0  0
  6  7  1  0  0  0
  3 10  1  0  0  0
 10 11  1  0  0  0
 11 12  2  0  0  0
 12 13  1  0  0  0
 13 14  2  0  0  0
 14 15  1  0  0  0
 14 16  1  0  0  0
 16 17  2  0  0  0
 17 18  1  0  0  0
 18 19  2  0  0  0
  6  1  1  0  0  0
 19 10  1  0  0  0
 19 13  1  0  0  0
 32 33  1  0  0  0
 32 34  1  0  0  0
 29 30  1  0  0  0
  5  8  1  0  0  0
  7  9  1  0  0  0
 15 20  1  0  0  0
 15 21  1  0  0  0
M  END
> <minimizedAffinity>
-8.28122

> <CNNscore>
0.3488680124

> <CNNaffinity>
5.9344530106

> <CNN_VS>
2.0703408718

> <CNNaffinity_variance>
0.0636181086

$$$$
[H]O[C@]1([H])[C@@]([H])(C([H])([H])OS(=O)(=O)N([H])C(=O)[C@@]([H])(N([H])[H])C([H])([H])C([H])([H])[H])O[C@@]([H])(n2c([H])nc3c(N([H])[H])nc([H])nc32)[C@]1([H])O[H]


 36 38  0  0  0  0  0  0  0  0999 V2000
   41.7055   13.1663  -15.9911 C   0  0  0  0  0  0  0  0  0  0  0  0
   40.7998   12.2290  -16.4405 O   0  0  0  0  0  0  0  0  0  0  0  0
   39.6015   12.9043  -16.0742 C   0  0  0  0  0  0  0  0  0  0  0  0
   39.7751   13.1595  -14.6166 C   0  0  0  0  0  0  0  0  0  0  0  0
   39.3065   14.4503  -14.2934 O   0  0  0  0  0  0  0  0  0  0  0  0
   41.3069   13.2505  -14.5218 C   0  0  0  0  0  0  0  0  0  0  0  0
   41.7347   14.4481  -14.0051 O   0  0  0  0  0  0  0  0  0  0  0  0
   39.6674   15.0564  -15.0138 H   0  0  0  0  0  0  0  0  0  0  0  0
   42.7154   14.3335  -13.8221 H   0  0  0  0  0  0  0  0  0  0  0  0
   38.4418   12.1718  -16.4339 N   0  0  0  0  0  0  0  0  0  0  0  0
   38.3263   11.1735  -17.3431 C   0  0  0  0  0  0  0  0  0  0  0  0
   37.0490   10.7562  -17.3946 N   0  0  0  0  0  0  0  0  0  0  0  0
   36.3187   11.4639  -16.5328 C   0  0  0  0  0  0  0  0  0  0  0  0
   34.9662   11.4161  -16.2205 C   0  0  0  0  0  0  0  0  0  0  0  0
   34.0561   10.5226  -16.8264 N   0  0  0  0  0  0  0  0  0  0  0  0
   34.5564   12.2949  -15.2879 N   0  0  0  0  0  0  0  0  0  0  0  0
   35.3879   13.1686  -14.6871 C   0  0  0  0  0  0  0  0  0  0  0  0
   36.6888   13.1796  -15.0196 N   0  0  0  0  0  0  0  0  0  0  0  0
   37.2018   12.3414  -15.9415 C   0  0  0  0  0  0  0  0  0  0  0  0
   33.3159   10.8895  -17.4417 H   0  0  0  0  0  0  0  0  0  0  0  0
   34.1381    9.5125  -16.6521 H   0  0  0  0  0  0  0  0  0  0  0  0
   43.1408   12.8398  -16.1219 C   0  0  0  0  0  0  0  0  0  0  0  0
   44.0265   13.8768  -16.1187 O   0  0  0  0  0  0  0  0  0  0  0  0
   45.2650   13.5879  -15.0309 S   0  0  0  0  0  0  0  0  0  0  0  0
   44.6823   13.2847  -13.6535 O   0  0  0  0  0  0  0  0  0  0  0  0
   45.9857   12.3397  -15.5276 O   0  0  0  0  0  0  0  0  0  0  0  0
   45.9992   16.1824  -14.5633 C   0  0  0  0  0  0  0  0  0  0  0  0
   44.8051   16.4195  -14.2807 O   0  0  0  0  0  0  0  0  0  0  0  0
   46.3804   14.8835  -14.9452 N   0  0  0  0  0  0  0  0  0  0  0  0
   47.3709   14.7225  -15.1828 H   0  0  0  0  0  0  0  0  0  0  0  0
   46.9900   17.2782  -14.4871 C   0  0  0  0  0  0  0  0  0  0  0  0
   47.1701   17.9167  -15.7844 N   0  0  0  0  0  0  0  0  0  0  0  0
   46.2835   18.3424  -16.1270 H   0  0  0  0  0  0  0  0  0  0  0  0
   47.4290   17.1361  -16.4362 H   0  0  0  0  0  0  0  0  0  0  0  0
   47.2913   18.1846  -12.1761 C   0  0  0  0  0  0  0  0  0  0  0  0
   46.5260   18.2933  -13.4654 C   0  0  0  0  0  0  0  0  0  0  0  0
 35 36  1  0  0  0
 36 31  1  0  0  0
 31 32  1  0  0  0
 31 27  1  0  0  0
 27 28  2  0  0  0
 27 29  1  0  0  0
 29 24  1  0  0  0
 24 25  2  0  0  0
 24 26  2  0  0  0
 24 23  1  0  0  0
 23 22  1  0  0  0
 22  1  1  0  0  0
  1  2  1  0  0  0
  2  3  1  0  0  0
  3  4  1  0  0  0
  4  5  1  0  0  0
  4  6  1  0  0  0
  6  7  1  0  0  0
  3 10  1  0  0  0
 10 11  1  0  0  0
 11 12  2  0  0  0
 12 13  1  0  0  0
 13 14  2  0  0  0
 14 15  1  0  0  0
 14 16  1  0  0  0
 16 17  2  0  0  0
 17 18  1  0  0  0
 18 19  2  0  0  0
  6  1  1  0  0  0
 19 10  1  0  0  0
 19 13  1  0  0  0
 32 33  1  0  0  0
 32 34  1  0  0  0
 29 30  1  0  0  0
  5  8  1  0  0  0
  7  9  1  0  0  0
 15 20  1  0  0  0
 15 21  1  0  0  0
M  END
> <minimizedAffinity>
-7.74995

> <CNNscore>
0.3039509058

> <CNNaffinity>
5.8908839226

> <CNN_VS>
1.7905395031

> <CNNaffinity_variance>
0.0891700685

$$$$
[H]O[C@]1([H])[C@@]([H])(C([H])([H])OS(=O)(=O)N([H])C(=O)[C@@]([H])(N([H])[H])C([H])([H])C([H])([H])[H])O[C@@]([H])(n2c([H])nc3c(N([H])[H])nc([H])nc32)[C@]1([H])O[H]


 36 38  0  0  0  0  0  0  0  0999 V2000
   36.9730   14.4431  -10.7435 C   0  0  0  0  0  0  0  0  0  0  0  0
   35.8820   13.8740  -11.3653 O   0  0  0  0  0  0  0  0  0  0  0  0
   36.4584   13.6678  -12.6504 C   0  0  0  0  0  0  0  0  0  0  0  0
   36.9375   15.0235  -13.0408 C   0  0  0  0  0  0  0  0  0  0  0  0
   38.1978   14.9281  -13.6676 O   0  0  0  0  0  0  0  0  0  0  0  0
   37.2190   15.6370  -11.6594 C   0  0  0  0  0  0  0  0  0  0  0  0
   38.5197   16.0531  -11.5206 O   0  0  0  0  0  0  0  0  0  0  0  0
   38.7327   14.2878  -13.1015 H   0  0  0  0  0  0  0  0  0  0  0  0
   38.5474   16.5885  -10.6715 H   0  0  0  0  0  0  0  0  0  0  0  0
   35.5520   13.0551  -13.5526 N   0  0  0  0  0  0  0  0  0  0  0  0
   34.2063   12.9383  -13.4429 C   0  0  0  0  0  0  0  0  0  0  0  0
   33.7232   12.2738  -14.5074 N   0  0  0  0  0  0  0  0  0  0  0  0
   34.7296   11.9499  -15.3192 C   0  0  0  0  0  0  0  0  0  0  0  0
   34.7497   11.2671  -16.5285 C   0  0  0  0  0  0  0  0  0  0  0  0
   33.5928   10.7539  -17.1546 N   0  0  0  0  0  0  0  0  0  0  0  0
   35.9647   11.1111  -17.0846 N   0  0  0  0  0  0  0  0  0  0  0  0
   37.0955   11.5795  -16.5209 C   0  0  0  0  0  0  0  0  0  0  0  0
   37.0293   12.2347  -15.3508 N   0  0  0  0  0  0  0  0  0  0  0  0
   35.8626   12.4447  -14.7101 C   0  0  0  0  0  0  0  0  0  0  0  0
   33.4677    9.7347  -17.2356 H   0  0  0  0  0  0  0  0  0  0  0  0
   32.8821   11.3990  -17.5238 H   0  0  0  0  0  0  0  0  0  0  0  0
   36.8006   14.8885   -9.3450 C   0  0  0  0  0  0  0  0  0  0  0  0
   36.0681   14.0920   -8.5150 O   0  0  0  0  0  0  0  0  0  0  0  0
   36.7157   14.0988   -6.9719 S   0  0  0  0  0  0  0  0  0  0  0  0
   36.9170   12.6650   -6.4899 O   0  0  0  0  0  0  0  0  0  0  0  0
   38.0853   14.7582   -7.0877 O   0  0  0  0  0  0  0  0  0  0  0  0
   34.8647   14.3589   -4.9731 C   0  0  0  0  0  0  0  0  0  0  0  0
   34.7449   13.1149   -4.9870 O   0  0  0  0  0  0  0  0  0  0  0  0
   35.7592   14.9829   -5.8613 N   0  0  0  0  0  0  0  0  0  0  0  0
   35.8271   16.0115   -5.8329 H   0  0  0  0  0  0  0  0  0  0  0  0
   34.0609   15.1505   -4.0164 C   0  0  0  0  0  0  0  0  0  0  0  0
   34.8729   16.1676   -3.3611 N   0  0  0  0  0  0  0  0  0  0  0  0
   35.2657   16.8441   -4.0486 H   0  0  0  0  0  0  0  0  0  0  0  0
   35.6718   15.6400   -2.9314 H   0  0  0  0  0  0  0  0  0  0  0  0
   33.0586   17.2914   -4.8319 C   0  0  0  0  0  0  0  0  0  0  0  0
   32.9098   15.7974   -4.7552 C   0  0  0  0  0  0  0  0  0  0  0  0
 35 36  1  0  0  0
 36 31  1  0  0  0
 31 32  1  0  0  0
 31 27  1  0  0  0
 27 28  2  0  0  0
 27 29  1  0  0  0
 29 24  1  0  0  0
 24 25  2  0  0  0
 24 26  2  0  0  0
 24 23  1  0  0  0
 23 22  1  0  0  0
 22  1  1  0  0  0
  1  2  1  0  0  0
  2  3  1  0  0  0
  3  4  1  0  0  0
  4  5  1  0  0  0
  4  6  1  0  0  0
  6  7  1  0  0  0
  3 10  1  0  0  0
 10 11  1  0  0  0
 11 12  2  0  0  0
 12 13  1  0  0  0
 13 14  2  0  0  0
 14 15  1  0  0  0
 14 16  1  0  0  0
 16 17  2  0  0  0
 17 18  1  0  0  0
 18 19  2  0  0  0
  6  1  1  0  0  0
 19 10  1  0  0  0
 19 13  1  0  0  0
 32 33  1  0  0  0
 32 34  1  0  0  0
 29 30  1  0  0  0
  5  8  1  0  0  0
  7  9  1  0  0  0
 15 20  1  0  0  0
 15 21  1  0  0  0
M  END
> <minimizedAffinity>
-7.84155

> <CNNscore>
0.2894811332

> <CNNaffinity>
5.2440967560

> <CNN_VS>
1.5180671215

> <CNNaffinity_variance>
0.0671521872

$$$$
[H]c1c(N2C([H])([H])C([H])([H])N(C([H])([H])C3([H])C([H])([H])C([H])([H])C([H])([H])C3([H])[H])C([H])([H])C2([H])[H])nc(C(=O)C([H])([H])C([H])([H])C([H])([H])[H])c(N([H])[H])c1[H]


 26 28  0  0  0  0  0  0  0  0999 V2000
   37.1056   11.7145  -15.8921 C   0  0  0  0  0  0  0  0  0  0  0  0
   36.4503   10.9881  -16.8500 C   0  0  0  0  0  0  0  0  0  0  0  0
   37.0641   10.6522  -18.0439 C   0  0  0  0  0  0  0  0  0  0  0  0
   38.3550   11.0714  -18.2378 C   0  0  0  0  0  0  0  0  0  0  0  0
   38.9785   10.7283  -19.4550 N   0  0  0  0  0  0  0  0  0  0  0  0
   39.0335   11.8044  -17.2849 C   0  0  0  0  0  0  0  0  0  0  0  0
   38.3849   12.0909  -16.1647 N   0  0  0  0  0  0  0  0  0  0  0  0
   39.1053   11.4423  -20.1871 H   0  0  0  0  0  0  0  0  0  0  0  0
   39.3070    9.7647  -19.6121 H   0  0  0  0  0  0  0  0  0  0  0  0
   35.9663   14.0674  -12.8013 N   0  0  0  0  0  0  0  0  0  0  0  0
   35.2615   13.9742  -14.0755 C   0  0  0  0  0  0  0  0  0  0  0  0
   35.1230   12.6163  -14.6368 C   0  0  0  0  0  0  0  0  0  0  0  0
   36.4944   12.0626  -14.6837 N   0  0  0  0  0  0  0  0  0  0  0  0
   37.0975   11.9251  -13.4061 C   0  0  0  0  0  0  0  0  0  0  0  0
   37.0972   13.2420  -12.6636 C   0  0  0  0  0  0  0  0  0  0  0  0
   36.3161   15.4582  -12.7044 C   0  0  0  0  0  0  0  0  0  0  0  0
   36.1955   16.2017  -11.4688 C   0  0  0  0  0  0  0  0  0  0  0  0
   37.3484   16.5188  -10.6060 C   0  0  0  0  0  0  0  0  0  0  0  0
   36.6511   17.2491   -9.4366 C   0  0  0  0  0  0  0  0  0  0  0  0
   35.3379   16.5266   -9.2656 C   0  0  0  0  0  0  0  0  0  0  0  0
   35.0979   15.7053  -10.5270 C   0  0  0  0  0  0  0  0  0  0  0  0
   40.4105   12.2281  -17.5417 C   0  0  0  0  0  0  0  0  0  0  0  0
   41.1161   11.5685  -18.3372 O   0  0  0  0  0  0  0  0  0  0  0  0
   41.0045   13.4089  -16.8971 C   0  0  0  0  0  0  0  0  0  0  0  0
   41.7948   13.0503  -15.6582 C   0  0  0  0  0  0  0  0  0  0  0  0
   43.2726   13.0701  -15.8921 C   0  0  0  0  0  0  0  0  0  0  0  0
 17 16  1  0  0  0
 16 10  1  0  0  0
 10 11  1  0  0  0
 11 12  1  0  0  0
 12 13  1  0  0  0
 13  1  1  0  0  0
  1  2  2  0  0  0
  2  3  1  0  0  0
  3  4  2  0  0  0
  4  5  1  0  0  0
  4  6  1  0  0  0
  6 22  1  0  0  0
 22 24  1  0  0  0
 24 25  1  0  0  0
 25 26  1  0  0  0
 22 23  2  0  0  0
  6  7  2  0  0  0
 13 14  1  0  0  0
 14 15  1  0  0  0
 17 18  1  0  0  0
 18 19  1  0  0  0
 19 20  1  0  0  0
 20 21  1  0  0  0
 21 17  1  0  0  0
 15 10  1  0  0  0
  7  1  1  0  0  0
  5  8  1  0  0  0
  5  9  1  0  0  0
M  END
> <minimizedAffinity>
-7.61635

> <CNNscore>
0.8248552084

> <CNNaffinity>
7.0957593918

> <CNN_VS>
5.8529739380

> <CNNaffinity_variance>
0.1602743566

$$$$
[H]c1c(N2C([H])([H])C([H])([H])N(C([H])([H])C3([H])C([H])([H])C([H])([H])C([H])([H])C3([H])[H])C([H])([H])C2([H])[H])nc(C(=O)C([H])([H])C([H])([H])C([H])([H])[H])c(N([H])[H])c1[H]


 26 28  0  0  0  0  0  0  0  0999 V2000
   36.9692   12.0094  -15.6815 C   0  0  0  0  0  0  0  0  0  0  0  0
   36.3368   11.2277  -16.6107 C   0  0  0  0  0  0  0  0  0  0  0  0
   37.0040   10.7538  -17.7267 C   0  0  0  0  0  0  0  0  0  0  0  0
   38.3242   11.0933  -17.8727 C   0  0  0  0  0  0  0  0  0  0  0  0
   39.0021   10.6096  -19.0106 N   0  0  0  0  0  0  0  0  0  0  0  0
   38.9805   11.8802  -16.9476 C   0  0  0  0  0  0  0  0  0  0  0  0
   38.2806   12.2995  -15.9027 N   0  0  0  0  0  0  0  0  0  0  0  0
   39.2100   11.2456  -19.7943 H   0  0  0  0  0  0  0  0  0  0  0  0
   39.2892    9.6215  -19.0582 H   0  0  0  0  0  0  0  0  0  0  0  0
   36.2382   14.3904  -12.4903 N   0  0  0  0  0  0  0  0  0  0  0  0
   35.8524   14.7021  -13.8625 C   0  0  0  0  0  0  0  0  0  0  0  0
   35.3013   13.5802  -14.6471 C   0  0  0  0  0  0  0  0  0  0  0  0
   36.3044   12.4966  -14.5521 N   0  0  0  0  0  0  0  0  0  0  0  0
   36.5057   12.0205  -13.2301 C   0  0  0  0  0  0  0  0  0  0  0  0
   36.8775   13.1519  -12.2988 C   0  0  0  0  0  0  0  0  0  0  0  0
   37.0915   15.4853  -12.1173 C   0  0  0  0  0  0  0  0  0  0  0  0
   38.5314   15.3566  -12.0533 C   0  0  0  0  0  0  0  0  0  0  0  0
   39.3856   16.2674  -11.2692 C   0  0  0  0  0  0  0  0  0  0  0  0
   40.7901   15.7164  -11.6022 C   0  0  0  0  0  0  0  0  0  0  0  0
   40.7000   15.2933  -13.0474 C   0  0  0  0  0  0  0  0  0  0  0  0
   39.2219   15.2064  -13.4093 C   0  0  0  0  0  0  0  0  0  0  0  0
   40.3906   12.2142  -17.1510 C   0  0  0  0  0  0  0  0  0  0  0  0
   41.0274   11.6509  -18.0692 O   0  0  0  0  0  0  0  0  0  0  0  0
   41.0968   13.1944  -16.3125 C   0  0  0  0  0  0  0  0  0  0  0  0
   42.5616   12.8569  -16.1442 C   0  0  0  0  0  0  0  0  0  0  0  0
   43.1180   13.3407  -14.8421 C   0  0  0  0  0  0  0  0  0  0  0  0
 17 16  1  0  0  0
 16 10  1  0  0  0
 10 11  1  0  0  0
 11 12  1  0  0  0
 12 13  1  0  0  0
 13  1  1  0  0  0
  1  2  2  0  0  0
  2  3  1  0  0  0
  3  4  2  0  0  0
  4  5  1  0  0  0
  4  6  1  0  0  0
  6 22  1  0  0  0
 22 24  1  0  0  0
 24 25  1  0  0  0
 25 26  1  0  0  0
 22 23  2  0  0  0
  6  7  2  0  0  0
 13 14  1  0  0  0
 14 15  1  0  0  0
 17 18  1  0  0  0
 18 19  1  0  0  0
 19 20  1  0  0  0
 20 21  1  0  0  0
 21 17  1  0  0  0
 15 10  1  0  0  0
  7  1  1  0  0  0
  5  8  1  0  0  0
  5  9  1  0  0  0
M  END
> <minimizedAffinity>
-7.14651

> <CNNscore>
0.7417235970

> <CNNaffinity>
7.1811728477

> <CNN_VS>
5.3264455795

> <CNNaffinity_variance>
0.3042444289

$$$$
[H]c1c(N2C([H])([H])C([H])([H])N(C([H])([H])C3([H])C([H])([H])C([H])([H])C([H])([H])C3([H])[H])C([H])([H])C2([H])[H])nc(C(=O)C([H])([H])C([H])([H])C([H])([H])[H])c(N([H])[H])c1[H]


 26 28  0  0  0  0  0  0  0  0999 V2000
   39.3099   13.6298  -14.4442 C   0  0  0  0  0  0  0  0  0  0  0  0
   40.5439   13.8409  -13.8899 C   0  0  0  0  0  0  0  0  0  0  0  0
   41.7047   13.5627  -14.5900 C   0  0  0  0  0  0  0  0  0  0  0  0
   41.5792   13.0670  -15.8621 C   0  0  0  0  0  0  0  0  0  0  0  0
   42.7632   12.7839  -16.5736 N   0  0  0  0  0  0  0  0  0  0  0  0
   40.3448   12.8469  -16.4395 C   0  0  0  0  0  0  0  0  0  0  0  0
   39.2748   13.1354  -15.7119 N   0  0  0  0  0  0  0  0  0  0  0  0
   43.0671   11.8072  -16.6985 H   0  0  0  0  0  0  0  0  0  0  0  0
   43.3236   13.5528  -16.9683 H   0  0  0  0  0  0  0  0  0  0  0  0
   35.3438   13.6517  -13.6338 N   0  0  0  0  0  0  0  0  0  0  0  0
   36.2503   12.5560  -13.3073 C   0  0  0  0  0  0  0  0  0  0  0  0
   37.5663   12.9483  -12.7665 C   0  0  0  0  0  0  0  0  0  0  0  0
   38.1305   13.9041  -13.7451 N   0  0  0  0  0  0  0  0  0  0  0  0
   37.3675   15.0926  -13.8861 C   0  0  0  0  0  0  0  0  0  0  0  0
   35.9330   14.7750  -14.2422 C   0  0  0  0  0  0  0  0  0  0  0  0
   34.3650   13.0423  -14.4919 C   0  0  0  0  0  0  0  0  0  0  0  0
   34.6635   11.8824  -15.3040 C   0  0  0  0  0  0  0  0  0  0  0  0
   35.5779   11.9245  -16.4599 C   0  0  0  0  0  0  0  0  0  0  0  0
   35.4786   10.4693  -16.9694 C   0  0  0  0  0  0  0  0  0  0  0  0
   34.0376   10.0844  -16.7430 C   0  0  0  0  0  0  0  0  0  0  0  0
   33.4386   11.0968  -15.7737 C   0  0  0  0  0  0  0  0  0  0  0  0
   40.2660   12.3156  -17.8007 C   0  0  0  0  0  0  0  0  0  0  0  0
   40.4431   13.0863  -18.7704 O   0  0  0  0  0  0  0  0  0  0  0  0
   39.9848   10.8991  -18.0783 C   0  0  0  0  0  0  0  0  0  0  0  0
   38.5047   10.6263  -18.2297 C   0  0  0  0  0  0  0  0  0  0  0  0
   38.0424   10.7300  -19.6491 C   0  0  0  0  0  0  0  0  0  0  0  0
 17 16  1  0  0  0
 16 10  1  0  0  0
 10 11  1  0  0  0
 11 12  1  0  0  0
 12 13  1  0  0  0
 13  1  1  0  0  0
  1  2  2  0  0  0
  2  3  1  0  0  0
  3  4  2  0  0  0
  4  5  1  0  0  0
  4  6  1  0  0  0
  6 22  1  0  0  0
 22 24  1  0  0  0
 24 25  1  0  0  0
 25 26  1  0  0  0
 22 23  2  0  0  0
  6  7  2  0  0  0
 13 14  1  0  0  0
 14 15  1  0  0  0
 17 18  1  0  0  0
 18 19  1  0  0  0
 19 20  1  0  0  0
 20 21  1  0  0  0
 21 17  1  0  0  0
 15 10  1  0  0  0
  7  1  1  0  0  0
  5  8  1  0  0  0
  5  9  1  0  0  0
M  END
> <minimizedAffinity>
-7.15384

> <CNNscore>
0.7342283726

> <CNNaffinity>
7.1703109741

> <CNN_VS>
5.2646455765

> <CNNaffinity_variance>
0.1191649586

$$$$
[H]c1c(N2C([H])([H])C([H])([H])N(C([H])([H])C3([H])C([H])([H])C([H])([H])C([H])([H])C3([H])[H])C([H])([H])C2([H])[H])nc(C(=O)C([H])([H])C([H])([H])C([H])([H])[H])c(N([H])[H])c1[H]


 26 28  0  0  0  0  0  0  0  0999 V2000
   38.1832   12.8256  -14.8015 C   0  0  0  0  0  0  0  0  0  0  0  0
   39.1492   13.4431  -14.0534 C   0  0  0  0  0  0  0  0  0  0  0  0
   40.4209   13.6579  -14.5554 C   0  0  0  0  0  0  0  0  0  0  0  0
   40.6836   13.2309  -15.8314 C   0  0  0  0  0  0  0  0  0  0  0  0
   41.9799   13.4504  -16.3409 N   0  0  0  0  0  0  0  0  0  0  0  0
   39.7239   12.6063  -16.6024 C   0  0  0  0  0  0  0  0  0  0  0  0
   38.5273   12.4329  -16.0586 N   0  0  0  0  0  0  0  0  0  0  0  0
   42.6429   12.6650  -16.4156 H   0  0  0  0  0  0  0  0  0  0  0  0
   42.2637   14.3949  -16.6381 H   0  0  0  0  0  0  0  0  0  0  0  0
   34.6803   13.6395  -12.9428 N   0  0  0  0  0  0  0  0  0  0  0  0
   34.9724   13.9575  -14.3365 C   0  0  0  0  0  0  0  0  0  0  0  0
   35.6886   12.9158  -15.0982 C   0  0  0  0  0  0  0  0  0  0  0  0
   36.8962   12.6003  -14.3036 N   0  0  0  0  0  0  0  0  0  0  0  0
   36.6105   12.0574  -13.0236 C   0  0  0  0  0  0  0  0  0  0  0  0
   35.7003   12.9742  -12.2384 C   0  0  0  0  0  0  0  0  0  0  0  0
   34.3831   14.9171  -12.3551 C   0  0  0  0  0  0  0  0  0  0  0  0
   35.1344   15.4481  -11.2381 C   0  0  0  0  0  0  0  0  0  0  0  0
   34.4989   15.9224   -9.9950 C   0  0  0  0  0  0  0  0  0  0  0  0
   35.7297   16.4179   -9.2035 C   0  0  0  0  0  0  0  0  0  0  0  0
   36.6400   17.0132  -10.2489 C   0  0  0  0  0  0  0  0  0  0  0  0
   36.1655   16.5146  -11.6088 C   0  0  0  0  0  0  0  0  0  0  0  0
   40.0560   12.1690  -17.9589 C   0  0  0  0  0  0  0  0  0  0  0  0
   40.5749   12.9830  -18.7551 O   0  0  0  0  0  0  0  0  0  0  0  0
   39.8028   10.7988  -18.4290 C   0  0  0  0  0  0  0  0  0  0  0  0
   38.5123   10.6890  -19.2102 C   0  0  0  0  0  0  0  0  0  0  0  0
   37.3339   10.3927  -18.3367 C   0  0  0  0  0  0  0  0  0  0  0  0
 17 16  1  0  0  0
 16 10  1  0  0  0
 10 11  1  0  0  0
 11 12  1  0  0  0
 12 13  1  0  0  0
 13  1  1  0  0  0
  1  2  2  0  0  0
  2  3  1  0  0  0
  3  4  2  0  0  0
  4  5  1  0  0  0
  4  6  1  0  0  0
  6 22  1  0  0  0
 22 24  1  0  0  0
 24 25  1  0  0  0
 25 26  1  0  0  0
 22 23  2  0  0  0
  6  7  2  0  0  0
 13 14  1  0  0  0
 14 15  1  0  0  0
 17 18  1  0  0  0
 18 19  1  0  0  0
 19 20  1  0  0  0
 20 21  1  0  0  0
 21 17  1  0  0  0
 15 10  1  0  0  0
  7  1  1  0  0  0
  5  8  1  0  0  0
  5  9  1  0  0  0
M  END
> <minimizedAffinity>
-7.08288

> <CNNscore>
0.5746940374

> <CNNaffinity>
6.7684640884

> <CNN_VS>
3.8897960186

> <CNNaffinity_variance>
0.2360883206

$$$$
[H]c1c(N2C([H])([H])C([H])([H])N(C([H])([H])C3([H])C([H])([H])C([H])([H])C([H])([H])C3([H])[H])C([H])([H])C2([H])[H])nc(C(=O)C([H])([H])C([H])([H])C([H])([H])[H])c(N([H])[H])c1[H]


 26 28  0  0  0  0  0  0  0  0999 V2000
   43.3754   13.4179  -13.9618 C   0  0  0  0  0  0  0  0  0  0  0  0
   43.8076   13.1186  -15.2259 C   0  0  0  0  0  0  0  0  0  0  0  0
   42.9296   13.0722  -16.2947 C   0  0  0  0  0  0  0  0  0  0  0  0
   41.6075   13.3367  -16.0462 C   0  0  0  0  0  0  0  0  0  0  0  0
   40.7146   13.2886  -17.1363 N   0  0  0  0  0  0  0  0  0  0  0  0
   41.1512   13.6406  -14.7792 C   0  0  0  0  0  0  0  0  0  0  0  0
   42.0469   13.6675  -13.8022 N   0  0  0  0  0  0  0  0  0  0  0  0
   40.0764   12.4866  -17.2434 H   0  0  0  0  0  0  0  0  0  0  0  0
   40.7002   14.0545  -17.8249 H   0  0  0  0  0  0  0  0  0  0  0  0
   45.6376   12.0398  -10.9006 N   0  0  0  0  0  0  0  0  0  0  0  0
   46.0641   12.0758  -12.2955 C   0  0  0  0  0  0  0  0  0  0  0  0
   45.7130   13.2978  -13.0449 C   0  0  0  0  0  0  0  0  0  0  0  0
   44.2527   13.4644  -12.8740 N   0  0  0  0  0  0  0  0  0  0  0  0
   43.8567   13.6740  -11.5272 C   0  0  0  0  0  0  0  0  0  0  0  0
   44.3572   12.5595  -10.6368 C   0  0  0  0  0  0  0  0  0  0  0  0
   45.7216   10.6477  -10.5527 C   0  0  0  0  0  0  0  0  0  0  0  0
   46.7228   10.1375   -9.6409 C   0  0  0  0  0  0  0  0  0  0  0  0
   47.5455   11.0085   -8.7815 C   0  0  0  0  0  0  0  0  0  0  0  0
   48.4520    9.9681   -8.0866 C   0  0  0  0  0  0  0  0  0  0  0  0
   48.7201    8.9287   -9.1466 C   0  0  0  0  0  0  0  0  0  0  0  0
   47.6922    9.1266  -10.2545 C   0  0  0  0  0  0  0  0  0  0  0  0
   39.7293   13.9145  -14.5676 C   0  0  0  0  0  0  0  0  0  0  0  0
   39.3077   15.0870  -14.6819 O   0  0  0  0  0  0  0  0  0  0  0  0
   38.7664   12.8578  -14.2230 C   0  0  0  0  0  0  0  0  0  0  0  0
   37.4323   13.0505  -14.9092 C   0  0  0  0  0  0  0  0  0  0  0  0
   36.9908   11.8347  -15.6617 C   0  0  0  0  0  0  0  0  0  0  0  0
 17 16  1  0  0  0
 16 10  1  0  0  0
 10 11  1  0  0  0
 11 12  1  0  0  0
 12 13  1  0  0  0
 13  1  1  0  0  0
  1  2  2  0  0  0
  2  3  1  0  0  0
  3  4  2  0  0  0
  4  5  1  0  0  0
  4  6  1  0  0  0
  6 22  1  0  0  0
 22 24  1  0  0  0
 24 25  1  0  0  0
 25 26  1  0  0  0
 22 23  2  0  0  0
  6  7  2  0  0  0
 13 14  1  0  0  0
 14 15  1  0  0  0
 17 18  1  0  0  0
 18 19  1  0  0  0
 19 20  1  0  0  0
 20 21  1  0  0  0
 21 17  1  0  0  0
 15 10  1  0  0  0
  7  1  1  0  0  0
  5  8  1  0  0  0
  5  9  1  0  0  0
M  END
> <minimizedAffinity>
-6.35223

> <CNNscore>
0.3748555481

> <CNNaffinity>
5.5672883987

> <CNN_VS>
2.0869288445

> <CNNaffinity_variance>
0.0229631420

$$$$
[H]c1c(N2C([H])([H])C([H])([H])N(C([H])([H])C3([H])C([H])([H])C([H])([H])C([H])([H])C3([H])[H])C([H])([H])C2([H])[H])nc(C(=O)C([H])([H])C([H])([H])C([H])([H])[H])c(N([H])[H])c1[H]


 26 28  0  0  0  0  0  0  0  0999 V2000
   43.3996   13.6572  -13.5547 C   0  0  0  0  0  0  0  0  0  0  0  0
   43.9793   13.2527  -14.7272 C   0  0  0  0  0  0  0  0  0  0  0  0
   43.2281   13.0636  -15.8740 C   0  0  0  0  0  0  0  0  0  0  0  0
   41.8790   13.2955  -15.7984 C   0  0  0  0  0  0  0  0  0  0  0  0
   41.1154   13.1021  -16.9678 N   0  0  0  0  0  0  0  0  0  0  0  0
   41.2748   13.7039  -14.6263 C   0  0  0  0  0  0  0  0  0  0  0  0
   42.0544   13.8652  -13.5662 N   0  0  0  0  0  0  0  0  0  0  0  0
   40.5183   12.2672  -17.0599 H   0  0  0  0  0  0  0  0  0  0  0  0
   41.1543   13.7947  -17.7292 H   0  0  0  0  0  0  0  0  0  0  0  0
   44.1343   14.2121   -9.6127 N   0  0  0  0  0  0  0  0  0  0  0  0
   43.9184   12.9128  -10.2406 C   0  0  0  0  0  0  0  0  0  0  0  0
   44.5774   12.7109  -11.5456 C   0  0  0  0  0  0  0  0  0  0  0  0
   44.1480   13.8481  -12.3893 N   0  0  0  0  0  0  0  0  0  0  0  0
   44.5710   15.1119  -11.9007 C   0  0  0  0  0  0  0  0  0  0  0  0
   44.1105   15.3225  -10.4762 C   0  0  0  0  0  0  0  0  0  0  0  0
   43.0932   14.2924   -8.6250 C   0  0  0  0  0  0  0  0  0  0  0  0
   42.8181   13.2124   -7.7019 C   0  0  0  0  0  0  0  0  0  0  0  0
   41.4556   12.7267   -7.4164 C   0  0  0  0  0  0  0  0  0  0  0  0
   41.7439   11.6435   -6.3531 C   0  0  0  0  0  0  0  0  0  0  0  0
   42.8859   12.2021   -5.5409 C   0  0  0  0  0  0  0  0  0  0  0  0
   43.5048   13.3418   -6.3418 C   0  0  0  0  0  0  0  0  0  0  0  0
   39.8304   13.9372  -14.5988 C   0  0  0  0  0  0  0  0  0  0  0  0
   39.3869   15.0689  -14.8963 O   0  0  0  0  0  0  0  0  0  0  0  0
   38.8695   12.8860  -14.2326 C   0  0  0  0  0  0  0  0  0  0  0  0
   37.6851   12.8379  -15.1722 C   0  0  0  0  0  0  0  0  0  0  0  0
   37.7533   11.6871  -16.1262 C   0  0  0  0  0  0  0  0  0  0  0  0
 17 16  1  0  0  0
 16 10  1  0  0  0
 10 11  1  0  0  0
 11 12  1  0  0  0
 12 13  1  0  0  0
 13  1  1  0  0  0
  1  2  2  0  0  0
  2  3  1  0  0  0
  3  4  2  0  0  0
  4  5  1  0  0  0
  4  6  1  0  0  0
  6 22  1  0  0  0
 22 24  1  0  0  0
 24 25  1  0  0  0
 25 26  1  0  0  0
 22 23  2  0  0  0
  6  7  2  0  0  0
 13 14  1  0  0  0
 14 15  1  0  0  0
 17 18  1  0  0  0
 18 19  1  0  0  0
 19 20  1  0  0  0
 20 21  1  0  0  0
 21 17  1  0  0  0
 15 10  1  0  0  0
  7  1  1  0  0  0
  5  8  1  0  0  0
  5  9  1  0  0  0
M  END
> <minimizedAffinity>
-5.85073

> <CNNscore>
0.2812649012

> <CNNaffinity>
5.3915076256

> <CNN_VS>
1.5164418221

> <CNNaffinity_variance>
0.0976834446

$$$$
[H]c1c(N2C([H])([H])C([H])([H])N(C([H])([H])C3([H])C([H])([H])C([H])([H])C([H])([H])C3([H])[H])C([H])([H])C2([H])[H])nc(C(=O)C([H])([H])C([H])([H])C([H])([H])[H])c(N([H])[H])c1[H]


 26 28  0  0  0  0  0  0  0  0999 V2000
   35.7717   12.0582  -15.0210 C   0  0  0  0  0  0  0  0  0  0  0  0
   34.9461   11.6301  -16.0257 C   0  0  0  0  0  0  0  0  0  0  0  0
   35.4549   11.1237  -17.2089 C   0  0  0  0  0  0  0  0  0  0  0  0
   36.8179   11.0639  -17.3434 C   0  0  0  0  0  0  0  0  0  0  0  0
   37.3342   10.5479  -18.5498 N   0  0  0  0  0  0  0  0  0  0  0  0
   37.6679   11.4901  -16.3427 C   0  0  0  0  0  0  0  0  0  0  0  0
   37.1125   11.9640  -15.2361 N   0  0  0  0  0  0  0  0  0  0  0  0
   37.7368   11.1861  -19.2516 H   0  0  0  0  0  0  0  0  0  0  0  0
   37.3091    9.5339  -18.7292 H   0  0  0  0  0  0  0  0  0  0  0  0
   35.3041   14.6636  -11.9583 N   0  0  0  0  0  0  0  0  0  0  0  0
   34.6163   14.7610  -13.2415 C   0  0  0  0  0  0  0  0  0  0  0  0
   34.1082   13.4918  -13.7976 C   0  0  0  0  0  0  0  0  0  0  0  0
   35.2691   12.5746  -13.8228 N   0  0  0  0  0  0  0  0  0  0  0  0
   35.7944   12.2845  -12.5365 C   0  0  0  0  0  0  0  0  0  0  0  0
   36.1556   13.5550  -11.8010 C   0  0  0  0  0  0  0  0  0  0  0  0
   36.0295   15.9009  -11.8639 C   0  0  0  0  0  0  0  0  0  0  0  0
   37.0442   16.1276  -10.8574 C   0  0  0  0  0  0  0  0  0  0  0  0
   37.0731   17.3278  -10.0015 C   0  0  0  0  0  0  0  0  0  0  0  0
   38.3601   17.0777   -9.1840 C   0  0  0  0  0  0  0  0  0  0  0  0
   39.3067   16.4192  -10.1566 C   0  0  0  0  0  0  0  0  0  0  0  0
   38.4813   15.9291  -11.3406 C   0  0  0  0  0  0  0  0  0  0  0  0
   39.1159   11.4053  -16.5369 C   0  0  0  0  0  0  0  0  0  0  0  0
   39.5957   10.4236  -17.1467 O   0  0  0  0  0  0  0  0  0  0  0  0
   40.0390   12.4367  -16.0404 C   0  0  0  0  0  0  0  0  0  0  0  0
   40.3030   13.5143  -17.0685 C   0  0  0  0  0  0  0  0  0  0  0  0
   40.3639   12.9766  -18.4636 C   0  0  0  0  0  0  0  0  0  0  0  0
 17 16  1  0  0  0
 16 10  1  0  0  0
 10 11  1  0  0  0
 11 12  1  0  0  0
 12 13  1  0  0  0
 13  1  1  0  0  0
  1  2  2  0  0  0
  2  3  1  0  0  0
  3  4  2  0  0  0
  4  5  1  0  0  0
  4  6  1  0  0  0
  6 22  1  0  0  0
 22 24  1  0  0  0
 24 25  1  0  0  0
 25 26  1  0  0  0
 22 23  2  0  0  0
  6  7  2  0  0  0
 13 14  1  0  0  0
 14 15  1  0  0  0
 17 18  1  0  0  0
 18 19  1  0  0  0
 19 20  1  0  0  0
 20 21  1  0  0  0
 21 17  1  0  0  0
 15 10  1  0  0  0
  7  1  1  0  0  0
  5  8  1  0  0  0
  5  9  1  0  0  0
M  END
> <minimizedAffinity>
-6.69303

> <CNNscore>
0.2305525541

> <CNNaffinity>
6.3220701218

> <CNN_VS>
1.4575693607

> <CNNaffinity_variance>
0.1798427999

$$$$
[H]c1c(N2C([H])([H])C([H])([H])N(C([H])([H])C3([H])C([H])([H])C([H])([H])C([H])([H])C3([H])[H])C([H])([H])C2([H])[H])nc(C(=O)C([H])([H])C([H])([H])C([H])([H])[H])c(N([H])[H])c1[H]


 26 28  0  0  0  0  0  0  0  0999 V2000
   41.6365   12.8614  -15.9225 C   0  0  0  0  0  0  0  0  0  0  0  0
   41.8032   12.2352  -17.1285 C   0  0  0  0  0  0  0  0  0  0  0  0
   40.7479   11.6048  -17.7643 C   0  0  0  0  0  0  0  0  0  0  0  0
   39.5247   11.6277  -17.1454 C   0  0  0  0  0  0  0  0  0  0  0  0
   38.4509   10.9847  -17.7947 N   0  0  0  0  0  0  0  0  0  0  0  0
   39.3353   12.2535  -15.9296 C   0  0  0  0  0  0  0  0  0  0  0  0
   40.3896   12.8372  -15.3771 N   0  0  0  0  0  0  0  0  0  0  0  0
   38.1132   10.0738  -17.4510 H   0  0  0  0  0  0  0  0  0  0  0  0
   38.0044   11.4253  -18.6117 H   0  0  0  0  0  0  0  0  0  0  0  0
   45.0153   13.2288  -13.7234 N   0  0  0  0  0  0  0  0  0  0  0  0
   44.9848   12.9570  -15.1567 C   0  0  0  0  0  0  0  0  0  0  0  0
   43.9966   13.7268  -15.9371 C   0  0  0  0  0  0  0  0  0  0  0  0
   42.6961   13.4984  -15.2694 N   0  0  0  0  0  0  0  0  0  0  0  0
   42.6456   13.9864  -13.9375 C   0  0  0  0  0  0  0  0  0  0  0  0
   43.7637   13.4015  -13.1048 C   0  0  0  0  0  0  0  0  0  0  0  0
   45.7209   12.1024  -13.1762 C   0  0  0  0  0  0  0  0  0  0  0  0
   46.5716   12.2145  -12.0110 C   0  0  0  0  0  0  0  0  0  0  0  0
   46.1325   11.8337  -10.6559 C   0  0  0  0  0  0  0  0  0  0  0  0
   47.3805   12.2061   -9.8246 C   0  0  0  0  0  0  0  0  0  0  0  0
   47.9134   13.4571  -10.4779 C   0  0  0  0  0  0  0  0  0  0  0  0
   47.2699   13.5659  -11.8553 C   0  0  0  0  0  0  0  0  0  0  0  0
   38.0091   12.2485  -15.3110 C   0  0  0  0  0  0  0  0  0  0  0  0
   37.0157   12.5945  -15.9887 O   0  0  0  0  0  0  0  0  0  0  0  0
   37.7939   11.8493  -13.9121 C   0  0  0  0  0  0  0  0  0  0  0  0
   37.0231   12.8896  -13.1301 C   0  0  0  0  0  0  0  0  0  0  0  0
   37.8538   14.0870  -12.7904 C   0  0  0  0  0  0  0  0  0  0  0  0
 17 16  1  0  0  0
 16 10  1  0  0  0
 10 11  1  0  0  0
 11 12  1  0  0  0
 12 13  1  0  0  0
 13  1  1  0  0  0
  1  2  2  0  0  0
  2  3  1  0  0  0
  3  4  2  0  0  0
  4  5  1  0  0  0
  4  6  1  0  0  0
  6 22  1  0  0  0
 22 24  1  0  0  0
 24 25  1  0  0  0
 25 26  1  0  0  0
 22 23  2  0  0  0
  6  7  2  0  0  0
 13 14  1  0  0  0
 14 15  1  0  0  0
 17 18  1  0  0  0
 18 19  1  0  0  0
 19 20  1  0  0  0
 20 21  1  0  0  0
 21 17  1  0  0  0
 15 10  1  0  0  0
  7  1  1  0  0  0
  5  8  1  0  0  0
  5  9  1  0  0  0
M  END
> <minimizedAffinity>
-5.84028

> <CNNscore>
0.1371708959

> <CNNaffinity>
5.7361974716

> <CNN_VS>
0.7868393660

> <CNNaffinity_variance>
0.0376267396

$$$$
[H]c1c(N2C([H])([H])C([H])([H])N(C([H])([H])C3([H])C([H])([H])C([H])([H])C([H])([H])C3([H])[H])C([H])([H])C2([H])[H])nc(C(=O)C([H])([H])C([H])([H])C([H])([H])[H])c(N([H])[H])c1[H]


 26 28  0  0  0  0  0  0  0  0999 V2000
   35.8681   15.4146  -11.8226 C   0  0  0  0  0  0  0  0  0  0  0  0
   34.5729   15.7365  -11.5175 C   0  0  0  0  0  0  0  0  0  0  0  0
   33.5092   15.1278  -12.1604 C   0  0  0  0  0  0  0  0  0  0  0  0
   33.7950   14.1878  -13.1167 C   0  0  0  0  0  0  0  0  0  0  0  0
   32.7099   13.5690  -13.7707 N   0  0  0  0  0  0  0  0  0  0  0  0
   35.0937   13.8487  -13.4392 C   0  0  0  0  0  0  0  0  0  0  0  0
   36.0637   14.4711  -12.7842 N   0  0  0  0  0  0  0  0  0  0  0  0
   32.4718   13.8361  -14.7370 H   0  0  0  0  0  0  0  0  0  0  0  0
   32.1560   12.8505  -13.2829 H   0  0  0  0  0  0  0  0  0  0  0  0
   38.6474   16.0779   -8.9551 N   0  0  0  0  0  0  0  0  0  0  0  0
   38.7808   15.0974  -10.0275 C   0  0  0  0  0  0  0  0  0  0  0  0
   38.3365   15.5400  -11.3635 C   0  0  0  0  0  0  0  0  0  0  0  0
   36.9505   16.0254  -11.1821 N   0  0  0  0  0  0  0  0  0  0  0  0
   36.8476   17.1460  -10.3170 C   0  0  0  0  0  0  0  0  0  0  0  0
   37.4716   16.8499   -8.9722 C   0  0  0  0  0  0  0  0  0  0  0  0
   38.7411   15.2896   -7.7569 C   0  0  0  0  0  0  0  0  0  0  0  0
   39.7244   14.2401   -7.5965 C   0  0  0  0  0  0  0  0  0  0  0  0
   39.5035   13.0548   -6.7477 C   0  0  0  0  0  0  0  0  0  0  0  0
   40.8577   12.3263   -6.8981 C   0  0  0  0  0  0  0  0  0  0  0  0
   41.8800   13.4336   -6.9656 C   0  0  0  0  0  0  0  0  0  0  0  0
   41.1349   14.7290   -7.2656 C   0  0  0  0  0  0  0  0  0  0  0  0
   35.3446   12.8390  -14.4683 C   0  0  0  0  0  0  0  0  0  0  0  0
   34.7427   11.7434  -14.4112 O   0  0  0  0  0  0  0  0  0  0  0  0
   36.2838   13.0615  -15.5778 C   0  0  0  0  0  0  0  0  0  0  0  0
   37.4812   12.1397  -15.5102 C   0  0  0  0  0  0  0  0  0  0  0  0
   37.9597   11.9191  -14.1097 C   0  0  0  0  0  0  0  0  0  0  0  0
 17 16  1  0  0  0
 16 10  1  0  0  0
 10 11  1  0  0  0
 11 12  1  0  0  0
 12 13  1  0  0  0
 13  1  1  0  0  0
  1  2  2  0  0  0
  2  3  1  0  0  0
  3  4  2  0  0  0
  4  5  1  0  0  0
  4  6  1  0  0  0
  6 22  1  0  0  0
 22 24  1  0  0  0
 24 25  1  0  0  0
 25 26  1  0  0  0
 22 23  2  0  0  0
  6  7  2  0  0  0
 13 14  1  0  0  0
 14 15  1  0  0  0
 17 18  1  0  0  0
 18 19  1  0  0  0
 19 20  1  0  0  0
 20 21  1  0  0  0
 21 17  1  0  0  0
 15 10  1  0  0  0
  7  1  1  0  0  0
  5  8  1  0  0  0
  5  9  1  0  0  0
M  END
> <minimizedAffinity>
-6.23373

> <CNNscore>
0.1263393015

> <CNNaffinity>
5.3483352661

> <CNN_VS>
0.6757049561

> <CNNaffinity_variance>
0.2373110354

$$$$
[H]c1nc2c(nc([H])c(=O)n2[H])c(Oc2c([H])c([H])c(N([H])C(=O)N([H])c3c([H])c(C(C([H])([H])[H])(C([H])([H])[H])C([H])([H])[H])nn3-c3c([H])c([H])c(OC([H])([H])[H])c([H])c3[H])c3c([H])c([H])c([H])c([H])c23)c1[H]


 46 51  0  0  0  0  0  0  0  0999 V2000
   35.3350   15.7123   -9.1584 N   0  0  0  0  0  0  0  0  0  0  0  0
   36.3971   14.7518   -9.3459 C   0  0  0  0  0  0  0  0  0  0  0  0
   36.7055   14.0140   -8.4271 O   0  0  0  0  0  0  0  0  0  0  0  0
   37.0569   14.6867  -10.5653 N   0  0  0  0  0  0  0  0  0  0  0  0
   35.1231   16.3418  -10.0220 H   0  0  0  0  0  0  0  0  0  0  0  0
   38.1745   14.2047   -9.9108 H   0  0  0  0  0  0  0  0  0  0  0  0
   37.6953   14.6184  -11.7334 C   0  0  0  0  0  0  0  0  0  0  0  0
   38.8843   15.3628  -11.9273 C   0  0  0  0  0  0  0  0  0  0  0  0
   39.6098   15.3009  -13.0442 C   0  0  0  0  0  0  0  0  0  0  0  0
   39.1985   14.4635  -14.1049 C   0  0  0  0  0  0  0  0  0  0  0  0
   38.0813   13.7384  -13.9514 C   0  0  0  0  0  0  0  0  0  0  0  0
   37.7026   12.8901  -14.9853 C   0  0  0  0  0  0  0  0  0  0  0  0
   36.5899   12.1042  -14.8966 C   0  0  0  0  0  0  0  0  0  0  0  0
   35.8484   12.1642  -13.7511 C   0  0  0  0  0  0  0  0  0  0  0  0
   36.2148   13.0004  -12.7241 C   0  0  0  0  0  0  0  0  0  0  0  0
   37.3299   13.8042  -12.7858 C   0  0  0  0  0  0  0  0  0  0  0  0
   40.0557   14.5462  -15.1801 O   0  0  0  0  0  0  0  0  0  0  0  0
   40.4575   13.5602  -16.0287 C   0  0  0  0  0  0  0  0  0  0  0  0
   39.6993   12.8936  -16.9384 C   0  0  0  0  0  0  0  0  0  0  0  0
   40.2275   11.8911  -17.7733 C   0  0  0  0  0  0  0  0  0  0  0  0
   41.5161   11.6037  -17.6572 N   0  0  0  0  0  0  0  0  0  0  0  0
   42.3202   12.2408  -16.7703 C   0  0  0  0  0  0  0  0  0  0  0  0
   43.6348   11.9277  -16.7441 N   0  0  0  0  0  0  0  0  0  0  0  0
   44.4673   12.5619  -15.9013 C   0  0  0  0  0  0  0  0  0  0  0  0
   45.6951   12.2875  -15.8788 O   0  0  0  0  0  0  0  0  0  0  0  0
   43.9302   13.5549  -15.0590 C   0  0  0  0  0  0  0  0  0  0  0  0
   42.6315   13.8598  -15.0949 N   0  0  0  0  0  0  0  0  0  0  0  0
   41.8186   13.2113  -15.9516 C   0  0  0  0  0  0  0  0  0  0  0  0
   44.0067   11.1929  -17.3783 H   0  0  0  0  0  0  0  0  0  0  0  0
   34.6173   16.2419   -6.7712 N   0  0  0  0  0  0  0  0  0  0  0  0
   33.4051   16.5277   -6.2562 N   0  0  0  0  0  0  0  0  0  0  0  0
   32.4601   16.4359   -7.1540 C   0  0  0  0  0  0  0  0  0  0  0  0
   33.1021   16.0615   -8.3172 C   0  0  0  0  0  0  0  0  0  0  0  0
   34.5161   15.9379   -8.0693 C   0  0  0  0  0  0  0  0  0  0  0  0
   37.9863   16.5537   -4.2139 C   0  0  0  0  0  0  0  0  0  0  0  0
   36.8713   15.8315   -3.8615 C   0  0  0  0  0  0  0  0  0  0  0  0
   35.7902   15.7065   -4.6936 C   0  0  0  0  0  0  0  0  0  0  0  0
   35.7561   16.2767   -5.9088 C   0  0  0  0  0  0  0  0  0  0  0  0
   36.8990   17.0232   -6.3043 C   0  0  0  0  0  0  0  0  0  0  0  0
   37.9895   17.1484   -5.4531 C   0  0  0  0  0  0  0  0  0  0  0  0
   40.4026   16.6643   -3.9352 C   0  0  0  0  0  0  0  0  0  0  0  0
   39.0775   16.6906   -3.3618 O   0  0  0  0  0  0  0  0  0  0  0  0
   30.9761   16.6972   -7.0603 C   0  0  0  0  0  0  0  0  0  0  0  0
   30.6294   17.9505   -7.8658 C   0  0  0  0  0  0  0  0  0  0  0  0
   30.1982   15.5426   -7.6493 C   0  0  0  0  0  0  0  0  0  0  0  0
   30.5434   16.8953   -5.6568 C   0  0  0  0  0  0  0  0  0  0  0  0
 41 42  1  0  0  0
 42 35  1  0  0  0
 35 36  2  0  0  0
 36 37  1  0  0  0
 37 38  2  0  0  0
 38 39  1  0  0  0
 39 40  2  0  0  0
 38 30  1  0  0  0
 30 31  1  0  0  0
 31 32  2  0  0  0
 32 33  1  0  0  0
 33 34  2  0  0  0
 34  1  1  0  0  0
  1  2  1  0  0  0
  2  3  2  0  0  0
  2  4  1  0  0  0
  4  7  1  0  0  0
  7  8  2  0  0  0
  8  9  1  0  0  0
  9 10  2  0  0  0
 10 17  1  0  0  0
 17 18  1  0  0  0
 18 19  2  0  0  0
 19 20  1  0  0  0
 20 21  2  0  0  0
 21 22  1  0  0  0
 22 23  1  0  0  0
 23 24  1  0  0  0
 24 25  2  0  0  0
 24 26  1  0  0  0
 26 27  2  0  0  0
 27 28  1  0  0  0
 10 11  1  0  0  0
 11 12  2  0  0  0
 12 13  1  0  0  0
 13 14  2  0  0  0
 14 15  1  0  0  0
 15 16  2  0  0  0
 32 43  1  0  0  0
 43 44  1  0  0  0
 43 45  1  0  0  0
 43 46  1  0  0  0
 40 35  1  0  0  0
 34 30  1  0  0  0
 16  7  1  0  0  0
 28 18  1  0  0  0
 16 11  1  0  0  0
 28 22  2  0  0  0
  1  5  1  0  0  0
  4  6  1  0  0  0
 23 29  1  0  0  0
M  END
> <minimizedAffinity>
-9.29801

> <CNNscore>
0.1029262915

> <CNNaffinity>
7.0198678970

> <CNN_VS>
0.7225289941

> <CNNaffinity_variance>
0.1435009539

$$$$
[H]c1nc2c(nc([H])c(=O)n2[H])c(Oc2c([H])c([H])c(N([H])C(=O)N([H])c3c([H])c(C(C([H])([H])[H])(C([H])([H])[H])C([H])([H])[H])nn3-c3c([H])c([H])c(OC([H])([H])[H])c([H])c3[H])c3c([H])c([H])c([H])c([H])c23)c1[H]


 46 51  0  0  0  0  0  0  0  0999 V2000
   36.9496   17.8839   -8.3231 N   0  0  0  0  0  0  0  0  0  0  0  0
   37.5188   17.8835   -9.6504 C   0  0  0  0  0  0  0  0  0  0  0  0
   38.0249   18.9027  -10.0846 O   0  0  0  0  0  0  0  0  0  0  0  0
   37.4753   16.7265  -10.4160 N   0  0  0  0  0  0  0  0  0  0  0  0
   36.5082   16.9387   -8.0089 H   0  0  0  0  0  0  0  0  0  0  0  0
   37.4986   17.5059  -11.5568 H   0  0  0  0  0  0  0  0  0  0  0  0
   37.4371   15.6193  -11.1572 C   0  0  0  0  0  0  0  0  0  0  0  0
   36.2960   14.7822  -11.1091 C   0  0  0  0  0  0  0  0  0  0  0  0
   36.1589   13.6916  -11.8638 C   0  0  0  0  0  0  0  0  0  0  0  0
   37.1844   13.3250  -12.7634 C   0  0  0  0  0  0  0  0  0  0  0  0
   38.2755   14.1002  -12.8402 C   0  0  0  0  0  0  0  0  0  0  0  0
   39.2643   13.7527  -13.7532 C   0  0  0  0  0  0  0  0  0  0  0  0
   40.3949   14.5024  -13.9056 C   0  0  0  0  0  0  0  0  0  0  0  0
   40.5342   15.6219  -13.1356 C   0  0  0  0  0  0  0  0  0  0  0  0
   39.5623   15.9729  -12.2298 C   0  0  0  0  0  0  0  0  0  0  0  0
   38.4134   15.2362  -12.0540 C   0  0  0  0  0  0  0  0  0  0  0  0
   36.8778   12.1641  -13.4386 O   0  0  0  0  0  0  0  0  0  0  0  0
   35.9571   11.9667  -14.4220 C   0  0  0  0  0  0  0  0  0  0  0  0
   34.6095   12.1180  -14.3341 C   0  0  0  0  0  0  0  0  0  0  0  0
   33.7506   11.8916  -15.4259 C   0  0  0  0  0  0  0  0  0  0  0  0
   34.2954   11.5226  -16.5764 N   0  0  0  0  0  0  0  0  0  0  0  0
   35.6340   11.3617  -16.7220 C   0  0  0  0  0  0  0  0  0  0  0  0
   36.1200   11.0317  -17.9392 N   0  0  0  0  0  0  0  0  0  0  0  0
   37.4435   10.8961  -18.1282 C   0  0  0  0  0  0  0  0  0  0  0  0
   37.9069   10.6026  -19.2606 O   0  0  0  0  0  0  0  0  0  0  0  0
   38.2968   11.1110  -17.0284 C   0  0  0  0  0  0  0  0  0  0  0  0
   37.8078   11.4405  -15.8313 N   0  0  0  0  0  0  0  0  0  0  0  0
   36.4768   11.5733  -15.6691 C   0  0  0  0  0  0  0  0  0  0  0  0
   35.4688   10.8813  -18.7355 H   0  0  0  0  0  0  0  0  0  0  0  0
   37.5752   19.2705   -6.2786 N   0  0  0  0  0  0  0  0  0  0  0  0
   37.1490   20.4815   -5.8686 N   0  0  0  0  0  0  0  0  0  0  0  0
   36.2058   20.9532   -6.6401 C   0  0  0  0  0  0  0  0  0  0  0  0
   36.0075   19.9836   -7.6024 C   0  0  0  0  0  0  0  0  0  0  0  0
   36.9068   18.8821   -7.3694 C   0  0  0  0  0  0  0  0  0  0  0  0
   40.4928   17.1261   -4.0702 C   0  0  0  0  0  0  0  0  0  0  0  0
   40.8255   17.8889   -5.1641 C   0  0  0  0  0  0  0  0  0  0  0  0
   39.8913   18.6037   -5.8663 C   0  0  0  0  0  0  0  0  0  0  0  0
   38.5928   18.6085   -5.5248 C   0  0  0  0  0  0  0  0  0  0  0  0
   38.2199   17.8352   -4.3921 C   0  0  0  0  0  0  0  0  0  0  0  0
   39.1726   17.1101   -3.6878 C   0  0  0  0  0  0  0  0  0  0  0  0
   42.8208   16.8117   -3.4300 C   0  0  0  0  0  0  0  0  0  0  0  0
   41.4410   16.3903   -3.3667 O   0  0  0  0  0  0  0  0  0  0  0  0
   35.4606   22.2658   -6.6042 C   0  0  0  0  0  0  0  0  0  0  0  0
   36.1804   23.2826   -7.4918 C   0  0  0  0  0  0  0  0  0  0  0  0
   34.0599   22.0930   -7.1460 C   0  0  0  0  0  0  0  0  0  0  0  0
   35.3745   22.8081   -5.2277 C   0  0  0  0  0  0  0  0  0  0  0  0
 41 42  1  0  0  0
 42 35  1  0  0  0
 35 36  2  0  0  0
 36 37  1  0  0  0
 37 38  2  0  0  0
 38 39  1  0  0  0
 39 40  2  0  0  0
 38 30  1  0  0  0
 30 31  1  0  0  0
 31 32  2  0  0  0
 32 33  1  0  0  0
 33 34  2  0  0  0
 34  1  1  0  0  0
  1  2  1  0  0  0
  2  3  2  0  0  0
  2  4  1  0  0  0
  4  7  1  0  0  0
  7  8  2  0  0  0
  8  9  1  0  0  0
  9 10  2  0  0  0
 10 17  1  0  0  0
 17 18  1  0  0  0
 18 19  2  0  0  0
 19 20  1  0  0  0
 20 21  2  0  0  0
 21 22  1  0  0  0
 22 23  1  0  0  0
 23 24  1  0  0  0
 24 25  2  0  0  0
 24 26  1  0  0  0
 26 27  2  0  0  0
 27 28  1  0  0  0
 10 11  1  0  0  0
 11 12  2  0  0  0
 12 13  1  0  0  0
 13 14  2  0  0  0
 14 15  1  0  0  0
 15 16  2  0  0  0
 32 43  1  0  0  0
 43 44  1  0  0  0
 43 45  1  0  0  0
 43 46  1  0  0  0
 40 35  1  0  0  0
 34 30  1  0  0  0
 16  7  1  0  0  0
 28 18  1  0  0  0
 16 11  1  0  0  0
 28 22  2  0  0  0
  1  5  1  0  0  0
  4  6  1  0  0  0
 23 29  1  0  0  0
M  END
> <minimizedAffinity>
-8.96427

> <CNNscore>
0.0840467587

> <CNNaffinity>
7.0781593323

> <CNN_VS>
0.5948963761

> <CNNaffinity_variance>
0.1496234089

$$$$
[H]c1nc2c(nc([H])c(=O)n2[H])c(Oc2c([H])c([H])c(N([H])C(=O)N([H])c3c([H])c(C(C([H])([H])[H])(C([H])([H])[H])C([H])([H])[H])nn3-c3c([H])c([H])c(OC([H])([H])[H])c([H])c3[H])c3c([H])c([H])c([H])c([H])c23)c1[H]


 46 51  0  0  0  0  0  0  0  0999 V2000
   35.7805   16.3171   -8.8041 N   0  0  0  0  0  0  0  0  0  0  0  0
   36.2723   15.0442   -9.2771 C   0  0  0  0  0  0  0  0  0  0  0  0
   36.0092   14.0319   -8.6530 O   0  0  0  0  0  0  0  0  0  0  0  0
   37.0432   14.9913  -10.4302 N   0  0  0  0  0  0  0  0  0  0  0  0
   36.0643   17.1767   -9.4104 H   0  0  0  0  0  0  0  0  0  0  0  0
   37.6474   13.8458   -9.9481 H   0  0  0  0  0  0  0  0  0  0  0  0
   37.7844   14.9325  -11.5364 C   0  0  0  0  0  0  0  0  0  0  0  0
   38.9346   15.7500  -11.6542 C   0  0  0  0  0  0  0  0  0  0  0  0
   39.7574   15.7050  -12.7024 C   0  0  0  0  0  0  0  0  0  0  0  0
   39.4960   14.8110  -13.7643 C   0  0  0  0  0  0  0  0  0  0  0  0
   38.4193   14.0164  -13.6813 C   0  0  0  0  0  0  0  0  0  0  0  0
   38.1885   13.1144  -14.7134 C   0  0  0  0  0  0  0  0  0  0  0  0
   37.1260   12.2576  -14.6925 C   0  0  0  0  0  0  0  0  0  0  0  0
   36.2849   12.3005  -13.6172 C   0  0  0  0  0  0  0  0  0  0  0  0
   36.5047   13.1893  -12.5925 C   0  0  0  0  0  0  0  0  0  0  0  0
   37.5662   14.0650  -12.5871 C   0  0  0  0  0  0  0  0  0  0  0  0
   40.4366   14.9203  -14.7647 O   0  0  0  0  0  0  0  0  0  0  0  0
   41.4464   14.0645  -15.0836 C   0  0  0  0  0  0  0  0  0  0  0  0
   42.6161   13.8821  -14.4164 C   0  0  0  0  0  0  0  0  0  0  0  0
   43.5902   12.9574  -14.8373 C   0  0  0  0  0  0  0  0  0  0  0  0
   43.3371   12.2429  -15.9246 N   0  0  0  0  0  0  0  0  0  0  0  0
   42.1846   12.3802  -16.6259 C   0  0  0  0  0  0  0  0  0  0  0  0
   41.9764   11.5814  -17.6961 N   0  0  0  0  0  0  0  0  0  0  0  0
   40.8318   11.6668  -18.3949 C   0  0  0  0  0  0  0  0  0  0  0  0
   40.6225   10.9182  -19.3844 O   0  0  0  0  0  0  0  0  0  0  0  0
   39.8666   12.6034  -17.9766 C   0  0  0  0  0  0  0  0  0  0  0  0
   40.0796   13.3851  -16.9162 N   0  0  0  0  0  0  0  0  0  0  0  0
   41.2345   13.2773  -16.2306 C   0  0  0  0  0  0  0  0  0  0  0  0
   42.7037   10.8961  -17.9824 H   0  0  0  0  0  0  0  0  0  0  0  0
   33.7270   16.3954   -7.2971 N   0  0  0  0  0  0  0  0  0  0  0  0
   33.5825   16.8065   -6.0218 N   0  0  0  0  0  0  0  0  0  0  0  0
   34.6904   17.3069   -5.5425 C   0  0  0  0  0  0  0  0  0  0  0  0
   35.6028   17.2188   -6.5746 C   0  0  0  0  0  0  0  0  0  0  0  0
   34.9744   16.6181   -7.7237 C   0  0  0  0  0  0  0  0  0  0  0  0
   30.4953   14.7095   -9.4654 C   0  0  0  0  0  0  0  0  0  0  0  0
   30.8427   14.2608   -8.2136 C   0  0  0  0  0  0  0  0  0  0  0  0
   31.8695   14.8179   -7.4980 C   0  0  0  0  0  0  0  0  0  0  0  0
   32.5962   15.8422   -7.9732 C   0  0  0  0  0  0  0  0  0  0  0  0
   32.2545   16.3333   -9.2623 C   0  0  0  0  0  0  0  0  0  0  0  0
   31.2144   15.7603   -9.9831 C   0  0  0  0  0  0  0  0  0  0  0  0
   29.2926   14.5283  -11.5747 C   0  0  0  0  0  0  0  0  0  0  0  0
   29.4609   14.1334  -10.1959 O   0  0  0  0  0  0  0  0  0  0  0  0
   35.0212   17.8491   -4.1728 C   0  0  0  0  0  0  0  0  0  0  0  0
   33.7248   18.1766   -3.4298 C   0  0  0  0  0  0  0  0  0  0  0  0
   35.7672   16.8146   -3.3613 C   0  0  0  0  0  0  0  0  0  0  0  0
   35.8486   19.0758   -4.2555 C   0  0  0  0  0  0  0  0  0  0  0  0
 41 42  1  0  0  0
 42 35  1  0  0  0
 35 36  2  0  0  0
 36 37  1  0  0  0
 37 38  2  0  0  0
 38 39  1  0  0  0
 39 40  2  0  0  0
 38 30  1  0  0  0
 30 31  1  0  0  0
 31 32  2  0  0  0
 32 33  1  0  0  0
 33 34  2  0  0  0
 34  1  1  0  0  0
  1  2  1  0  0  0
  2  3  2  0  0  0
  2  4  1  0  0  0
  4  7  1  0  0  0
  7  8  2  0  0  0
  8  9  1  0  0  0
  9 10  2  0  0  0
 10 17  1  0  0  0
 17 18  1  0  0  0
 18 19  2  0  0  0
 19 20  1  0  0  0
 20 21  2  0  0  0
 21 22  1  0  0  0
 22 23  1  0  0  0
 23 24  1  0  0  0
 24 25  2  0  0  0
 24 26  1  0  0  0
 26 27  2  0  0  0
 27 28  1  0  0  0
 10 11  1  0  0  0
 11 12  2  0  0  0
 12 13  1  0  0  0
 13 14  2  0  0  0
 14 15  1  0  0  0
 15 16  2  0  0  0
 32 43  1  0  0  0
 43 44  1  0  0  0
 43 45  1  0  0  0
 43 46  1  0  0  0
 40 35  1  0  0  0
 34 30  1  0  0  0
 16  7  1  0  0  0
 28 18  1  0  0  0
 16 11  1  0  0  0
 28 22  2  0  0  0
  1  5  1  0  0  0
  4  6  1  0  0  0
 23 29  1  0  0  0
M  END
> <minimizedAffinity>
-8.91535

> <CNNscore>
0.0822085664

> <CNNaffinity>
6.9497632980

> <CNN_VS>
0.5713300705

> <CNNaffinity_variance>
0.1110156626

$$$$
[H]c1nc2c(nc([H])c(=O)n2[H])c(Oc2c([H])c([H])c(N([H])C(=O)N([H])c3c([H])c(C(C([H])([H])[H])(C([H])([H])[H])C([H])([H])[H])nn3-c3c([H])c([H])c(OC([H])([H])[H])c([H])c3[H])c3c([H])c([H])c([H])c([H])c23)c1[H]


 46 51  0  0  0  0  0  0  0  0999 V2000
   36.0678   16.3060   -8.9467 N   0  0  0  0  0  0  0  0  0  0  0  0
   36.4985   15.0064   -9.4062 C   0  0  0  0  0  0  0  0  0  0  0  0
   36.2787   14.0256   -8.7183 O   0  0  0  0  0  0  0  0  0  0  0  0
   37.1629   14.8923  -10.6196 N   0  0  0  0  0  0  0  0  0  0  0  0
   36.3079   17.1347   -9.6121 H   0  0  0  0  0  0  0  0  0  0  0  0
   37.7923   13.7578  -10.1441 H   0  0  0  0  0  0  0  0  0  0  0  0
   37.8016   14.7749  -11.7836 C   0  0  0  0  0  0  0  0  0  0  0  0
   39.0026   15.4934  -12.0001 C   0  0  0  0  0  0  0  0  0  0  0  0
   39.7284   15.3827  -13.1130 C   0  0  0  0  0  0  0  0  0  0  0  0
   39.3052   14.5170  -14.1458 C   0  0  0  0  0  0  0  0  0  0  0  0
   38.1765   13.8152  -13.9703 C   0  0  0  0  0  0  0  0  0  0  0  0
   37.7856   12.9389  -14.9759 C   0  0  0  0  0  0  0  0  0  0  0  0
   36.6604   12.1742  -14.8631 C   0  0  0  0  0  0  0  0  0  0  0  0
   35.9185   12.2843  -13.7216 C   0  0  0  0  0  0  0  0  0  0  0  0
   36.2967   13.1484  -12.7224 C   0  0  0  0  0  0  0  0  0  0  0  0
   37.4246   13.9319  -12.8089 C   0  0  0  0  0  0  0  0  0  0  0  0
   40.1650   14.5500  -15.2216 O   0  0  0  0  0  0  0  0  0  0  0  0
   40.5394   13.5333  -16.0462 C   0  0  0  0  0  0  0  0  0  0  0  0
   39.7538   12.8398  -16.9114 C   0  0  0  0  0  0  0  0  0  0  0  0
   40.2547   11.8064  -17.7252 C   0  0  0  0  0  0  0  0  0  0  0  0
   41.5448   11.5165  -17.6342 N   0  0  0  0  0  0  0  0  0  0  0  0
   42.3755   12.1795  -16.7920 C   0  0  0  0  0  0  0  0  0  0  0  0
   43.6889   11.8607  -16.7906 N   0  0  0  0  0  0  0  0  0  0  0  0
   44.5468   12.5192  -15.9931 C   0  0  0  0  0  0  0  0  0  0  0  0
   45.7736   12.2393  -15.9945 O   0  0  0  0  0  0  0  0  0  0  0  0
   44.0371   13.5433  -15.1714 C   0  0  0  0  0  0  0  0  0  0  0  0
   42.7393   13.8535  -15.1826 N   0  0  0  0  0  0  0  0  0  0  0  0
   41.9005   13.1801  -15.9940 C   0  0  0  0  0  0  0  0  0  0  0  0
   44.0403   11.1025  -17.4089 H   0  0  0  0  0  0  0  0  0  0  0  0
   34.2059   16.3861   -7.2086 N   0  0  0  0  0  0  0  0  0  0  0  0
   34.1679   16.9383   -5.9798 N   0  0  0  0  0  0  0  0  0  0  0  0
   35.2654   17.5922   -5.7051 C   0  0  0  0  0  0  0  0  0  0  0  0
   36.0562   17.4588   -6.8286 C   0  0  0  0  0  0  0  0  0  0  0  0
   35.3652   16.6654   -7.8132 C   0  0  0  0  0  0  0  0  0  0  0  0
   30.7456   14.2334   -8.3832 C   0  0  0  0  0  0  0  0  0  0  0  0
   31.1691   15.3526   -9.0593 C   0  0  0  0  0  0  0  0  0  0  0  0
   32.2998   16.0376   -8.7000 C   0  0  0  0  0  0  0  0  0  0  0  0
   33.0685   15.6534   -7.6683 C   0  0  0  0  0  0  0  0  0  0  0  0
   32.6601   14.4939   -6.9551 C   0  0  0  0  0  0  0  0  0  0  0  0
   31.5101   13.8073   -7.3234 C   0  0  0  0  0  0  0  0  0  0  0  0
   28.9893   12.6620   -7.7713 C   0  0  0  0  0  0  0  0  0  0  0  0
   29.5896   13.5472   -8.7415 O   0  0  0  0  0  0  0  0  0  0  0  0
   35.6940   18.3285   -4.4587 C   0  0  0  0  0  0  0  0  0  0  0  0
   34.5313   19.1808   -3.9473 C   0  0  0  0  0  0  0  0  0  0  0  0
   36.0611   17.3494   -3.3669 C   0  0  0  0  0  0  0  0  0  0  0  0
   36.8567   19.2104   -4.7171 C   0  0  0  0  0  0  0  0  0  0  0  0
 41 42  1  0  0  0
 42 35  1  0  0  0
 35 36  2  0  0  0
 36 37  1  0  0  0
 37 38  2  0  0  0
 38 39  1  0  0  0
 39 40  2  0  0  0
 38 30  1  0  0  0
 30 31  1  0  0  0
 31 32  2  0  0  0
 32 33  1  0  0  0
 33 34  2  0  0  0
 34  1  1  0  0  0
  1  2  1  0  0  0
  2  3  2  0  0  0
  2  4  1  0  0  0
  4  7  1  0  0  0
  7  8  2  0  0  0
  8  9  1  0  0  0
  9 10  2  0  0  0
 10 17  1  0  0  0
 17 18  1  0  0  0
 18 19  2  0  0  0
 19 20  1  0  0  0
 20 21  2  0  0  0
 21 22  1  0  0  0
 22 23  1  0  0  0
 23 24  1  0  0  0
 24 25  2  0  0  0
 24 26  1  0  0  0
 26 27  2  0  0  0
 27 28  1  0  0  0
 10 11  1  0  0  0
 11 12  2  0  0  0
 12 13  1  0  0  0
 13 14  2  0  0  0
 14 15  1  0  0  0
 15 16  2  0  0  0
 32 43  1  0  0  0
 43 44  1  0  0  0
 43 45  1  0  0  0
 43 46  1  0  0  0
 40 35  1  0  0  0
 34 30  1  0  0  0
 16  7  1  0  0  0
 28 18  1  0  0  0
 16 11  1  0  0  0
 28 22  2  0  0  0
  1  5  1  0  0  0
  4  6  1  0  0  0
 23 29  1  0  0  0
M  END
> <minimizedAffinity>
-9.77461

> <CNNscore>
0.0721317455

> <CNNaffinity>
6.9274878502

> <CNN_VS>
0.4996917844

> <CNNaffinity_variance>
0.1096414104

$$$$
[H]c1nc2c(nc([H])c(=O)n2[H])c(Oc2c([H])c([H])c(N([H])C(=O)N([H])c3c([H])c(C(C([H])([H])[H])(C([H])([H])[H])C([H])([H])[H])nn3-c3c([H])c([H])c(OC([H])([H])[H])c([H])c3[H])c3c([H])c([H])c([H])c([H])c23)c1[H]


 46 51  0  0  0  0  0  0  0  0999 V2000
   36.1109   16.2527   -9.2183 N   0  0  0  0  0  0  0  0  0  0  0  0
   36.9789   15.1283   -9.4787 C   0  0  0  0  0  0  0  0  0  0  0  0
   37.1761   14.3086   -8.5997 O   0  0  0  0  0  0  0  0  0  0  0  0
   37.5825   15.0000  -10.7221 N   0  0  0  0  0  0  0  0  0  0  0  0
   35.9909   16.9465  -10.0497 H   0  0  0  0  0  0  0  0  0  0  0  0
   38.6138   14.2999  -10.1256 H   0  0  0  0  0  0  0  0  0  0  0  0
   38.1658   14.8702  -11.9135 C   0  0  0  0  0  0  0  0  0  0  0  0
   39.4051   15.5091  -12.1609 C   0  0  0  0  0  0  0  0  0  0  0  0
   40.0777   15.3785  -13.3047 C   0  0  0  0  0  0  0  0  0  0  0  0
   39.5549   14.5727  -14.3404 C   0  0  0  0  0  0  0  0  0  0  0  0
   38.3871   13.9466  -14.1364 C   0  0  0  0  0  0  0  0  0  0  0  0
   37.8967   13.1272  -15.1464 C   0  0  0  0  0  0  0  0  0  0  0  0
   36.7256   12.4397  -15.0068 C   0  0  0  0  0  0  0  0  0  0  0  0
   36.0381   12.5700  -13.8338 C   0  0  0  0  0  0  0  0  0  0  0  0
   36.5148   13.3782  -12.8299 C   0  0  0  0  0  0  0  0  0  0  0  0
   37.6909   14.0836  -12.9430 C   0  0  0  0  0  0  0  0  0  0  0  0
   40.3725   14.5752  -15.4490 O   0  0  0  0  0  0  0  0  0  0  0  0
   40.8118   13.5191  -16.1876 C   0  0  0  0  0  0  0  0  0  0  0  0
   40.0907   12.7609  -17.0547 C   0  0  0  0  0  0  0  0  0  0  0  0
   40.6559   11.6912  -17.7740 C   0  0  0  0  0  0  0  0  0  0  0  0
   41.9425   11.4320  -17.5896 N   0  0  0  0  0  0  0  0  0  0  0  0
   42.7105   12.1593  -16.7410 C   0  0  0  0  0  0  0  0  0  0  0  0
   44.0263   11.8665  -16.6428 N   0  0  0  0  0  0  0  0  0  0  0  0
   44.8242   12.5871  -15.8367 C   0  0  0  0  0  0  0  0  0  0  0  0
   46.0530   12.3314  -15.7487 O   0  0  0  0  0  0  0  0  0  0  0  0
   44.2499   13.6479  -15.1095 C   0  0  0  0  0  0  0  0  0  0  0  0
   42.9504   13.9319  -15.2160 N   0  0  0  0  0  0  0  0  0  0  0  0
   42.1726   13.1959  -16.0339 C   0  0  0  0  0  0  0  0  0  0  0  0
   44.4261   11.0801  -17.1926 H   0  0  0  0  0  0  0  0  0  0  0  0
   35.0263   17.6508   -7.3845 N   0  0  0  0  0  0  0  0  0  0  0  0
   34.1007   17.3290   -6.4592 N   0  0  0  0  0  0  0  0  0  0  0  0
   33.7902   16.0604   -6.5011 C   0  0  0  0  0  0  0  0  0  0  0  0
   34.5684   15.5312   -7.5109 C   0  0  0  0  0  0  0  0  0  0  0  0
   35.3759   16.5726   -8.0935 C   0  0  0  0  0  0  0  0  0  0  0  0
   36.3120   21.6923   -7.4013 C   0  0  0  0  0  0  0  0  0  0  0  0
   37.1952   20.6485   -7.5412 C   0  0  0  0  0  0  0  0  0  0  0  0
   36.7832   19.3422   -7.5616 C   0  0  0  0  0  0  0  0  0  0  0  0
   35.4891   19.0010   -7.4529 C   0  0  0  0  0  0  0  0  0  0  0  0
   34.5512   20.0599   -7.3154 C   0  0  0  0  0  0  0  0  0  0  0  0
   34.9776   21.3817   -7.2917 C   0  0  0  0  0  0  0  0  0  0  0  0
   36.6745   23.7239   -6.1092 C   0  0  0  0  0  0  0  0  0  0  0  0
   36.7341   23.0175   -7.3673 O   0  0  0  0  0  0  0  0  0  0  0  0
   32.7917   15.2582   -5.7018 C   0  0  0  0  0  0  0  0  0  0  0  0
   33.2778   15.1379   -4.2564 C   0  0  0  0  0  0  0  0  0  0  0  0
   31.4508   15.9557   -5.6790 C   0  0  0  0  0  0  0  0  0  0  0  0
   32.6106   13.8976   -6.2607 C   0  0  0  0  0  0  0  0  0  0  0  0
 41 42  1  0  0  0
 42 35  1  0  0  0
 35 36  2  0  0  0
 36 37  1  0  0  0
 37 38  2  0  0  0
 38 39  1  0  0  0
 39 40  2  0  0  0
 38 30  1  0  0  0
 30 31  1  0  0  0
 31 32  2  0  0  0
 32 33  1  0  0  0
 33 34  2  0  0  0
 34  1  1  0  0  0
  1  2  1  0  0  0
  2  3  2  0  0  0
  2  4  1  0  0  0
  4  7  1  0  0  0
  7  8  2  0  0  0
  8  9  1  0  0  0
  9 10  2  0  0  0
 10 17  1  0  0  0
 17 18  1  0  0  0
 18 19  2  0  0  0
 19 20  1  0  0  0
 20 21  2  0  0  0
 21 22  1  0  0  0
 22 23  1  0  0  0
 23 24  1  0  0  0
 24 25  2  0  0  0
 24 26  1  0  0  0
 26 27  2  0  0  0
 27 28  1  0  0  0
 10 11  1  0  0  0
 11 12  2  0  0  0
 12 13  1  0  0  0
 13 14  2  0  0  0
 14 15  1  0  0  0
 15 16  2  0  0  0
 32 43  1  0  0  0
 43 44  1  0  0  0
 43 45  1  0  0  0
 43 46  1  0  0  0
 40 35  1  0  0  0
 34 30  1  0  0  0
 16  7  1  0  0  0
 28 18  1  0  0  0
 16 11  1  0  0  0
 28 22  2  0  0  0
  1  5  1  0  0  0
  4  6  1  0  0  0
 23 29  1  0  0  0
M  END
> <minimizedAffinity>
-9.29347

> <CNNscore>
0.0650895014

> <CNNaffinity>
6.9388680458

> <CNN_VS>
0.4516474605

> <CNNaffinity_variance>
0.1970952600

$$$$
[H]c1nc2c(nc([H])c(=O)n2[H])c(Oc2c([H])c([H])c(N([H])C(=O)N([H])c3c([H])c(C(C([H])([H])[H])(C([H])([H])[H])C([H])([H])[H])nn3-c3c([H])c([H])c(OC([H])([H])[H])c([H])c3[H])c3c([H])c([H])c([H])c([H])c23)c1[H]


 46 51  0  0  0  0  0  0  0  0999 V2000
   38.3375   13.4499  -13.8570 N   0  0  0  0  0  0  0  0  0  0  0  0
   38.5573   14.7893  -13.3638 C   0  0  0  0  0  0  0  0  0  0  0  0
   39.1891   15.5801  -14.0412 O   0  0  0  0  0  0  0  0  0  0  0  0
   38.0536   15.1557  -12.1233 N   0  0  0  0  0  0  0  0  0  0  0  0
   37.7718   12.7989  -13.1913 H   0  0  0  0  0  0  0  0  0  0  0  0
   39.0674   16.0880  -12.0108 H   0  0  0  0  0  0  0  0  0  0  0  0
   37.5732   15.5148  -10.9330 C   0  0  0  0  0  0  0  0  0  0  0  0
   36.1733   15.5476  -10.7225 C   0  0  0  0  0  0  0  0  0  0  0  0
   35.6191   15.8388   -9.5453 C   0  0  0  0  0  0  0  0  0  0  0  0
   36.4405   16.1355   -8.4351 C   0  0  0  0  0  0  0  0  0  0  0  0
   37.7710   16.1056   -8.5974 C   0  0  0  0  0  0  0  0  0  0  0  0
   38.5728   16.3638   -7.4917 C   0  0  0  0  0  0  0  0  0  0  0  0
   39.9352   16.3317   -7.5710 C   0  0  0  0  0  0  0  0  0  0  0  0
   40.5035   16.0297   -8.7757 C   0  0  0  0  0  0  0  0  0  0  0  0
   39.7189   15.7736   -9.8744 C   0  0  0  0  0  0  0  0  0  0  0  0
   38.3440   15.7998   -9.8245 C   0  0  0  0  0  0  0  0  0  0  0  0
   35.6949   16.4321   -7.3154 O   0  0  0  0  0  0  0  0  0  0  0  0
   35.0203   15.5846   -6.4905 C   0  0  0  0  0  0  0  0  0  0  0  0
   35.5420   14.6020   -5.7101 C   0  0  0  0  0  0  0  0  0  0  0  0
   34.7434   13.7868   -4.8863 C   0  0  0  0  0  0  0  0  0  0  0  0
   33.4359   14.0041   -4.8805 N   0  0  0  0  0  0  0  0  0  0  0  0
   32.8626   14.9740   -5.6351 C   0  0  0  0  0  0  0  0  0  0  0  0
   31.5285   15.1683   -5.5389 N   0  0  0  0  0  0  0  0  0  0  0  0
   30.9311   16.1417   -6.2470 C   0  0  0  0  0  0  0  0  0  0  0  0
   29.6920   16.3396   -6.1540 O   0  0  0  0  0  0  0  0  0  0  0  0
   31.7339   16.9454   -7.0797 C   0  0  0  0  0  0  0  0  0  0  0  0
   33.0509   16.7485   -7.1650 N   0  0  0  0  0  0  0  0  0  0  0  0
   33.6259   15.7676   -6.4420 C   0  0  0  0  0  0  0  0  0  0  0  0
   30.9588   14.5630   -4.9146 H   0  0  0  0  0  0  0  0  0  0  0  0
   39.8045   12.5498  -15.7364 N   0  0  0  0  0  0  0  0  0  0  0  0
   39.4988   11.7993  -16.8132 N   0  0  0  0  0  0  0  0  0  0  0  0
   38.2137   11.5815  -16.9067 C   0  0  0  0  0  0  0  0  0  0  0  0
   37.6568   12.2376  -15.8275 C   0  0  0  0  0  0  0  0  0  0  0  0
   38.6980   12.8692  -15.0573 C   0  0  0  0  0  0  0  0  0  0  0  0
   43.8622   13.4444  -14.8867 C   0  0  0  0  0  0  0  0  0  0  0  0
   43.4637   12.9758  -16.1158 C   0  0  0  0  0  0  0  0  0  0  0  0
   42.1513   12.7088  -16.4041 C   0  0  0  0  0  0  0  0  0  0  0  0
   41.1716   12.8952  -15.5051 C   0  0  0  0  0  0  0  0  0  0  0  0
   41.5525   13.3872  -14.2273 C   0  0  0  0  0  0  0  0  0  0  0  0
   42.8859   13.6518  -13.9416 C   0  0  0  0  0  0  0  0  0  0  0  0
   46.2108   12.9302  -15.2715 C   0  0  0  0  0  0  0  0  0  0  0  0
   45.1972   13.7020  -14.5917 O   0  0  0  0  0  0  0  0  0  0  0  0
   37.4155   10.7763  -17.9036 C   0  0  0  0  0  0  0  0  0  0  0  0
   36.0011   11.3501  -18.0035 C   0  0  0  0  0  0  0  0  0  0  0  0
   38.0440   10.8617  -19.2758 C   0  0  0  0  0  0  0  0  0  0  0  0
   37.3270    9.3505  -17.5090 C   0  0  0  0  0  0  0  0  0  0  0  0
 41 42  1  0  0  0
 42 35  1  0  0  0
 35 36  2  0  0  0
 36 37  1  0  0  0
 37 38  2  0  0  0
 38 39  1  0  0  0
 39 40  2  0  0  0
 38 30  1  0  0  0
 30 31  1  0  0  0
 31 32  2  0  0  0
 32 33  1  0  0  0
 33 34  2  0  0  0
 34  1  1  0  0  0
  1  2  1  0  0  0
  2  3  2  0  0  0
  2  4  1  0  0  0
  4  7  1  0  0  0
  7  8  2  0  0  0
  8  9  1  0  0  0
  9 10  2  0  0  0
 10 17  1  0  0  0
 17 18  1  0  0  0
 18 19  2  0  0  0
 19 20  1  0  0  0
 20 21  2  0  0  0
 21 22  1  0  0  0
 22 23  1  0  0  0
 23 24  1  0  0  0
 24 25  2  0  0  0
 24 26  1  0  0  0
 26 27  2  0  0  0
 27 28  1  0  0  0
 10 11  1  0  0  0
 11 12  2  0  0  0
 12 13  1  0  0  0
 13 14  2  0  0  0
 14 15  1  0  0  0
 15 16  2  0  0  0
 32 43  1  0  0  0
 43 44  1  0  0  0
 43 45  1  0  0  0
 43 46  1  0  0  0
 40 35  1  0  0  0
 34 30  1  0  0  0
 16  7  1  0  0  0
 28 18  1  0  0  0
 16 11  1  0  0  0
 28 22  2  0  0  0
  1  5  1  0  0  0
  4  6  1  0  0  0
 23 29  1  0  0  0
M  END
> <minimizedAffinity>
-9.27784

> <CNNscore>
0.0378161557

> <CNNaffinity>
6.7601113319

> <CNN_VS>
0.2556414306

> <CNNaffinity_variance>
0.1957782507

$$$$
[H]c1nc2c(nc([H])c(=O)n2[H])c(Oc2c([H])c([H])c(N([H])C(=O)N([H])c3c([H])c(C(C([H])([H])[H])(C([H])([H])[H])C([H])([H])[H])nn3-c3c([H])c([H])c(OC([H])([H])[H])c([H])c3[H])c3c([H])c([H])c([H])c([H])c23)c1[H]


 46 51  0  0  0  0  0  0  0  0999 V2000
   40.2562   14.5025  -12.8401 N   0  0  0  0  0  0  0  0  0  0  0  0
   40.3627   15.8604  -12.3600 C   0  0  0  0  0  0  0  0  0  0  0  0
   40.9587   16.6861  -13.0282 O   0  0  0  0  0  0  0  0  0  0  0  0
   39.7924   16.2051  -11.1424 N   0  0  0  0  0  0  0  0  0  0  0  0
   39.7164   13.8209  -12.1836 H   0  0  0  0  0  0  0  0  0  0  0  0
   40.7324   17.2094  -11.0106 H   0  0  0  0  0  0  0  0  0  0  0  0
   39.2476   16.5435   -9.9739 C   0  0  0  0  0  0  0  0  0  0  0  0
   38.0176   17.2448   -9.9506 C   0  0  0  0  0  0  0  0  0  0  0  0
   37.3820   17.5657   -8.8233 C   0  0  0  0  0  0  0  0  0  0  0  0
   37.9372   17.2051   -7.5755 C   0  0  0  0  0  0  0  0  0  0  0  0
   39.0972   16.5331   -7.5614 C   0  0  0  0  0  0  0  0  0  0  0  0
   39.6190   16.1507   -6.3312 C   0  0  0  0  0  0  0  0  0  0  0  0
   40.7844   15.4462   -6.2345 C   0  0  0  0  0  0  0  0  0  0  0  0
   41.4339   15.1137   -7.3891 C   0  0  0  0  0  0  0  0  0  0  0  0
   40.9259   15.4880   -8.6098 C   0  0  0  0  0  0  0  0  0  0  0  0
   39.7547   16.1990   -8.7378 C   0  0  0  0  0  0  0  0  0  0  0  0
   37.1557   17.6377   -6.5268 O   0  0  0  0  0  0  0  0  0  0  0  0
   35.8123   17.8573   -6.4977 C   0  0  0  0  0  0  0  0  0  0  0  0
   35.1573   19.0107   -6.7937 C   0  0  0  0  0  0  0  0  0  0  0  0
   33.7553   19.1200   -6.7358 C   0  0  0  0  0  0  0  0  0  0  0  0
   33.0643   18.0456   -6.3825 N   0  0  0  0  0  0  0  0  0  0  0  0
   33.6655   16.8679   -6.0818 C   0  0  0  0  0  0  0  0  0  0  0  0
   32.8915   15.8024   -5.7779 N   0  0  0  0  0  0  0  0  0  0  0  0
   33.4515   14.6114   -5.5068 C   0  0  0  0  0  0  0  0  0  0  0  0
   32.7392   13.6100   -5.2363 O   0  0  0  0  0  0  0  0  0  0  0  0
   34.8557   14.5117   -5.5533 C   0  0  0  0  0  0  0  0  0  0  0  0
   35.6114   15.5685   -5.8582 N   0  0  0  0  0  0  0  0  0  0  0  0
   35.0248   16.7508   -6.1293 C   0  0  0  0  0  0  0  0  0  0  0  0
   31.8570   15.9017   -5.7532 H   0  0  0  0  0  0  0  0  0  0  0  0
   41.8423   13.5442  -14.5894 N   0  0  0  0  0  0  0  0  0  0  0  0
   41.5964   12.8600  -15.7243 N   0  0  0  0  0  0  0  0  0  0  0  0
   40.3159   12.7571  -15.9636 C   0  0  0  0  0  0  0  0  0  0  0  0
   39.6993   13.4215  -14.9226 C   0  0  0  0  0  0  0  0  0  0  0  0
   40.6977   13.9343  -14.0191 C   0  0  0  0  0  0  0  0  0  0  0  0
   45.8721   14.3621  -13.5509 C   0  0  0  0  0  0  0  0  0  0  0  0
   44.8891   14.2308  -12.5993 C   0  0  0  0  0  0  0  0  0  0  0  0
   43.5907   13.9419  -12.9270 C   0  0  0  0  0  0  0  0  0  0  0  0
   43.1993   13.7623  -14.1988 C   0  0  0  0  0  0  0  0  0  0  0  0
   44.1961   13.8837  -15.2046 C   0  0  0  0  0  0  0  0  0  0  0  0
   45.5097   14.1807  -14.8643 C   0  0  0  0  0  0  0  0  0  0  0  0
   48.0011   15.3533  -14.1939 C   0  0  0  0  0  0  0  0  0  0  0  0
   47.1874   14.6689  -13.2168 O   0  0  0  0  0  0  0  0  0  0  0  0
   39.5689   12.0581  -17.0740 C   0  0  0  0  0  0  0  0  0  0  0  0
   39.9009   12.7273  -18.4089 C   0  0  0  0  0  0  0  0  0  0  0  0
   39.9945   10.6106  -17.1672 C   0  0  0  0  0  0  0  0  0  0  0  0
   38.1029   12.1101  -16.8639 C   0  0  0  0  0  0  0  0  0  0  0  0
 41 42  1  0  0  0
 42 35  1  0  0  0
 35 36  2  0  0  0
 36 37  1  0  0  0
 37 38  2  0  0  0
 38 39  1  0  0  0
 39 40  2  0  0  0
 38 30  1  0  0  0
 30 31  1  0  0  0
 31 32  2  0  0  0
 32 33  1  0  0  0
 33 34  2  0  0  0
 34  1  1  0  0  0
  1  2  1  0  0  0
  2  3  2  0  0  0
  2  4  1  0  0  0
  4  7  1  0  0  0
  7  8  2  0  0  0
  8  9  1  0  0  0
  9 10  2  0  0  0
 10 17  1  0  0  0
 17 18  1  0  0  0
 18 19  2  0  0  0
 19 20  1  0  0  0
 20 21  2  0  0  0
 21 22  1  0  0  0
 22 23  1  0  0  0
 23 24  1  0  0  0
 24 25  2  0  0  0
 24 26  1  0  0  0
 26 27  2  0  0  0
 27 28  1  0  0  0
 10 11  1  0  0  0
 11 12  2  0  0  0
 12 13  1  0  0  0
 13 14  2  0  0  0
 14 15  1  0  0  0
 15 16  2  0  0  0
 32 43  1  0  0  0
 43 44  1  0  0  0
 43 45  1  0  0  0
 43 46  1  0  0  0
 40 35  1  0  0  0
 34 30  1  0  0  0
 16  7  1  0  0  0
 28 18  1  0  0  0
 16 11  1  0  0  0
 28 22  2  0  0  0
  1  5  1  0  0  0
  4  6  1  0  0  0
 23 29  1  0  0  0
M  END
> <minimizedAffinity>
-8.21550

> <CNNscore>
0.0364719480

> <CNNaffinity>
6.3850769997

> <CNN_VS>
0.2328761965

> <CNNaffinity_variance>
0.2905518711

$$$$
[H]c1nc2c(nc([H])c(=O)n2[H])c(Oc2c([H])c([H])c(N([H])C(=O)N([H])c3c([H])c(C(C([H])([H])[H])(C([H])([H])[H])C([H])([H])[H])nn3-c3c([H])c([H])c(OC([H])([H])[H])c([H])c3[H])c3c([H])c([H])c([H])c([H])c23)c1[H]


 46 51  0  0  0  0  0  0  0  0999 V2000
   44.3590   15.4197  -11.2859 N   0  0  0  0  0  0  0  0  0  0  0  0
   44.1548   14.5638  -12.4311 C   0  0  0  0  0  0  0  0  0  0  0  0
   45.1017   13.9607  -12.9035 O   0  0  0  0  0  0  0  0  0  0  0  0
   42.8865   14.4453  -12.9825 N   0  0  0  0  0  0  0  0  0  0  0  0
   43.4671   15.9316  -10.9263 H   0  0  0  0  0  0  0  0  0  0  0  0
   43.4673   14.1545  -14.2023 H   0  0  0  0  0  0  0  0  0  0  0  0
   41.6716   14.3266  -13.5177 C   0  0  0  0  0  0  0  0  0  0  0  0
   40.5773   15.0078  -12.9313 C   0  0  0  0  0  0  0  0  0  0  0  0
   39.3459   14.9859  -13.4419 C   0  0  0  0  0  0  0  0  0  0  0  0
   39.0868   14.2555  -14.6229 C   0  0  0  0  0  0  0  0  0  0  0  0
   40.1023   13.6053  -15.2089 C   0  0  0  0  0  0  0  0  0  0  0  0
   39.8471   12.9182  -16.3899 C   0  0  0  0  0  0  0  0  0  0  0  0
   40.8322   12.2492  -17.0574 C   0  0  0  0  0  0  0  0  0  0  0  0
   42.0947   12.2745  -16.5369 C   0  0  0  0  0  0  0  0  0  0  0  0
   42.3564   12.9506  -15.3695 C   0  0  0  0  0  0  0  0  0  0  0  0
   41.3837   13.6324  -14.6749 C   0  0  0  0  0  0  0  0  0  0  0  0
   37.7603   14.3302  -14.9866 O   0  0  0  0  0  0  0  0  0  0  0  0
   36.6700   13.8264  -14.3452 C   0  0  0  0  0  0  0  0  0  0  0  0
   36.2008   14.1725  -13.1177 C   0  0  0  0  0  0  0  0  0  0  0  0
   35.0520   13.5858  -12.5546 C   0  0  0  0  0  0  0  0  0  0  0  0
   34.4140   12.6668  -13.2653 N   0  0  0  0  0  0  0  0  0  0  0  0
   34.8348   12.2872  -14.4973 C   0  0  0  0  0  0  0  0  0  0  0  0
   34.1040   11.3796  -15.1822 N   0  0  0  0  0  0  0  0  0  0  0  0
   34.4727   11.0044  -16.4187 C   0  0  0  0  0  0  0  0  0  0  0  0
   33.7917   10.1706  -17.0700 O   0  0  0  0  0  0  0  0  0  0  0  0
   35.6307   11.5853  -16.9714 C   0  0  0  0  0  0  0  0  0  0  0  0
   36.3436   12.4835  -16.2890 N   0  0  0  0  0  0  0  0  0  0  0  0
   35.9505   12.8451  -15.0520 C   0  0  0  0  0  0  0  0  0  0  0  0
   33.2516   10.9679  -14.7526 H   0  0  0  0  0  0  0  0  0  0  0  0
   46.6350   16.3664  -10.6393 N   0  0  0  0  0  0  0  0  0  0  0  0
   47.2946   16.3554   -9.4641 N   0  0  0  0  0  0  0  0  0  0  0  0
   46.6545   15.6725   -8.5522 C   0  0  0  0  0  0  0  0  0  0  0  0
   45.5160   15.2096   -9.1805 C   0  0  0  0  0  0  0  0  0  0  0  0
   45.4994   15.6666  -10.5469 C   0  0  0  0  0  0  0  0  0  0  0  0
   48.2261   18.3140  -14.0543 C   0  0  0  0  0  0  0  0  0  0  0  0
   47.7534   19.0167  -12.9717 C   0  0  0  0  0  0  0  0  0  0  0  0
   47.2613   18.3929  -11.8557 C   0  0  0  0  0  0  0  0  0  0  0  0
   47.2169   17.0553  -11.7477 C   0  0  0  0  0  0  0  0  0  0  0  0
   47.7070   16.3017  -12.8486 C   0  0  0  0  0  0  0  0  0  0  0  0
   48.2006   16.9419  -13.9782 C   0  0  0  0  0  0  0  0  0  0  0  0
   48.8285   18.1818  -16.4097 C   0  0  0  0  0  0  0  0  0  0  0  0
   48.7128   18.9496  -15.1921 O   0  0  0  0  0  0  0  0  0  0  0  0
   46.9751   15.4172   -7.0991 C   0  0  0  0  0  0  0  0  0  0  0  0
   48.2883   16.1140   -6.7389 C   0  0  0  0  0  0  0  0  0  0  0  0
   45.8931   15.9886   -6.2113 C   0  0  0  0  0  0  0  0  0  0  0  0
   47.1079   13.9689   -6.8148 C   0  0  0  0  0  0  0  0  0  0  0  0
 41 42  1  0  0  0
 42 35  1  0  0  0
 35 36  2  0  0  0
 36 37  1  0  0  0
 37 38  2  0  0  0
 38 39  1  0  0  0
 39 40  2  0  0  0
 38 30  1  0  0  0
 30 31  1  0  0  0
 31 32  2  0  0  0
 32 33  1  0  0  0
 33 34  2  0  0  0
 34  1  1  0  0  0
  1  2  1  0  0  0
  2  3  2  0  0  0
  2  4  1  0  0  0
  4  7  1  0  0  0
  7  8  2  0  0  0
  8  9  1  0  0  0
  9 10  2  0  0  0
 10 17  1  0  0  0
 17 18  1  0  0  0
 18 19  2  0  0  0
 19 20  1  0  0  0
 20 21  2  0  0  0
 21 22  1  0  0  0
 22 23  1  0  0  0
 23 24  1  0  0  0
 24 25  2  0  0  0
 24 26  1  0  0  0
 26 27  2  0  0  0
 27 28  1  0  0  0
 10 11  1  0  0  0
 11 12  2  0  0  0
 12 13  1  0  0  0
 13 14  2  0  0  0
 14 15  1  0  0  0
 15 16  2  0  0  0
 32 43  1  0  0  0
 43 44  1  0  0  0
 43 45  1  0  0  0
 43 46  1  0  0  0
 40 35  1  0  0  0
 34 30  1  0  0  0
 16  7  1  0  0  0
 28 18  1  0  0  0
 16 11  1  0  0  0
 28 22  2  0  0  0
  1  5  1  0  0  0
  4  6  1  0  0  0
 23 29  1  0  0  0
M  END
> <minimizedAffinity>
-8.26842

> <CNNscore>
0.0363286920

> <CNNaffinity>
6.9935655594

> <CNN_VS>
0.2540670931

> <CNNaffinity_variance>
0.2721648812

$$$$
[H]c1nc2c(nc([H])c(=O)n2[H])c(Oc2c([H])c([H])c(N([H])C(=O)N([H])c3c([H])c(C(C([H])([H])[H])(C([H])([H])[H])C([H])([H])[H])nn3-c3c([H])c([H])c(OC([H])([H])[H])c([H])c3[H])c3c([H])c([H])c([H])c([H])c23)c1[H]


 46 51  0  0  0  0  0  0  0  0999 V2000
   44.4676   15.3845  -10.5901 N   0  0  0  0  0  0  0  0  0  0  0  0
   44.3596   14.9314  -11.9571 C   0  0  0  0  0  0  0  0  0  0  0  0
   45.3717   14.6714  -12.5829 O   0  0  0  0  0  0  0  0  0  0  0  0
   43.1071   14.8055  -12.5420 N   0  0  0  0  0  0  0  0  0  0  0  0
   43.5201   15.6052  -10.0998 H   0  0  0  0  0  0  0  0  0  0  0  0
   43.6856   15.0252  -13.7776 H   0  0  0  0  0  0  0  0  0  0  0  0
   41.9079   14.6824  -13.1106 C   0  0  0  0  0  0  0  0  0  0  0  0
   40.7979   15.3700  -12.5624 C   0  0  0  0  0  0  0  0  0  0  0  0
   39.5816   15.3439  -13.1078 C   0  0  0  0  0  0  0  0  0  0  0  0
   39.3557   14.6021  -14.2885 C   0  0  0  0  0  0  0  0  0  0  0  0
   40.3869   13.9454  -14.8387 C   0  0  0  0  0  0  0  0  0  0  0  0
   40.1649   13.2469  -16.0198 C   0  0  0  0  0  0  0  0  0  0  0  0
   41.1681   12.5708  -16.6522 C   0  0  0  0  0  0  0  0  0  0  0  0
   42.4153   12.6004  -16.0961 C   0  0  0  0  0  0  0  0  0  0  0  0
   42.6440   13.2877  -14.9284 C   0  0  0  0  0  0  0  0  0  0  0  0
   41.6525   13.9770  -14.2687 C   0  0  0  0  0  0  0  0  0  0  0  0
   38.0401   14.6740  -14.6907 O   0  0  0  0  0  0  0  0  0  0  0  0
   36.9309   14.1826  -14.0727 C   0  0  0  0  0  0  0  0  0  0  0  0
   36.4107   14.5702  -12.8786 C   0  0  0  0  0  0  0  0  0  0  0  0
   35.2468   13.9923  -12.3378 C   0  0  0  0  0  0  0  0  0  0  0  0
   34.6464   13.0394  -13.0363 N   0  0  0  0  0  0  0  0  0  0  0  0
   35.1186   12.6175  -14.2354 C   0  0  0  0  0  0  0  0  0  0  0  0
   34.4243   11.6759  -14.9122 N   0  0  0  0  0  0  0  0  0  0  0  0
   34.8447   11.2577  -16.1181 C   0  0  0  0  0  0  0  0  0  0  0  0
   34.1980   10.3916  -16.7622 O   0  0  0  0  0  0  0  0  0  0  0  0
   36.0174   11.8303  -16.6479 C   0  0  0  0  0  0  0  0  0  0  0  0
   36.6940   12.7623  -15.9739 N   0  0  0  0  0  0  0  0  0  0  0  0
   36.2494   13.1666  -14.7680 C   0  0  0  0  0  0  0  0  0  0  0  0
   33.5600   11.2712  -14.5002 H   0  0  0  0  0  0  0  0  0  0  0  0
   46.7016   14.8961   -9.4654 N   0  0  0  0  0  0  0  0  0  0  0  0
   47.5191   15.6883   -8.7439 N   0  0  0  0  0  0  0  0  0  0  0  0
   47.0059   16.8751   -8.5549 C   0  0  0  0  0  0  0  0  0  0  0  0
   45.7796   16.8433   -9.1878 C   0  0  0  0  0  0  0  0  0  0  0  0
   45.5803   15.5487   -9.7884 C   0  0  0  0  0  0  0  0  0  0  0  0
   48.1069   10.9647  -10.2111 C   0  0  0  0  0  0  0  0  0  0  0  0
   47.0143   11.2063   -9.4130 C   0  0  0  0  0  0  0  0  0  0  0  0
   46.5406   12.4720   -9.1886 C   0  0  0  0  0  0  0  0  0  0  0  0
   47.1110   13.5550   -9.7405 C   0  0  0  0  0  0  0  0  0  0  0  0
   48.2382   13.3355  -10.5778 C   0  0  0  0  0  0  0  0  0  0  0  0
   48.7147   12.0493  -10.7972 C   0  0  0  0  0  0  0  0  0  0  0  0
   48.6876    8.7834   -9.2982 C   0  0  0  0  0  0  0  0  0  0  0  0
   48.5944    9.6796  -10.4267 O   0  0  0  0  0  0  0  0  0  0  0  0
   47.5584   18.0930   -7.8545 C   0  0  0  0  0  0  0  0  0  0  0  0
   48.4449   17.6501   -6.6892 C   0  0  0  0  0  0  0  0  0  0  0  0
   48.4144   18.9036   -8.8008 C   0  0  0  0  0  0  0  0  0  0  0  0
   46.4768   18.9601   -7.3305 C   0  0  0  0  0  0  0  0  0  0  0  0
 41 42  1  0  0  0
 42 35  1  0  0  0
 35 36  2  0  0  0
 36 37  1  0  0  0
 37 38  2  0  0  0
 38 39  1  0  0  0
 39 40  2  0  0  0
 38 30  1  0  0  0
 30 31  1  0  0  0
 31 32  2  0  0  0
 32 33  1  0  0  0
 33 34  2  0  0  0
 34  1  1  0  0  0
  1  2  1  0  0  0
  2  3  2  0  0  0
  2  4  1  0  0  0
  4  7  1  0  0  0
  7  8  2  0  0  0
  8  9  1  0  0  0
  9 10  2  0  0  0
 10 17  1  0  0  0
 17 18  1  0  0  0
 18 19  2  0  0  0
 19 20  1  0  0  0
 20 21  2  0  0  0
 21 22  1  0  0  0
 22 23  1  0  0  0
 23 24  1  0  0  0
 24 25  2  0  0  0
 24 26  1  0  0  0
 26 27  2  0  0  0
 27 28  1  0  0  0
 10 11  1  0  0  0
 11 12  2  0  0  0
 12 13  1  0  0  0
 13 14  2  0  0  0
 14 15  1  0  0  0
 15 16  2  0  0  0
 32 43  1  0  0  0
 43 44  1  0  0  0
 43 45  1  0  0  0
 43 46  1  0  0  0
 40 35  1  0  0  0
 34 30  1  0  0  0
 16  7  1  0  0  0
 28 18  1  0  0  0
 16 11  1  0  0  0
 28 22  2  0  0  0
  1  5  1  0  0  0
  4  6  1  0  0  0
 23 29  1  0  0  0
M  END
> <minimizedAffinity>
-8.26120

> <CNNscore>
0.0327318236

> <CNNaffinity>
6.9207420349

> <CNN_VS>
0.2265285105

> <CNNaffinity_variance>
0.3556845784

$$$$
[H]c1nc(N([H])c2c([H])c([H])c(N3C([H])([H])C([H])([H])N(C([H])([H])[H])C([H])([H])C3([H])[H])c([H])c2[H])nc(-c2c([H])c([H])c(OC([H])([H])[H])c(C(F)(F)F)c2[H])c1C(=O)N([H])[H]


 38 41  0  0  0  0  0  0  0  0999 V2000
   40.1250   13.0102  -15.2476 C   0  0  0  0  0  0  0  0  0  0  0  0
   40.6475   13.5469  -14.1343 N   0  0  0  0  0  0  0  0  0  0  0  0
   41.9731   13.8095  -13.9492 C   0  0  0  0  0  0  0  0  0  0  0  0
   42.7430   13.4834  -14.9903 N   0  0  0  0  0  0  0  0  0  0  0  0
   42.3402   12.9546  -16.1288 C   0  0  0  0  0  0  0  0  0  0  0  0
   40.9562   12.6961  -16.2902 C   0  0  0  0  0  0  0  0  0  0  0  0
   36.8142   11.7257  -16.3245 C   0  0  0  0  0  0  0  0  0  0  0  0
   38.1666   11.8910  -16.2358 C   0  0  0  0  0  0  0  0  0  0  0  0
   38.6696   12.7763  -15.2729 C   0  0  0  0  0  0  0  0  0  0  0  0
   37.8455   13.4677  -14.4330 C   0  0  0  0  0  0  0  0  0  0  0  0
   36.4828   13.2914  -14.5331 C   0  0  0  0  0  0  0  0  0  0  0  0
   35.9722   12.4202  -15.4796 C   0  0  0  0  0  0  0  0  0  0  0  0
   36.2472   10.7833  -17.3476 C   0  0  0  0  0  0  0  0  0  0  0  0
   37.3253   10.1886  -18.0041 F   0  0  0  0  0  0  0  0  0  0  0  0
   35.5278   11.4867  -18.2709 F   0  0  0  0  0  0  0  0  0  0  0  0
   35.4426    9.8407  -16.7528 F   0  0  0  0  0  0  0  0  0  0  0  0
   34.6059   12.2156  -15.6114 O   0  0  0  0  0  0  0  0  0  0  0  0
   33.7196   12.5889  -14.5783 C   0  0  0  0  0  0  0  0  0  0  0  0
   40.5482   12.2191  -17.5899 C   0  0  0  0  0  0  0  0  0  0  0  0
   40.3347   13.0648  -18.6833 N   0  0  0  0  0  0  0  0  0  0  0  0
   40.3771   10.9904  -17.7737 O   0  0  0  0  0  0  0  0  0  0  0  0
   39.4838   12.9661  -19.2981 H   0  0  0  0  0  0  0  0  0  0  0  0
   40.9840   13.8396  -18.9688 H   0  0  0  0  0  0  0  0  0  0  0  0
   42.4318   14.3525  -12.7369 N   0  0  0  0  0  0  0  0  0  0  0  0
   41.6995   14.3394  -11.9424 H   0  0  0  0  0  0  0  0  0  0  0  0
   43.6930   14.8874  -12.4719 C   0  0  0  0  0  0  0  0  0  0  0  0
   43.8205   16.2871  -12.4463 C   0  0  0  0  0  0  0  0  0  0  0  0
   45.0444   16.8476  -12.2148 C   0  0  0  0  0  0  0  0  0  0  0  0
   46.1841   16.1155  -12.0006 C   0  0  0  0  0  0  0  0  0  0  0  0
   46.0505   14.7423  -12.0278 C   0  0  0  0  0  0  0  0  0  0  0  0
   44.8002   14.1332  -12.2648 C   0  0  0  0  0  0  0  0  0  0  0  0
   47.4576   16.6828  -11.7616 N   0  0  0  0  0  0  0  0  0  0  0  0
   48.1390   16.4122  -10.4850 C   0  0  0  0  0  0  0  0  0  0  0  0
   49.3675   17.2324  -10.2922 C   0  0  0  0  0  0  0  0  0  0  0  0
   49.2664   18.5851  -10.7259 N   0  0  0  0  0  0  0  0  0  0  0  0
   48.9152   19.5156   -9.6877 C   0  0  0  0  0  0  0  0  0  0  0  0
   48.5980   18.7958  -11.9620 C   0  0  0  0  0  0  0  0  0  0  0  0
   48.1913   17.5259  -12.6633 C   0  0  0  0  0  0  0  0  0  0  0  0
  7 13  1  0  0  0
 13 14  1  0  0  0
 13 15  1  0  0  0
 13 16  1  0  0  0
  7  8  2  0  0  0
  8  9  1  0  0  0
  9  1  1  0  0  0
  1  2  2  0  0  0
  2  3  1  0  0  0
  3 24  1  0  0  0
 24 26  1  0  0  0
 26 27  2  0  0  0
 27 28  1  0  0  0
 28 29  2  0  0  0
 29 32  1  0  0  0
 32 33  1  0  0  0
 33 34  1  0  0  0
 34 35  1  0  0  0
 35 36  1  0  0  0
 35 37  1  0  0  0
 37 38  1  0  0  0
 29 30  1  0  0  0
 30 31  2  0  0  0
  3  4  2  0  0  0
  4  5  1  0  0  0
  5  6  2  0  0  0
  6 19  1  0  0  0
 19 20  1  0  0  0
 19 21  2  0  0  0
  9 10  2  0  0  0
 10 11  1  0  0  0
 11 12  2  0  0  0
 12 17  1  0  0  0
 17 18  1  0  0  0
 12  7  1  0  0  0
  6  1  1  0  0  0
 31 26  1  0  0  0
 38 32  1  0  0  0
 24 25  1  0  0  0
 20 22  1  0  0  0
 20 23  1  0  0  0
M  END
> <minimizedAffinity>
-8.47971

> <CNNscore>
0.4920397103

> <CNNaffinity>
6.8899793625

> <CNN_VS>
3.3901433945

> <CNNaffinity_variance>
0.3343539238

$$$$
[H]c1nc(N([H])c2c([H])c([H])c(N3C([H])([H])C([H])([H])N(C([H])([H])[H])C([H])([H])C3([H])[H])c([H])c2[H])nc(-c2c([H])c([H])c(OC([H])([H])[H])c(C(F)(F)F)c2[H])c1C(=O)N([H])[H]


 38 41  0  0  0  0  0  0  0  0999 V2000
   40.3250   13.1744  -15.1106 C   0  0  0  0  0  0  0  0  0  0  0  0
   40.8562   13.6370  -13.9686 N   0  0  0  0  0  0  0  0  0  0  0  0
   42.1881   13.8475  -13.7630 C   0  0  0  0  0  0  0  0  0  0  0  0
   42.9547   13.5503  -14.8151 N   0  0  0  0  0  0  0  0  0  0  0  0
   42.5436   13.0930  -15.9813 C   0  0  0  0  0  0  0  0  0  0  0  0
   41.1533   12.8872  -16.1632 C   0  0  0  0  0  0  0  0  0  0  0  0
   36.9948   11.9393  -16.1857 C   0  0  0  0  0  0  0  0  0  0  0  0
   38.3500   12.0641  -16.0756 C   0  0  0  0  0  0  0  0  0  0  0  0
   38.8632   12.9885  -15.1558 C   0  0  0  0  0  0  0  0  0  0  0  0
   38.0462   13.7567  -14.3780 C   0  0  0  0  0  0  0  0  0  0  0  0
   36.6805   13.6206  -14.4991 C   0  0  0  0  0  0  0  0  0  0  0  0
   36.1600   12.7116  -15.4035 C   0  0  0  0  0  0  0  0  0  0  0  0
   36.4171   10.9565  -17.1637 C   0  0  0  0  0  0  0  0  0  0  0  0
   37.4864   10.2713  -17.7417 F   0  0  0  0  0  0  0  0  0  0  0  0
   35.7612   11.6277  -18.1558 F   0  0  0  0  0  0  0  0  0  0  0  0
   35.5506   10.0931  -16.5366 F   0  0  0  0  0  0  0  0  0  0  0  0
   34.7905   12.5455  -15.5547 O   0  0  0  0  0  0  0  0  0  0  0  0
   33.9474   12.4589  -14.4260 C   0  0  0  0  0  0  0  0  0  0  0  0
   40.7397   12.4900  -17.4877 C   0  0  0  0  0  0  0  0  0  0  0  0
   40.3761   13.4037  -18.4823 N   0  0  0  0  0  0  0  0  0  0  0  0
   40.7031   11.2726  -17.7867 O   0  0  0  0  0  0  0  0  0  0  0  0
   39.5131   13.2623  -19.0714 H   0  0  0  0  0  0  0  0  0  0  0  0
   40.9165   14.2743  -18.7133 H   0  0  0  0  0  0  0  0  0  0  0  0
   42.6551   14.3136  -12.5221 N   0  0  0  0  0  0  0  0  0  0  0  0
   42.1232   15.1758  -12.1462 H   0  0  0  0  0  0  0  0  0  0  0  0
   43.6999   13.7904  -11.7596 C   0  0  0  0  0  0  0  0  0  0  0  0
   44.5533   14.6963  -11.1058 C   0  0  0  0  0  0  0  0  0  0  0  0
   45.6021   14.2223  -10.3704 C   0  0  0  0  0  0  0  0  0  0  0  0
   45.8833   12.8879  -10.2252 C   0  0  0  0  0  0  0  0  0  0  0  0
   45.0413   12.0054  -10.8705 C   0  0  0  0  0  0  0  0  0  0  0  0
   43.9497   12.4636  -11.6378 C   0  0  0  0  0  0  0  0  0  0  0  0
   46.9668   12.3837   -9.4685 N   0  0  0  0  0  0  0  0  0  0  0  0
   48.2338   12.0658  -10.1474 C   0  0  0  0  0  0  0  0  0  0  0  0
   49.2070   11.3589   -9.2687 C   0  0  0  0  0  0  0  0  0  0  0  0
   48.6417   10.3757   -8.4075 N   0  0  0  0  0  0  0  0  0  0  0  0
   48.6853    9.0362   -8.9282 C   0  0  0  0  0  0  0  0  0  0  0  0
   47.4175   10.7275   -7.7776 C   0  0  0  0  0  0  0  0  0  0  0  0
   46.9697   12.1393   -8.0535 C   0  0  0  0  0  0  0  0  0  0  0  0
  7 13  1  0  0  0
 13 14  1  0  0  0
 13 15  1  0  0  0
 13 16  1  0  0  0
  7  8  2  0  0  0
  8  9  1  0  0  0
  9  1  1  0  0  0
  1  2  2  0  0  0
  2  3  1  0  0  0
  3 24  1  0  0  0
 24 26  1  0  0  0
 26 27  2  0  0  0
 27 28  1  0  0  0
 28 29  2  0  0  0
 29 32  1  0  0  0
 32 33  1  0  0  0
 33 34  1  0  0  0
 34 35  1  0  0  0
 35 36  1  0  0  0
 35 37  1  0  0  0
 37 38  1  0  0  0
 29 30  1  0  0  0
 30 31  2  0  0  0
  3  4  2  0  0  0
  4  5  1  0  0  0
  5  6  2  0  0  0
  6 19  1  0  0  0
 19 20  1  0  0  0
 19 21  2  0  0  0
  9 10  2  0  0  0
 10 11  1  0  0  0
 11 12  2  0  0  0
 12 17  1  0  0  0
 17 18  1  0  0  0
 12  7  1  0  0  0
  6  1  1  0  0  0
 31 26  1  0  0  0
 38 32  1  0  0  0
 24 25  1  0  0  0
 20 22  1  0  0  0
 20 23  1  0  0  0
M  END
> <minimizedAffinity>
-8.47960

> <CNNscore>
0.4300580919

> <CNNaffinity>
6.8250670433

> <CNN_VS>
2.9351754189

> <CNNaffinity_variance>
0.2029199898

$$$$
[H]c1nc(N([H])c2c([H])c([H])c(N3C([H])([H])C([H])([H])N(C([H])([H])[H])C([H])([H])C3([H])[H])c([H])c2[H])nc(-c2c([H])c([H])c(OC([H])([H])[H])c(C(F)(F)F)c2[H])c1C(=O)N([H])[H]


 38 41  0  0  0  0  0  0  0  0999 V2000
   35.9153   12.3086  -15.6565 C   0  0  0  0  0  0  0  0  0  0  0  0
   37.2151   12.5330  -15.9026 N   0  0  0  0  0  0  0  0  0  0  0  0
   37.9706   11.8206  -16.7870 C   0  0  0  0  0  0  0  0  0  0  0  0
   37.3028   10.8487  -17.4137 N   0  0  0  0  0  0  0  0  0  0  0  0
   36.0311   10.5407  -17.2527 C   0  0  0  0  0  0  0  0  0  0  0  0
   35.2735   11.3017  -16.3279 C   0  0  0  0  0  0  0  0  0  0  0  0
   35.4725   14.6260  -12.7920 C   0  0  0  0  0  0  0  0  0  0  0  0
   36.0690   13.8926  -13.7772 C   0  0  0  0  0  0  0  0  0  0  0  0
   35.2542   13.1638  -14.6539 C   0  0  0  0  0  0  0  0  0  0  0  0
   33.8939   13.1720  -14.5442 C   0  0  0  0  0  0  0  0  0  0  0  0
   33.3048   13.9163  -13.5456 C   0  0  0  0  0  0  0  0  0  0  0  0
   34.0974   14.6410  -12.6726 C   0  0  0  0  0  0  0  0  0  0  0  0
   36.3214   15.4167  -11.8379 C   0  0  0  0  0  0  0  0  0  0  0  0
   37.6495   15.2529  -12.2332 F   0  0  0  0  0  0  0  0  0  0  0  0
   36.1913   14.9075  -10.5774 F   0  0  0  0  0  0  0  0  0  0  0  0
   35.9584   16.7424  -11.8424 F   0  0  0  0  0  0  0  0  0  0  0  0
   33.5419   15.4026  -11.6542 O   0  0  0  0  0  0  0  0  0  0  0  0
   32.1492   15.3914  -11.4253 C   0  0  0  0  0  0  0  0  0  0  0  0
   33.8634   11.0005  -16.2644 C   0  0  0  0  0  0  0  0  0  0  0  0
   33.2243   10.5704  -15.0970 N   0  0  0  0  0  0  0  0  0  0  0  0
   33.1550   11.1297  -17.2912 O   0  0  0  0  0  0  0  0  0  0  0  0
   32.5510    9.7590  -15.1045 H   0  0  0  0  0  0  0  0  0  0  0  0
   33.3603   11.0076  -14.1515 H   0  0  0  0  0  0  0  0  0  0  0  0
   39.3338   12.1140  -16.9615 N   0  0  0  0  0  0  0  0  0  0  0  0
   39.7294   11.8175  -17.9225 H   0  0  0  0  0  0  0  0  0  0  0  0
   40.1921   12.7264  -16.0477 C   0  0  0  0  0  0  0  0  0  0  0  0
   41.5758   12.6121  -16.2681 C   0  0  0  0  0  0  0  0  0  0  0  0
   42.4477   13.1772  -15.3815 C   0  0  0  0  0  0  0  0  0  0  0  0
   42.0510   13.8653  -14.2635 C   0  0  0  0  0  0  0  0  0  0  0  0
   40.6912   13.9726  -14.0542 C   0  0  0  0  0  0  0  0  0  0  0  0
   39.7652   13.3996  -14.9512 C   0  0  0  0  0  0  0  0  0  0  0  0
   42.9428   14.4536  -13.3366 N   0  0  0  0  0  0  0  0  0  0  0  0
   42.4371   15.4612  -12.3898 C   0  0  0  0  0  0  0  0  0  0  0  0
   43.5194   16.1353  -11.6195 C   0  0  0  0  0  0  0  0  0  0  0  0
   44.6917   16.4445  -12.3665 N   0  0  0  0  0  0  0  0  0  0  0  0
   44.7238   17.7824  -12.8919 C   0  0  0  0  0  0  0  0  0  0  0  0
   45.1391   15.4421  -13.2688 C   0  0  0  0  0  0  0  0  0  0  0  0
   44.3436   14.1641  -13.2090 C   0  0  0  0  0  0  0  0  0  0  0  0
  7 13  1  0  0  0
 13 14  1  0  0  0
 13 15  1  0  0  0
 13 16  1  0  0  0
  7  8  2  0  0  0
  8  9  1  0  0  0
  9  1  1  0  0  0
  1  2  2  0  0  0
  2  3  1  0  0  0
  3 24  1  0  0  0
 24 26  1  0  0  0
 26 27  2  0  0  0
 27 28  1  0  0  0
 28 29  2  0  0  0
 29 32  1  0  0  0
 32 33  1  0  0  0
 33 34  1  0  0  0
 34 35  1  0  0  0
 35 36  1  0  0  0
 35 37  1  0  0  0
 37 38  1  0  0  0
 29 30  1  0  0  0
 30 31  2  0  0  0
  3  4  2  0  0  0
  4  5  1  0  0  0
  5  6  2  0  0  0
  6 19  1  0  0  0
 19 20  1  0  0  0
 19 21  2  0  0  0
  9 10  2  0  0  0
 10 11  1  0  0  0
 11 12  2  0  0  0
 12 17  1  0  0  0
 17 18  1  0  0  0
 12  7  1  0  0  0
  6  1  1  0  0  0
 31 26  1  0  0  0
 38 32  1  0  0  0
 24 25  1  0  0  0
 20 22  1  0  0  0
 20 23  1  0  0  0
M  END
> <minimizedAffinity>
-9.64705

> <CNNscore>
0.4003583789

> <CNNaffinity>
7.4644021988

> <CNN_VS>
2.9884359837

> <CNNaffinity_variance>
0.1164792329

$$$$
[H]c1nc(N([H])c2c([H])c([H])c(N3C([H])([H])C([H])([H])N(C([H])([H])[H])C([H])([H])C3([H])[H])c([H])c2[H])nc(-c2c([H])c([H])c(OC([H])([H])[H])c(C(F)(F)F)c2[H])c1C(=O)N([H])[H]


 38 41  0  0  0  0  0  0  0  0999 V2000
   44.2583   13.6190  -14.7623 C   0  0  0  0  0  0  0  0  0  0  0  0
   43.0802   13.5366  -15.3993 N   0  0  0  0  0  0  0  0  0  0  0  0
   42.8352   12.7338  -16.4745 C   0  0  0  0  0  0  0  0  0  0  0  0
   43.8872   12.0092  -16.8634 N   0  0  0  0  0  0  0  0  0  0  0  0
   45.0857   12.0085  -16.3142 C   0  0  0  0  0  0  0  0  0  0  0  0
   45.3068   12.8523  -15.1974 C   0  0  0  0  0  0  0  0  0  0  0  0
   45.0565   16.6752  -12.8145 C   0  0  0  0  0  0  0  0  0  0  0  0
   44.8862   15.8270  -13.8708 C   0  0  0  0  0  0  0  0  0  0  0  0
   44.3546   14.5537  -13.6262 C   0  0  0  0  0  0  0  0  0  0  0  0
   44.0083   14.1494  -12.3696 C   0  0  0  0  0  0  0  0  0  0  0  0
   44.1852   15.0152  -11.3125 C   0  0  0  0  0  0  0  0  0  0  0  0
   44.7093   16.2759  -11.5396 C   0  0  0  0  0  0  0  0  0  0  0  0
   45.6245   18.0461  -13.0474 C   0  0  0  0  0  0  0  0  0  0  0  0
   46.1035   18.0778  -14.3575 F   0  0  0  0  0  0  0  0  0  0  0  0
   46.6809   18.2541  -12.2075 F   0  0  0  0  0  0  0  0  0  0  0  0
   44.6700   19.0134  -12.8407 F   0  0  0  0  0  0  0  0  0  0  0  0
   44.9025   17.1763  -10.5015 O   0  0  0  0  0  0  0  0  0  0  0  0
   44.3314   16.9438   -9.2319 C   0  0  0  0  0  0  0  0  0  0  0  0
   46.5983   12.7384  -14.5632 C   0  0  0  0  0  0  0  0  0  0  0  0
   47.7131   13.4856  -14.9570 N   0  0  0  0  0  0  0  0  0  0  0  0
   46.7509   11.9424  -13.6061 O   0  0  0  0  0  0  0  0  0  0  0  0
   48.6596   13.0382  -15.0831 H   0  0  0  0  0  0  0  0  0  0  0  0
   47.6959   14.5177  -15.1519 H   0  0  0  0  0  0  0  0  0  0  0  0
   41.5729   12.7317  -17.0922 N   0  0  0  0  0  0  0  0  0  0  0  0
   41.6052   12.8790  -18.1623 H   0  0  0  0  0  0  0  0  0  0  0  0
   40.3304   12.5655  -16.4796 C   0  0  0  0  0  0  0  0  0  0  0  0
   40.0577   13.3277  -15.3302 C   0  0  0  0  0  0  0  0  0  0  0  0
   38.8618   13.1740  -14.6886 C   0  0  0  0  0  0  0  0  0  0  0  0
   37.8865   12.3035  -15.1030 C   0  0  0  0  0  0  0  0  0  0  0  0
   38.1622   11.5587  -16.2316 C   0  0  0  0  0  0  0  0  0  0  0  0
   39.3882   11.6942  -16.9164 C   0  0  0  0  0  0  0  0  0  0  0  0
   36.6449   12.1331  -14.4472 N   0  0  0  0  0  0  0  0  0  0  0  0
   35.4047   12.1348  -15.2404 C   0  0  0  0  0  0  0  0  0  0  0  0
   34.1738   12.1503  -14.4016 C   0  0  0  0  0  0  0  0  0  0  0  0
   34.2359   12.9869  -13.2509 N   0  0  0  0  0  0  0  0  0  0  0  0
   33.6886   14.3023  -13.4443 C   0  0  0  0  0  0  0  0  0  0  0  0
   35.4540   12.9531  -12.5199 C   0  0  0  0  0  0  0  0  0  0  0  0
   36.4512   11.9489  -13.0363 C   0  0  0  0  0  0  0  0  0  0  0  0
  7 13  1  0  0  0
 13 14  1  0  0  0
 13 15  1  0  0  0
 13 16  1  0  0  0
  7  8  2  0  0  0
  8  9  1  0  0  0
  9  1  1  0  0  0
  1  2  2  0  0  0
  2  3  1  0  0  0
  3 24  1  0  0  0
 24 26  1  0  0  0
 26 27  2  0  0  0
 27 28  1  0  0  0
 28 29  2  0  0  0
 29 32  1  0  0  0
 32 33  1  0  0  0
 33 34  1  0  0  0
 34 35  1  0  0  0
 35 36  1  0  0  0
 35 37  1  0  0  0
 37 38  1  0  0  0
 29 30  1  0  0  0
 30 31  2  0  0  0
  3  4  2  0  0  0
  4  5  1  0  0  0
  5  6  2  0  0  0
  6 19  1  0  0  0
 19 20  1  0  0  0
 19 21  2  0  0  0
  9 10  2  0  0  0
 10 11  1  0  0  0
 11 12  2  0  0  0
 12 17  1  0  0  0
 17 18  1  0  0  0
 12  7  1  0  0  0
  6  1  1  0  0  0
 31 26  1  0  0  0
 38 32  1  0  0  0
 24 25  1  0  0  0
 20 22  1  0  0  0
 20 23  1  0  0  0
M  END
> <minimizedAffinity>
-8.51612

> <CNNscore>
0.3754803538

> <CNNaffinity>
6.9609060287

> <CNN_VS>
2.6136834621

> <CNNaffinity_variance>
0.2701261044

$$$$
[H]c1nc(N([H])c2c([H])c([H])c(N3C([H])([H])C([H])([H])N(C([H])([H])[H])C([H])([H])C3([H])[H])c([H])c2[H])nc(-c2c([H])c([H])c(OC([H])([H])[H])c(C(F)(F)F)c2[H])c1C(=O)N([H])[H]


 38 41  0  0  0  0  0  0  0  0999 V2000
   39.6871   12.7628  -15.6825 C   0  0  0  0  0  0  0  0  0  0  0  0
   40.1069   13.2975  -14.5258 N   0  0  0  0  0  0  0  0  0  0  0  0
   41.4033   13.6153  -14.2444 C   0  0  0  0  0  0  0  0  0  0  0  0
   42.2566   13.3474  -15.2359 N   0  0  0  0  0  0  0  0  0  0  0  0
   41.9574   12.8265  -16.4094 C   0  0  0  0  0  0  0  0  0  0  0  0
   40.6011   12.5097  -16.6710 C   0  0  0  0  0  0  0  0  0  0  0  0
   36.0398   12.7918  -14.9981 C   0  0  0  0  0  0  0  0  0  0  0  0
   37.3647   13.1174  -14.9440 C   0  0  0  0  0  0  0  0  0  0  0  0
   38.2492   12.4643  -15.8129 C   0  0  0  0  0  0  0  0  0  0  0  0
   37.8185   11.5213  -16.7005 C   0  0  0  0  0  0  0  0  0  0  0  0
   36.4790   11.2022  -16.7448 C   0  0  0  0  0  0  0  0  0  0  0  0
   35.5942   11.8395  -15.8924 C   0  0  0  0  0  0  0  0  0  0  0  0
   35.0693   13.4759  -14.0782 C   0  0  0  0  0  0  0  0  0  0  0  0
   35.7959   14.3941  -13.3195 F   0  0  0  0  0  0  0  0  0  0  0  0
   34.5241   12.5610  -13.2235 F   0  0  0  0  0  0  0  0  0  0  0  0
   34.0715   14.0958  -14.7921 F   0  0  0  0  0  0  0  0  0  0  0  0
   34.2380   11.5457  -15.9067 O   0  0  0  0  0  0  0  0  0  0  0  0
   33.6716   10.8138  -16.9724 C   0  0  0  0  0  0  0  0  0  0  0  0
   40.3052   12.0438  -18.0046 C   0  0  0  0  0  0  0  0  0  0  0  0
   40.2229   10.6889  -18.3416 N   0  0  0  0  0  0  0  0  0  0  0  0
   40.1016   12.8757  -18.9209 O   0  0  0  0  0  0  0  0  0  0  0  0
   40.6895   10.3070  -19.2065 H   0  0  0  0  0  0  0  0  0  0  0  0
   39.7065    9.9684  -17.7779 H   0  0  0  0  0  0  0  0  0  0  0  0
   41.7525   14.1514  -12.9932 N   0  0  0  0  0  0  0  0  0  0  0  0
   40.9634   14.1028  -12.2566 H   0  0  0  0  0  0  0  0  0  0  0  0
   42.9729   14.7194  -12.6259 C   0  0  0  0  0  0  0  0  0  0  0  0
   43.0680   16.1219  -12.6162 C   0  0  0  0  0  0  0  0  0  0  0  0
   44.2538   16.7140  -12.2862 C   0  0  0  0  0  0  0  0  0  0  0  0
   45.3846   16.0120  -11.9559 C   0  0  0  0  0  0  0  0  0  0  0  0
   45.2831   14.6358  -11.9684 C   0  0  0  0  0  0  0  0  0  0  0  0
   44.0725   13.9943  -12.3052 C   0  0  0  0  0  0  0  0  0  0  0  0
   46.6190   16.6122  -11.6141 N   0  0  0  0  0  0  0  0  0  0  0  0
   46.6475   17.6681  -10.5886 C   0  0  0  0  0  0  0  0  0  0  0  0
   47.9710   18.3431  -10.4806 C   0  0  0  0  0  0  0  0  0  0  0  0
   48.6260   18.5931  -11.7201 N   0  0  0  0  0  0  0  0  0  0  0  0
   48.4006   19.9086  -12.2547 C   0  0  0  0  0  0  0  0  0  0  0  0
   48.5686   17.5457  -12.6786 C   0  0  0  0  0  0  0  0  0  0  0  0
   47.9005   16.2918  -12.1773 C   0  0  0  0  0  0  0  0  0  0  0  0
  7 13  1  0  0  0
 13 14  1  0  0  0
 13 15  1  0  0  0
 13 16  1  0  0  0
  7  8  2  0  0  0
  8  9  1  0  0  0
  9  1  1  0  0  0
  1  2  2  0  0  0
  2  3  1  0  0  0
  3 24  1  0  0  0
 24 26  1  0  0  0
 26 27  2  0  0  0
 27 28  1  0  0  0
 28 29  2  0  0  0
 29 32  1  0  0  0
 32 33  1  0  0  0
 33 34  1  0  0  0
 34 35  1  0  0  0
 35 36  1  0  0  0
 35 37  1  0  0  0
 37 38  1  0  0  0
 29 30  1  0  0  0
 30 31  2  0  0  0
  3  4  2  0  0  0
  4  5  1  0  0  0
  5  6  2  0  0  0
  6 19  1  0  0  0
 19 20  1  0  0  0
 19 21  2  0  0  0
  9 10  2  0  0  0
 10 11  1  0  0  0
 11 12  2  0  0  0
 12 17  1  0  0  0
 17 18  1  0  0  0
 12  7  1  0  0  0
  6  1  1  0  0  0
 31 26  1  0  0  0
 38 32  1  0  0  0
 24 25  1  0  0  0
 20 22  1  0  0  0
 20 23  1  0  0  0
M  END
> <minimizedAffinity>
-8.76904

> <CNNscore>
0.3176256120

> <CNNaffinity>
6.8552827835

> <CNN_VS>
2.1774134636

> <CNNaffinity_variance>
0.3613983095

$$$$
[H]c1nc(N([H])c2c([H])c([H])c(N3C([H])([H])C([H])([H])N(C([H])([H])[H])C([H])([H])C3([H])[H])c([H])c2[H])nc(-c2c([H])c([H])c(OC([H])([H])[H])c(C(F)(F)F)c2[H])c1C(=O)N([H])[H]


 38 41  0  0  0  0  0  0  0  0999 V2000
   36.3405   14.0244  -13.6544 C   0  0  0  0  0  0  0  0  0  0  0  0
   36.9655   15.0158  -13.0010 N   0  0  0  0  0  0  0  0  0  0  0  0
   36.3801   15.8165  -12.0647 C   0  0  0  0  0  0  0  0  0  0  0  0
   35.0951   15.5354  -11.8351 N   0  0  0  0  0  0  0  0  0  0  0  0
   34.3834   14.5886  -12.4140 C   0  0  0  0  0  0  0  0  0  0  0  0
   35.0220   13.7727  -13.3809 C   0  0  0  0  0  0  0  0  0  0  0  0
   37.1199   11.7686  -16.4960 C   0  0  0  0  0  0  0  0  0  0  0  0
   36.4141   12.5392  -15.6173 C   0  0  0  0  0  0  0  0  0  0  0  0
   37.1203   13.2668  -14.6501 C   0  0  0  0  0  0  0  0  0  0  0  0
   38.4820   13.2212  -14.5697 C   0  0  0  0  0  0  0  0  0  0  0  0
   39.1820   12.4398  -15.4627 C   0  0  0  0  0  0  0  0  0  0  0  0
   38.4973   11.7158  -16.4231 C   0  0  0  0  0  0  0  0  0  0  0  0
   36.3888   10.9779  -17.5431 C   0  0  0  0  0  0  0  0  0  0  0  0
   36.5015    9.6308  -17.1974 F   0  0  0  0  0  0  0  0  0  0  0  0
   36.9922   11.1535  -18.7556 F   0  0  0  0  0  0  0  0  0  0  0  0
   35.0724   11.3658  -17.6197 F   0  0  0  0  0  0  0  0  0  0  0  0
   39.1664   10.9174  -17.3401 O   0  0  0  0  0  0  0  0  0  0  0  0
   40.2329   11.4381  -18.1041 C   0  0  0  0  0  0  0  0  0  0  0  0
   34.2367   12.6824  -13.9079 C   0  0  0  0  0  0  0  0  0  0  0  0
   33.2915   12.8421  -14.9264 N   0  0  0  0  0  0  0  0  0  0  0  0
   34.3969   11.5255  -13.4510 O   0  0  0  0  0  0  0  0  0  0  0  0
   32.3334   12.4065  -14.8620 H   0  0  0  0  0  0  0  0  0  0  0  0
   33.4561   13.3908  -15.8069 H   0  0  0  0  0  0  0  0  0  0  0  0
   37.1099   16.8473  -11.4484 N   0  0  0  0  0  0  0  0  0  0  0  0
   37.3568   17.6677  -12.1069 H   0  0  0  0  0  0  0  0  0  0  0  0
   37.5309   16.9094  -10.1196 C   0  0  0  0  0  0  0  0  0  0  0  0
   36.5737   17.2324   -9.1419 C   0  0  0  0  0  0  0  0  0  0  0  0
   36.9533   17.3271   -7.8334 C   0  0  0  0  0  0  0  0  0  0  0  0
   38.2387   17.1227   -7.4012 C   0  0  0  0  0  0  0  0  0  0  0  0
   39.1723   16.8066   -8.3670 C   0  0  0  0  0  0  0  0  0  0  0  0
   38.8116   16.7017   -9.7269 C   0  0  0  0  0  0  0  0  0  0  0  0
   38.6458   17.2194   -6.0500 N   0  0  0  0  0  0  0  0  0  0  0  0
   39.6241   18.2496   -5.6641 C   0  0  0  0  0  0  0  0  0  0  0  0
   40.1073   18.1017   -4.2628 C   0  0  0  0  0  0  0  0  0  0  0  0
   40.3418   16.7617   -3.8416 N   0  0  0  0  0  0  0  0  0  0  0  0
   41.7057   16.3277   -3.9782 C   0  0  0  0  0  0  0  0  0  0  0  0
   39.3717   15.8033   -4.2409 C   0  0  0  0  0  0  0  0  0  0  0  0
   38.1909   16.3924   -4.9678 C   0  0  0  0  0  0  0  0  0  0  0  0
  7 13  1  0  0  0
 13 14  1  0  0  0
 13 15  1  0  0  0
 13 16  1  0  0  0
  7  8  2  0  0  0
  8  9  1  0  0  0
  9  1  1  0  0  0
  1  2  2  0  0  0
  2  3  1  0  0  0
  3 24  1  0  0  0
 24 26  1  0  0  0
 26 27  2  0  0  0
 27 28  1  0  0  0
 28 29  2  0  0  0
 29 32  1  0  0  0
 32 33  1  0  0  0
 33 34  1  0  0  0
 34 35  1  0  0  0
 35 36  1  0  0  0
 35 37  1  0  0  0
 37 38  1  0  0  0
 29 30  1  0  0  0
 30 31  2  0  0  0
  3  4  2  0  0  0
  4  5  1  0  0  0
  5  6  2  0  0  0
  6 19  1  0  0  0
 19 20  1  0  0  0
 19 21  2  0  0  0
  9 10  2  0  0  0
 10 11  1  0  0  0
 11 12  2  0  0  0
 12 17  1  0  0  0
 17 18  1  0  0  0
 12  7  1  0  0  0
  6  1  1  0  0  0
 31 26  1  0  0  0
 38 32  1  0  0  0
 24 25  1  0  0  0
 20 22  1  0  0  0
 20 23  1  0  0  0
M  END
> <minimizedAffinity>
-8.70468

> <CNNscore>
0.2171647102

> <CNNaffinity>
6.3518190384

> <CNN_VS>
1.3793909550

> <CNNaffinity_variance>
0.1853164136

$$$$
[H]c1nc(N([H])c2c([H])c([H])c(N3C([H])([H])C([H])([H])N(C([H])([H])[H])C([H])([H])C3([H])[H])c([H])c2[H])nc(-c2c([H])c([H])c(OC([H])([H])[H])c(C(F)(F)F)c2[H])c1C(=O)N([H])[H]


 38 41  0  0  0  0  0  0  0  0999 V2000
   36.5893   14.0968  -13.4624 C   0  0  0  0  0  0  0  0  0  0  0  0
   37.4183   14.9166  -12.7984 N   0  0  0  0  0  0  0  0  0  0  0  0
   37.0409   15.7408  -11.7791 C   0  0  0  0  0  0  0  0  0  0  0  0
   35.7420   15.6730  -11.4770 N   0  0  0  0  0  0  0  0  0  0  0  0
   34.8402   14.9069  -12.0583 C   0  0  0  0  0  0  0  0  0  0  0  0
   35.2653   14.0607  -13.1126 C   0  0  0  0  0  0  0  0  0  0  0  0
   36.7872   11.8129  -16.3806 C   0  0  0  0  0  0  0  0  0  0  0  0
   36.2734   12.6322  -15.4168 C   0  0  0  0  0  0  0  0  0  0  0  0
   37.1619   13.2852  -14.5519 C   0  0  0  0  0  0  0  0  0  0  0  0
   38.5130   13.1208  -14.6522 C   0  0  0  0  0  0  0  0  0  0  0  0
   39.0182   12.2912  -15.6293 C   0  0  0  0  0  0  0  0  0  0  0  0
   38.1523   11.6399  -16.4904 C   0  0  0  0  0  0  0  0  0  0  0  0
   35.8582   11.1000  -17.3213 C   0  0  0  0  0  0  0  0  0  0  0  0
   34.5555   11.4147  -16.9332 F   0  0  0  0  0  0  0  0  0  0  0  0
   36.0216    9.7503  -17.1928 F   0  0  0  0  0  0  0  0  0  0  0  0
   36.0963   11.4743  -18.6223 F   0  0  0  0  0  0  0  0  0  0  0  0
   38.6223   10.7964  -17.4871 O   0  0  0  0  0  0  0  0  0  0  0  0
   39.6970   11.1885  -18.3138 C   0  0  0  0  0  0  0  0  0  0  0  0
   34.2686   13.1630  -13.6454 C   0  0  0  0  0  0  0  0  0  0  0  0
   33.2218   13.5847  -14.4715 N   0  0  0  0  0  0  0  0  0  0  0  0
   34.3273   11.9400  -13.3739 O   0  0  0  0  0  0  0  0  0  0  0  0
   32.2306   13.2618  -14.3131 H   0  0  0  0  0  0  0  0  0  0  0  0
   33.3367   14.2353  -15.2883 H   0  0  0  0  0  0  0  0  0  0  0  0
   37.9778   16.5836  -11.1570 N   0  0  0  0  0  0  0  0  0  0  0  0
   37.8794   17.6260  -11.4243 H   0  0  0  0  0  0  0  0  0  0  0  0
   38.9843   16.2170  -10.2629 C   0  0  0  0  0  0  0  0  0  0  0  0
   40.3177   16.4449  -10.6457 C   0  0  0  0  0  0  0  0  0  0  0  0
   41.3311   16.0764   -9.8075 C   0  0  0  0  0  0  0  0  0  0  0  0
   41.1272   15.4844   -8.5874 C   0  0  0  0  0  0  0  0  0  0  0  0
   39.8157   15.2637   -8.2193 C   0  0  0  0  0  0  0  0  0  0  0  0
   38.7468   15.6325   -9.0630 C   0  0  0  0  0  0  0  0  0  0  0  0
   42.1671   15.0962   -7.7107 N   0  0  0  0  0  0  0  0  0  0  0  0
   43.4403   14.6145   -8.2714 C   0  0  0  0  0  0  0  0  0  0  0  0
   44.3585   14.0539   -7.2410 C   0  0  0  0  0  0  0  0  0  0  0  0
   43.7297   13.2699   -6.2321 N   0  0  0  0  0  0  0  0  0  0  0  0
   43.7360   11.8556   -6.4909 C   0  0  0  0  0  0  0  0  0  0  0  0
   42.5022   13.7744   -5.7243 C   0  0  0  0  0  0  0  0  0  0  0  0
   42.1186   15.1229   -6.2758 C   0  0  0  0  0  0  0  0  0  0  0  0
  7 13  1  0  0  0
 13 14  1  0  0  0
 13 15  1  0  0  0
 13 16  1  0  0  0
  7  8  2  0  0  0
  8  9  1  0  0  0
  9  1  1  0  0  0
  1  2  2  0  0  0
  2  3  1  0  0  0
  3 24  1  0  0  0
 24 26  1  0  0  0
 26 27  2  0  0  0
 27 28  1  0  0  0
 28 29  2  0  0  0
 29 32  1  0  0  0
 32 33  1  0  0  0
 33 34  1  0  0  0
 34 35  1  0  0  0
 35 36  1  0  0  0
 35 37  1  0  0  0
 37 38  1  0  0  0
 29 30  1  0  0  0
 30 31  2  0  0  0
  3  4  2  0  0  0
  4  5  1  0  0  0
  5  6  2  0  0  0
  6 19  1  0  0  0
 19 20  1  0  0  0
 19 21  2  0  0  0
  9 10  2  0  0  0
 10 11  1  0  0  0
 11 12  2  0  0  0
 12 17  1  0  0  0
 17 18  1  0  0  0
 12  7  1  0  0  0
  6  1  1  0  0  0
 31 26  1  0  0  0
 38 32  1  0  0  0
 24 25  1  0  0  0
 20 22  1  0  0  0
 20 23  1  0  0  0
M  END
> <minimizedAffinity>
-9.17620

> <CNNscore>
0.2061962783

> <CNNaffinity>
6.5435738564

> <CNN_VS>
1.3492605686

> <CNNaffinity_variance>
0.1930041909

$$$$
[H]c1nc(N([H])c2c([H])c([H])c(N3C([H])([H])C([H])([H])N(C([H])([H])[H])C([H])([H])C3([H])[H])c([H])c2[H])nc(-c2c([H])c([H])c(OC([H])([H])[H])c(C(F)(F)F)c2[H])c1C(=O)N([H])[H]


 38 41  0  0  0  0  0  0  0  0999 V2000
   37.1361   13.4075  -14.0173 C   0  0  0  0  0  0  0  0  0  0  0  0
   38.3152   13.1810  -14.6164 N   0  0  0  0  0  0  0  0  0  0  0  0
   38.4663   12.5479  -15.8151 C   0  0  0  0  0  0  0  0  0  0  0  0
   37.3178   12.1546  -16.3713 N   0  0  0  0  0  0  0  0  0  0  0  0
   36.1077   12.3242  -15.8763 C   0  0  0  0  0  0  0  0  0  0  0  0
   35.9851   12.9877  -14.6301 C   0  0  0  0  0  0  0  0  0  0  0  0
   38.3220   15.4955  -11.1879 C   0  0  0  0  0  0  0  0  0  0  0  0
   38.2495   14.9190  -12.4235 C   0  0  0  0  0  0  0  0  0  0  0  0
   37.1557   14.0916  -12.7115 C   0  0  0  0  0  0  0  0  0  0  0  0
   36.1742   13.8534  -11.7937 C   0  0  0  0  0  0  0  0  0  0  0  0
   36.2596   14.4415  -10.5507 C   0  0  0  0  0  0  0  0  0  0  0  0
   37.3343   15.2609  -10.2526 C   0  0  0  0  0  0  0  0  0  0  0  0
   39.4834   16.3867  -10.8518 C   0  0  0  0  0  0  0  0  0  0  0  0
   40.2405   16.5352  -12.0143 F   0  0  0  0  0  0  0  0  0  0  0  0
   40.2687   15.7826   -9.9119 F   0  0  0  0  0  0  0  0  0  0  0  0
   39.0477   17.6022  -10.3804 F   0  0  0  0  0  0  0  0  0  0  0  0
   37.4560   15.8713   -9.0122 O   0  0  0  0  0  0  0  0  0  0  0  0
   37.5699   15.0971   -7.8376 C   0  0  0  0  0  0  0  0  0  0  0  0
   34.6384   13.2467  -14.1801 C   0  0  0  0  0  0  0  0  0  0  0  0
   33.9797   14.4616  -14.3955 N   0  0  0  0  0  0  0  0  0  0  0  0
   34.0056   12.3519  -13.5703 O   0  0  0  0  0  0  0  0  0  0  0  0
   33.4433   14.9415  -13.6249 H   0  0  0  0  0  0  0  0  0  0  0  0
   33.9678   14.9749  -15.3119 H   0  0  0  0  0  0  0  0  0  0  0  0
   39.7463   12.3347  -16.3547 N   0  0  0  0  0  0  0  0  0  0  0  0
   39.7478   11.7753  -17.2793 H   0  0  0  0  0  0  0  0  0  0  0  0
   40.9678   12.7587  -15.8304 C   0  0  0  0  0  0  0  0  0  0  0  0
   42.1361   12.4323  -16.5409 C   0  0  0  0  0  0  0  0  0  0  0  0
   43.3523   12.8085  -16.0461 C   0  0  0  0  0  0  0  0  0  0  0  0
   43.5111   13.5007  -14.8729 C   0  0  0  0  0  0  0  0  0  0  0  0
   42.3595   13.8168  -14.1813 C   0  0  0  0  0  0  0  0  0  0  0  0
   41.0887   13.4420  -14.6658 C   0  0  0  0  0  0  0  0  0  0  0  0
   44.7641   13.8949  -14.3482 N   0  0  0  0  0  0  0  0  0  0  0  0
   45.7321   12.8628  -13.9417 C   0  0  0  0  0  0  0  0  0  0  0  0
   46.9137   13.4187  -13.2250 C   0  0  0  0  0  0  0  0  0  0  0  0
   46.6260   14.4683  -12.3066 N   0  0  0  0  0  0  0  0  0  0  0  0
   46.4549   14.0351  -10.9463 C   0  0  0  0  0  0  0  0  0  0  0  0
   45.6838   15.4384  -12.7429 C   0  0  0  0  0  0  0  0  0  0  0  0
   45.2171   15.2448  -14.1622 C   0  0  0  0  0  0  0  0  0  0  0  0
  7 13  1  0  0  0
 13 14  1  0  0  0
 13 15  1  0  0  0
 13 16  1  0  0  0
  7  8  2  0  0  0
  8  9  1  0  0  0
  9  1  1  0  0  0
  1  2  2  0  0  0
  2  3  1  0  0  0
  3 24  1  0  0  0
 24 26  1  0  0  0
 26 27  2  0  0  0
 27 28  1  0  0  0
 28 29  2  0  0  0
 29 32  1  0  0  0
 32 33  1  0  0  0
 33 34  1  0  0  0
 34 35  1  0  0  0
 35 36  1  0  0  0
 35 37  1  0  0  0
 37 38  1  0  0  0
 29 30  1  0  0  0
 30 31  2  0  0  0
  3  4  2  0  0  0
  4  5  1  0  0  0
  5  6  2  0  0  0
  6 19  1  0  0  0
 19 20  1  0  0  0
 19 21  2  0  0  0
  9 10  2  0  0  0
 10 11  1  0  0  0
 11 12  2  0  0  0
 12 17  1  0  0  0
 17 18  1  0  0  0
 12  7  1  0  0  0
  6  1  1  0  0  0
 31 26  1  0  0  0
 38 32  1  0  0  0
 24 25  1  0  0  0
 20 22  1  0  0  0
 20 23  1  0  0  0
M  END
> <minimizedAffinity>
-8.64333

> <CNNscore>
0.1964788139

> <CNNaffinity>
6.7199020386

> <CNN_VS>
1.3203183413

> <CNNaffinity_variance>
0.1531443447

$$$$
[H]c1nc(N([H])c2c([H])c([H])c(N3C([H])([H])C([H])([H])N(C([H])([H])[H])C([H])([H])C3([H])[H])c([H])c2[H])nc(-c2c([H])c([H])c(OC([H])([H])[H])c(C(F)(F)F)c2[H])c1C(=O)N([H])[H]


 38 41  0  0  0  0  0  0  0  0999 V2000
   36.5275   13.8648  -13.7131 C   0  0  0  0  0  0  0  0  0  0  0  0
   37.2007   14.7991  -13.0244 N   0  0  0  0  0  0  0  0  0  0  0  0
   36.6591   15.5821  -12.0476 C   0  0  0  0  0  0  0  0  0  0  0  0
   35.3654   15.3460  -11.8159 N   0  0  0  0  0  0  0  0  0  0  0  0
   34.6083   14.4566  -12.4273 C   0  0  0  0  0  0  0  0  0  0  0  0
   35.2021   13.6576  -13.4359 C   0  0  0  0  0  0  0  0  0  0  0  0
   37.1890   11.6200  -16.5932 C   0  0  0  0  0  0  0  0  0  0  0  0
   36.5192   12.3797  -15.6775 C   0  0  0  0  0  0  0  0  0  0  0  0
   37.2647   13.1192  -14.7496 C   0  0  0  0  0  0  0  0  0  0  0  0
   38.6293   13.0957  -14.7428 C   0  0  0  0  0  0  0  0  0  0  0  0
   39.2927   12.3250  -15.6723 C   0  0  0  0  0  0  0  0  0  0  0  0
   38.5690   11.5895  -16.5947 C   0  0  0  0  0  0  0  0  0  0  0  0
   36.4154   10.8169  -17.5995 C   0  0  0  0  0  0  0  0  0  0  0  0
   36.6829   11.3608  -18.8562 F   0  0  0  0  0  0  0  0  0  0  0  0
   35.0772   10.9474  -17.3602 F   0  0  0  0  0  0  0  0  0  0  0  0
   36.7692    9.4898  -17.5436 F   0  0  0  0  0  0  0  0  0  0  0  0
   39.2005   10.8014  -17.5465 O   0  0  0  0  0  0  0  0  0  0  0  0
   40.2485   11.3250  -18.3336 C   0  0  0  0  0  0  0  0  0  0  0  0
   34.3658   12.6258  -14.0009 C   0  0  0  0  0  0  0  0  0  0  0  0
   33.4102   12.8723  -14.9920 N   0  0  0  0  0  0  0  0  0  0  0  0
   34.4885   11.4422  -13.6048 O   0  0  0  0  0  0  0  0  0  0  0  0
   32.4370   12.4710  -14.9308 H   0  0  0  0  0  0  0  0  0  0  0  0
   33.5810   13.4576  -15.8474 H   0  0  0  0  0  0  0  0  0  0  0  0
   37.4383   16.5529  -11.3954 N   0  0  0  0  0  0  0  0  0  0  0  0
   38.1137   17.0878  -12.0477 H   0  0  0  0  0  0  0  0  0  0  0  0
   37.4247   16.8784  -10.0387 C   0  0  0  0  0  0  0  0  0  0  0  0
   36.1860   17.1868   -9.4498 C   0  0  0  0  0  0  0  0  0  0  0  0
   36.1359   17.5345   -8.1299 C   0  0  0  0  0  0  0  0  0  0  0  0
   37.2424   17.6040   -7.3228 C   0  0  0  0  0  0  0  0  0  0  0  0
   38.4544   17.3003   -7.9085 C   0  0  0  0  0  0  0  0  0  0  0  0
   38.5392   16.9380   -9.2694 C   0  0  0  0  0  0  0  0  0  0  0  0
   37.2051   17.9644   -5.9555 N   0  0  0  0  0  0  0  0  0  0  0  0
   36.7671   16.9719   -4.9603 C   0  0  0  0  0  0  0  0  0  0  0  0
   36.5848   17.5493   -3.5992 C   0  0  0  0  0  0  0  0  0  0  0  0
   35.9892   18.8424   -3.5650 N   0  0  0  0  0  0  0  0  0  0  0  0
   34.5659   18.8340   -3.3614 C   0  0  0  0  0  0  0  0  0  0  0  0
   36.4422   19.7642   -4.5469 C   0  0  0  0  0  0  0  0  0  0  0  0
   37.5637   19.2421   -5.4069 C   0  0  0  0  0  0  0  0  0  0  0  0
  7 13  1  0  0  0
 13 14  1  0  0  0
 13 15  1  0  0  0
 13 16  1  0  0  0
  7  8  2  0  0  0
  8  9  1  0  0  0
  9  1  1  0  0  0
  1  2  2  0  0  0
  2  3  1  0  0  0
  3 24  1  0  0  0
 24 26  1  0  0  0
 26 27  2  0  0  0
 27 28  1  0  0  0
 28 29  2  0  0  0
 29 32  1  0  0  0
 32 33  1  0  0  0
 33 34  1  0  0  0
 34 35  1  0  0  0
 35 36  1  0  0  0
 35 37  1  0  0  0
 37 38  1  0  0  0
 29 30  1  0  0  0
 30 31  2  0  0  0
  3  4  2  0  0  0
  4  5  1  0  0  0
  5  6  2  0  0  0
  6 19  1  0  0  0
 19 20  1  0  0  0
 19 21  2  0  0  0
  9 10  2  0  0  0
 10 11  1  0  0  0
 11 12  2  0  0  0
 12 17  1  0  0  0
 17 18  1  0  0  0
 12  7  1  0  0  0
  6  1  1  0  0  0
 31 26  1  0  0  0
 38 32  1  0  0  0
 24 25  1  0  0  0
 20 22  1  0  0  0
 20 23  1  0  0  0
M  END
> <minimizedAffinity>
-8.55958

> <CNNscore>
0.1812055856

> <CNNaffinity>
6.2915940285

> <CNN_VS>
1.1400719881

> <CNNaffinity_variance>
0.1605474353

$$$$
[H]OC(=O)c1c([H])c([H])c(-c2nc3c(OC([H])([H])C([H])=C([H])[H])c([H])c([H])c([H])c3c(=O)n2[H])c(OC([H])([H])[H])c1[H]


 28 30  0  0  0  0  0  0  0  0999 V2000
   39.2587   12.1828  -16.2062 C   0  0  0  0  0  0  0  0  0  0  0  0
   38.9532   11.4251  -17.2668 N   0  0  0  0  0  0  0  0  0  0  0  0
   37.7178   10.9990  -17.5903 C   0  0  0  0  0  0  0  0  0  0  0  0
   37.4808   10.2900  -18.5958 O   0  0  0  0  0  0  0  0  0  0  0  0
   36.6810   11.3625  -16.7770 C   0  0  0  0  0  0  0  0  0  0  0  0
   36.9669   12.1565  -15.6559 C   0  0  0  0  0  0  0  0  0  0  0  0
   35.9459   12.5362  -14.8185 C   0  0  0  0  0  0  0  0  0  0  0  0
   34.6613   12.1104  -15.1289 C   0  0  0  0  0  0  0  0  0  0  0  0
   34.3649   11.3280  -16.2318 C   0  0  0  0  0  0  0  0  0  0  0  0
   35.3942   10.9620  -17.0486 C   0  0  0  0  0  0  0  0  0  0  0  0
   38.2241   12.5464  -15.3933 N   0  0  0  0  0  0  0  0  0  0  0  0
   39.7213   11.1257  -17.9250 H   0  0  0  0  0  0  0  0  0  0  0  0
   42.2930   13.7732  -14.6092 C   0  0  0  0  0  0  0  0  0  0  0  0
   43.3266   13.3668  -15.4192 C   0  0  0  0  0  0  0  0  0  0  0  0
   43.0079   12.5630  -16.4826 C   0  0  0  0  0  0  0  0  0  0  0  0
   41.6756   12.1800  -16.7196 C   0  0  0  0  0  0  0  0  0  0  0  0
   40.6391   12.5840  -15.9123 C   0  0  0  0  0  0  0  0  0  0  0  0
   40.9737   13.3912  -14.8485 C   0  0  0  0  0  0  0  0  0  0  0  0
   44.7130   13.7630  -15.1756 C   0  0  0  0  0  0  0  0  0  0  0  0
   45.5492   12.8817  -14.9229 O   0  0  0  0  0  0  0  0  0  0  0  0
   45.1164   15.0935  -15.2194 O   0  0  0  0  0  0  0  0  0  0  0  0
   46.0100   15.2841  -15.6966 H   0  0  0  0  0  0  0  0  0  0  0  0
   39.9629   13.8232  -14.0115 O   0  0  0  0  0  0  0  0  0  0  0  0
   40.1340   15.1353  -13.4448 C   0  0  0  0  0  0  0  0  0  0  0  0
   36.2179   13.3146  -13.7088 O   0  0  0  0  0  0  0  0  0  0  0  0
   35.1939   13.2838  -12.6974 C   0  0  0  0  0  0  0  0  0  0  0  0
   34.6237   14.6019  -12.4049 C   0  0  0  0  0  0  0  0  0  0  0  0
   35.1818   15.4812  -11.5883 C   0  0  0  0  0  0  0  0  0  0  0  0
 13 14  2  0  0  0
 14 19  1  0  0  0
 19 20  2  0  0  0
 19 21  1  0  0  0
 14 15  1  0  0  0
 15 16  2  0  0  0
 16 17  1  0  0  0
 17  1  1  0  0  0
  1  2  1  0  0  0
  2  3  1  0  0  0
  3  4  2  0  0  0
  3  5  1  0  0  0
  5  6  2  0  0  0
  6  7  1  0  0  0
  7 25  1  0  0  0
 25 26  1  0  0  0
 26 27  1  0  0  0
 27 28  2  0  0  0
  7  8  2  0  0  0
  8  9  1  0  0  0
  9 10  2  0  0  0
  6 11  1  0  0  0
 17 18  2  0  0  0
 18 23  1  0  0  0
 23 24  1  0  0  0
 18 13  1  0  0  0
 11  1  2  0  0  0
 10  5  1  0  0  0
 21 22  1  0  0  0
  2 12  1  0  0  0
M  END
> <minimizedAffinity>
-8.46860

> <CNNscore>
0.5143418908

> <CNNaffinity>
6.3997645378

> <CNN_VS>
3.2916669846

> <CNNaffinity_variance>
0.1839178503

$$$$
[H]OC(=O)c1c([H])c([H])c(-c2nc3c(OC([H])([H])C([H])=C([H])[H])c([H])c([H])c([H])c3c(=O)n2[H])c(OC([H])([H])[H])c1[H]


 28 30  0  0  0  0  0  0  0  0999 V2000
   39.5341   12.5441  -15.6783 C   0  0  0  0  0  0  0  0  0  0  0  0
   40.4337   12.0957  -16.5624 N   0  0  0  0  0  0  0  0  0  0  0  0
   41.7554   12.3499  -16.5267 C   0  0  0  0  0  0  0  0  0  0  0  0
   42.5598   11.9066  -17.3789 O   0  0  0  0  0  0  0  0  0  0  0  0
   42.2308   13.1291  -15.5093 C   0  0  0  0  0  0  0  0  0  0  0  0
   41.3140   13.6162  -14.5653 C   0  0  0  0  0  0  0  0  0  0  0  0
   41.7616   14.4038  -13.5323 C   0  0  0  0  0  0  0  0  0  0  0  0
   43.1207   14.6817  -13.4716 C   0  0  0  0  0  0  0  0  0  0  0  0
   44.0362   14.2072  -14.3951 C   0  0  0  0  0  0  0  0  0  0  0  0
   43.5693   13.4281  -15.4128 C   0  0  0  0  0  0  0  0  0  0  0  0
   40.0079   13.3225  -14.6618 N   0  0  0  0  0  0  0  0  0  0  0  0
   40.1122   11.4861  -17.3610 H   0  0  0  0  0  0  0  0  0  0  0  0
   35.8201   12.3136  -15.0151 C   0  0  0  0  0  0  0  0  0  0  0  0
   35.3537   11.5788  -16.0791 C   0  0  0  0  0  0  0  0  0  0  0  0
   36.2744   11.1736  -17.0099 C   0  0  0  0  0  0  0  0  0  0  0  0
   37.6338   11.5047  -16.8670 C   0  0  0  0  0  0  0  0  0  0  0  0
   38.1045   12.2392  -15.8048 C   0  0  0  0  0  0  0  0  0  0  0  0
   37.1688   12.6389  -14.8775 C   0  0  0  0  0  0  0  0  0  0  0  0
   33.9409   11.2330  -16.2309 C   0  0  0  0  0  0  0  0  0  0  0  0
   33.2347   11.1505  -15.2140 O   0  0  0  0  0  0  0  0  0  0  0  0
   33.3716   10.9955  -17.4777 O   0  0  0  0  0  0  0  0  0  0  0  0
   32.4403   11.4066  -17.6401 H   0  0  0  0  0  0  0  0  0  0  0  0
   37.5978   13.3777  -13.7917 O   0  0  0  0  0  0  0  0  0  0  0  0
   36.7639   13.3150  -12.6201 C   0  0  0  0  0  0  0  0  0  0  0  0
   40.8657   14.8923  -12.5997 O   0  0  0  0  0  0  0  0  0  0  0  0
   41.2026   16.1906  -12.0770 C   0  0  0  0  0  0  0  0  0  0  0  0
   40.6786   16.4304  -10.7294 C   0  0  0  0  0  0  0  0  0  0  0  0
   39.3893   16.5256  -10.4464 C   0  0  0  0  0  0  0  0  0  0  0  0
 13 14  2  0  0  0
 14 19  1  0  0  0
 19 20  2  0  0  0
 19 21  1  0  0  0
 14 15  1  0  0  0
 15 16  2  0  0  0
 16 17  1  0  0  0
 17  1  1  0  0  0
  1  2  1  0  0  0
  2  3  1  0  0  0
  3  4  2  0  0  0
  3  5  1  0  0  0
  5  6  2  0  0  0
  6  7  1  0  0  0
  7 25  1  0  0  0
 25 26  1  0  0  0
 26 27  1  0  0  0
 27 28  2  0  0  0
  7  8  2  0  0  0
  8  9  1  0  0  0
  9 10  2  0  0  0
  6 11  1  0  0  0
 17 18  2  0  0  0
 18 23  1  0  0  0
 23 24  1  0  0  0
 18 13  1  0  0  0
 11  1  2  0  0  0
 10  5  1  0  0  0
 21 22  1  0  0  0
  2 12  1  0  0  0
M  END
> <minimizedAffinity>
-7.80256

> <CNNscore>
0.4529631138

> <CNNaffinity>
6.2156200409

> <CNN_VS>
2.8154466152

> <CNNaffinity_variance>
0.3255711198

$$$$
[H]OC(=O)c1c([H])c([H])c(-c2nc3c(OC([H])([H])C([H])=C([H])[H])c([H])c([H])c([H])c3c(=O)n2[H])c(OC([H])([H])[H])c1[H]


 28 30  0  0  0  0  0  0  0  0999 V2000
   39.3663   12.9900  -15.4142 C   0  0  0  0  0  0  0  0  0  0  0  0
   39.6290   12.4863  -16.6264 N   0  0  0  0  0  0  0  0  0  0  0  0
   40.8584   12.2739  -17.1324 C   0  0  0  0  0  0  0  0  0  0  0  0
   41.0544   11.7990  -18.2752 O   0  0  0  0  0  0  0  0  0  0  0  0
   41.9358   12.5951  -16.3549 C   0  0  0  0  0  0  0  0  0  0  0  0
   41.6954   13.1260  -15.0785 C   0  0  0  0  0  0  0  0  0  0  0  0
   42.7582   13.4605  -14.2744 C   0  0  0  0  0  0  0  0  0  0  0  0
   44.0376   13.2517  -14.7719 C   0  0  0  0  0  0  0  0  0  0  0  0
   44.2892   12.7280  -16.0284 C   0  0  0  0  0  0  0  0  0  0  0  0
   43.2191   12.4042  -16.8097 C   0  0  0  0  0  0  0  0  0  0  0  0
   40.4415   13.3112  -14.6368 N   0  0  0  0  0  0  0  0  0  0  0  0
   38.8278   12.2189  -17.2583 H   0  0  0  0  0  0  0  0  0  0  0  0
   35.6294   12.7017  -14.9255 C   0  0  0  0  0  0  0  0  0  0  0  0
   35.3455   13.7203  -14.0473 C   0  0  0  0  0  0  0  0  0  0  0  0
   36.3974   14.4878  -13.6199 C   0  0  0  0  0  0  0  0  0  0  0  0
   37.7045   14.2300  -14.0704 C   0  0  0  0  0  0  0  0  0  0  0  0
   37.9929   13.2126  -14.9485 C   0  0  0  0  0  0  0  0  0  0  0  0
   36.9267   12.4502  -15.3697 C   0  0  0  0  0  0  0  0  0  0  0  0
   33.9877   13.9911  -13.5766 C   0  0  0  0  0  0  0  0  0  0  0  0
   33.8372   14.6731  -12.5509 O   0  0  0  0  0  0  0  0  0  0  0  0
   32.8675   13.5071  -14.2442 O   0  0  0  0  0  0  0  0  0  0  0  0
   32.0796   14.1635  -14.3491 H   0  0  0  0  0  0  0  0  0  0  0  0
   37.1699   11.4175  -16.2548 O   0  0  0  0  0  0  0  0  0  0  0  0
   36.0656   11.0384  -17.0967 C   0  0  0  0  0  0  0  0  0  0  0  0
   42.5320   13.9885  -13.0170 O   0  0  0  0  0  0  0  0  0  0  0  0
   42.9286   15.3647  -12.8714 C   0  0  0  0  0  0  0  0  0  0  0  0
   41.9581   16.1759  -12.1312 C   0  0  0  0  0  0  0  0  0  0  0  0
   40.6518   16.1341  -12.3395 C   0  0  0  0  0  0  0  0  0  0  0  0
 13 14  2  0  0  0
 14 19  1  0  0  0
 19 20  2  0  0  0
 19 21  1  0  0  0
 14 15  1  0  0  0
 15 16  2  0  0  0
 16 17  1  0  0  0
 17  1  1  0  0  0
  1  2  1  0  0  0
  2  3  1  0  0  0
  3  4  2  0  0  0
  3  5  1  0  0  0
  5  6  2  0  0  0
  6  7  1  0  0  0
  7 25  1  0  0  0
 25 26  1  0  0  0
 26 27  1  0  0  0
 27 28  2  0  0  0
  7  8  2  0  0  0
  8  9  1  0  0  0
  9 10  2  0  0  0
  6 11  1  0  0  0
 17 18  2  0  0  0
 18 23  1  0  0  0
 23 24  1  0  0  0
 18 13  1  0  0  0
 11  1  2  0  0  0
 10  5  1  0  0  0
 21 22  1  0  0  0
  2 12  1  0  0  0
M  END
> <minimizedAffinity>
-8.28610

> <CNNscore>
0.4188679755

> <CNNaffinity>
6.2518949509

> <CNN_VS>
2.6187186241

> <CNNaffinity_variance>
0.1952772439

$$$$
[H]OC(=O)c1c([H])c([H])c(-c2nc3c(OC([H])([H])C([H])=C([H])[H])c([H])c([H])c([H])c3c(=O)n2[H])c(OC([H])([H])[H])c1[H]


 28 30  0  0  0  0  0  0  0  0999 V2000
   39.4042   12.9925  -15.4950 C   0  0  0  0  0  0  0  0  0  0  0  0
   39.6678   12.4560  -16.6929 N   0  0  0  0  0  0  0  0  0  0  0  0
   40.8974   12.2159  -17.1858 C   0  0  0  0  0  0  0  0  0  0  0  0
   41.0943   11.7107  -18.3154 O   0  0  0  0  0  0  0  0  0  0  0  0
   41.9741   12.5425  -16.4096 C   0  0  0  0  0  0  0  0  0  0  0  0
   41.7328   13.1075  -15.1480 C   0  0  0  0  0  0  0  0  0  0  0  0
   42.7948   13.4482  -14.3456 C   0  0  0  0  0  0  0  0  0  0  0  0
   44.0745   13.2113  -14.8297 C   0  0  0  0  0  0  0  0  0  0  0  0
   44.3270   12.6539  -16.0714 C   0  0  0  0  0  0  0  0  0  0  0  0
   43.2576   12.3244  -16.8514 C   0  0  0  0  0  0  0  0  0  0  0  0
   40.4787   13.3190  -14.7190 N   0  0  0  0  0  0  0  0  0  0  0  0
   38.8671   12.1833  -17.3232 H   0  0  0  0  0  0  0  0  0  0  0  0
   36.3957   14.4316  -13.7161 C   0  0  0  0  0  0  0  0  0  0  0  0
   35.3575   13.6533  -14.1698 C   0  0  0  0  0  0  0  0  0  0  0  0
   35.6643   12.6640  -15.0672 C   0  0  0  0  0  0  0  0  0  0  0  0
   36.9897   12.4678  -15.4948 C   0  0  0  0  0  0  0  0  0  0  0  0
   38.0309   13.2435  -15.0436 C   0  0  0  0  0  0  0  0  0  0  0  0
   37.7081   14.2329  -14.1424 C   0  0  0  0  0  0  0  0  0  0  0  0
   33.9782   13.8547  -13.7277 C   0  0  0  0  0  0  0  0  0  0  0  0
   33.7775   14.3686  -12.6162 O   0  0  0  0  0  0  0  0  0  0  0  0
   32.8921   13.4876  -14.5154 O   0  0  0  0  0  0  0  0  0  0  0  0
   32.1089   14.1568  -14.5536 H   0  0  0  0  0  0  0  0  0  0  0  0
   38.7240   15.0358  -13.6605 O   0  0  0  0  0  0  0  0  0  0  0  0
   38.7005   15.2973  -12.2451 C   0  0  0  0  0  0  0  0  0  0  0  0
   42.5677   14.0096  -13.1029 O   0  0  0  0  0  0  0  0  0  0  0  0
   43.7590   14.2322  -12.3260 C   0  0  0  0  0  0  0  0  0  0  0  0
   43.8369   15.5781  -11.7509 C   0  0  0  0  0  0  0  0  0  0  0  0
   43.8007   16.6892  -12.4689 C   0  0  0  0  0  0  0  0  0  0  0  0
 13 14  2  0  0  0
 14 19  1  0  0  0
 19 20  2  0  0  0
 19 21  1  0  0  0
 14 15  1  0  0  0
 15 16  2  0  0  0
 16 17  1  0  0  0
 17  1  1  0  0  0
  1  2  1  0  0  0
  2  3  1  0  0  0
  3  4  2  0  0  0
  3  5  1  0  0  0
  5  6  2  0  0  0
  6  7  1  0  0  0
  7 25  1  0  0  0
 25 26  1  0  0  0
 26 27  1  0  0  0
 27 28  2  0  0  0
  7  8  2  0  0  0
  8  9  1  0  0  0
  9 10  2  0  0  0
  6 11  1  0  0  0
 17 18  2  0  0  0
 18 23  1  0  0  0
 23 24  1  0  0  0
 18 13  1  0  0  0
 11  1  2  0  0  0
 10  5  1  0  0  0
 21 22  1  0  0  0
  2 12  1  0  0  0
M  END
> <minimizedAffinity>
-7.96947

> <CNNscore>
0.4066796303

> <CNNaffinity>
6.2246894836

> <CNN_VS>
2.5314543247

> <CNNaffinity_variance>
0.3916981518

$$$$
[H]OC(=O)c1c([H])c([H])c(-c2nc3c(OC([H])([H])C([H])=C([H])[H])c([H])c([H])c([H])c3c(=O)n2[H])c(OC([H])([H])[H])c1[H]


 28 30  0  0  0  0  0  0  0  0999 V2000
   37.4801   12.9729  -14.7672 C   0  0  0  0  0  0  0  0  0  0  0  0
   36.6876   12.1043  -15.4073 N   0  0  0  0  0  0  0  0  0  0  0  0
   37.0342   11.3862  -16.4921 C   0  0  0  0  0  0  0  0  0  0  0  0
   36.2558   10.5837  -17.0577 O   0  0  0  0  0  0  0  0  0  0  0  0
   38.2963   11.5481  -16.9914 C   0  0  0  0  0  0  0  0  0  0  0  0
   39.1528   12.4517  -16.3441 C   0  0  0  0  0  0  0  0  0  0  0  0
   40.4268   12.6375  -16.8239 C   0  0  0  0  0  0  0  0  0  0  0  0
   40.8104   11.9092  -17.9421 C   0  0  0  0  0  0  0  0  0  0  0  0
   39.9764   11.0140  -18.5898 C   0  0  0  0  0  0  0  0  0  0  0  0
   38.7157   10.8464  -18.0968 C   0  0  0  0  0  0  0  0  0  0  0  0
   38.7408   13.1354  -15.2650 N   0  0  0  0  0  0  0  0  0  0  0  0
   35.7071   11.9435  -15.0533 H   0  0  0  0  0  0  0  0  0  0  0  0
   35.3368   14.9926  -12.3979 C   0  0  0  0  0  0  0  0  0  0  0  0
   36.1814   15.2434  -11.3428 C   0  0  0  0  0  0  0  0  0  0  0  0
   37.4510   14.7336  -11.4241 C   0  0  0  0  0  0  0  0  0  0  0  0
   37.8552   13.9880  -12.5460 C   0  0  0  0  0  0  0  0  0  0  0  0
   37.0140   13.7348  -13.6032 C   0  0  0  0  0  0  0  0  0  0  0  0
   35.7423   14.2533  -13.5082 C   0  0  0  0  0  0  0  0  0  0  0  0
   35.7644   16.0180  -10.1746 C   0  0  0  0  0  0  0  0  0  0  0  0
   34.9431   15.5183   -9.3902 O   0  0  0  0  0  0  0  0  0  0  0  0
   36.2612   17.2924   -9.9215 O   0  0  0  0  0  0  0  0  0  0  0  0
   36.5118   17.4986   -8.9430 H   0  0  0  0  0  0  0  0  0  0  0  0
   34.8632   14.0252  -14.5494 O   0  0  0  0  0  0  0  0  0  0  0  0
   33.5860   13.4712  -14.1836 C   0  0  0  0  0  0  0  0  0  0  0  0
   41.2767   13.5288  -16.1961 O   0  0  0  0  0  0  0  0  0  0  0  0
   42.3556   12.9095  -15.4716 C   0  0  0  0  0  0  0  0  0  0  0  0
   43.6677   13.1152  -16.0915 C   0  0  0  0  0  0  0  0  0  0  0  0
   44.3985   12.1410  -16.6097 C   0  0  0  0  0  0  0  0  0  0  0  0
 13 14  2  0  0  0
 14 19  1  0  0  0
 19 20  2  0  0  0
 19 21  1  0  0  0
 14 15  1  0  0  0
 15 16  2  0  0  0
 16 17  1  0  0  0
 17  1  1  0  0  0
  1  2  1  0  0  0
  2  3  1  0  0  0
  3  4  2  0  0  0
  3  5  1  0  0  0
  5  6  2  0  0  0
  6  7  1  0  0  0
  7 25  1  0  0  0
 25 26  1  0  0  0
 26 27  1  0  0  0
 27 28  2  0  0  0
  7  8  2  0  0  0
  8  9  1  0  0  0
  9 10  2  0  0  0
  6 11  1  0  0  0
 17 18  2  0  0  0
 18 23  1  0  0  0
 23 24  1  0  0  0
 18 13  1  0  0  0
 11  1  2  0  0  0
 10  5  1  0  0  0
 21 22  1  0  0  0
  2 12  1  0  0  0
M  END
> <minimizedAffinity>
-8.30868

> <CNNscore>
0.3926785588

> <CNNaffinity>
6.3308882713

> <CNN_VS>
2.4860041142

> <CNNaffinity_variance>
0.1565346867

$$$$
[H]OC(=O)c1c([H])c([H])c(-c2nc3c(OC([H])([H])C([H])=C([H])[H])c([H])c([H])c([H])c3c(=O)n2[H])c(OC([H])([H])[H])c1[H]


 28 30  0  0  0  0  0  0  0  0999 V2000
   40.1161   13.8062  -14.1164 C   0  0  0  0  0  0  0  0  0  0  0  0
   40.0381   14.8101  -13.2342 N   0  0  0  0  0  0  0  0  0  0  0  0
   38.9122   15.2259  -12.6241 C   0  0  0  0  0  0  0  0  0  0  0  0
   38.8892   16.1724  -11.8034 O   0  0  0  0  0  0  0  0  0  0  0  0
   37.7457   14.5784  -12.9213 C   0  0  0  0  0  0  0  0  0  0  0  0
   37.7922   13.5214  -13.8430 C   0  0  0  0  0  0  0  0  0  0  0  0
   36.6355   12.8526  -14.1635 C   0  0  0  0  0  0  0  0  0  0  0  0
   35.4596   13.2612  -13.5486 C   0  0  0  0  0  0  0  0  0  0  0  0
   35.3993   14.3013  -12.6371 C   0  0  0  0  0  0  0  0  0  0  0  0
   36.5596   14.9517  -12.3347 C   0  0  0  0  0  0  0  0  0  0  0  0
   38.9516   13.1589  -14.4140 N   0  0  0  0  0  0  0  0  0  0  0  0
   40.9148   15.3342  -12.9708 H   0  0  0  0  0  0  0  0  0  0  0  0
   42.6711   12.5147  -16.5842 C   0  0  0  0  0  0  0  0  0  0  0  0
   43.8640   12.6845  -15.9228 C   0  0  0  0  0  0  0  0  0  0  0  0
   43.8099   13.2328  -14.6679 C   0  0  0  0  0  0  0  0  0  0  0  0
   42.5782   13.6003  -14.0971 C   0  0  0  0  0  0  0  0  0  0  0  0
   41.3830   13.4323  -14.7549 C   0  0  0  0  0  0  0  0  0  0  0  0
   41.4524   12.8801  -16.0141 C   0  0  0  0  0  0  0  0  0  0  0  0
   45.1465   12.3037  -16.5133 C   0  0  0  0  0  0  0  0  0  0  0  0
   46.1761   12.4244  -15.8313 O   0  0  0  0  0  0  0  0  0  0  0  0
   45.2419   11.8129  -17.8113 O   0  0  0  0  0  0  0  0  0  0  0  0
   45.8737   11.0104  -17.9507 H   0  0  0  0  0  0  0  0  0  0  0  0
   40.2748   12.6909  -16.7114 O   0  0  0  0  0  0  0  0  0  0  0  0
   40.4029   12.0714  -18.0044 C   0  0  0  0  0  0  0  0  0  0  0  0
   36.6701   11.8128  -15.0738 O   0  0  0  0  0  0  0  0  0  0  0  0
   35.5268   11.7502  -15.9464 C   0  0  0  0  0  0  0  0  0  0  0  0
   35.7690   10.9810  -17.1702 C   0  0  0  0  0  0  0  0  0  0  0  0
   36.9738   10.7359  -17.6600 C   0  0  0  0  0  0  0  0  0  0  0  0
 13 14  2  0  0  0
 14 19  1  0  0  0
 19 20  2  0  0  0
 19 21  1  0  0  0
 14 15  1  0  0  0
 15 16  2  0  0  0
 16 17  1  0  0  0
 17  1  1  0  0  0
  1  2  1  0  0  0
  2  3  1  0  0  0
  3  4  2  0  0  0
  3  5  1  0  0  0
  5  6  2  0  0  0
  6  7  1  0  0  0
  7 25  1  0  0  0
 25 26  1  0  0  0
 26 27  1  0  0  0
 27 28  2  0  0  0
  7  8  2  0  0  0
  8  9  1  0  0  0
  9 10  2  0  0  0
  6 11  1  0  0  0
 17 18  2  0  0  0
 18 23  1  0  0  0
 23 24  1  0  0  0
 18 13  1  0  0  0
 11  1  2  0  0  0
 10  5  1  0  0  0
 21 22  1  0  0  0
  2 12  1  0  0  0
M  END
> <minimizedAffinity>
-8.87712

> <CNNscore>
0.3822128475

> <CNNaffinity>
6.2232384682

> <CNN_VS>
2.3786017895

> <CNNaffinity_variance>
0.0867153555

$$$$
[H]OC(=O)c1c([H])c([H])c(-c2nc3c(OC([H])([H])C([H])=C([H])[H])c([H])c([H])c([H])c3c(=O)n2[H])c(OC([H])([H])[H])c1[H]


 28 30  0  0  0  0  0  0  0  0999 V2000
   38.0095   13.0081  -14.9312 C   0  0  0  0  0  0  0  0  0  0  0  0
   38.2755   12.3825  -16.0844 N   0  0  0  0  0  0  0  0  0  0  0  0
   37.4092   11.6159  -16.7732 C   0  0  0  0  0  0  0  0  0  0  0  0
   37.7051   11.0496  -17.8510 O   0  0  0  0  0  0  0  0  0  0  0  0
   36.1510   11.4546  -16.2639 C   0  0  0  0  0  0  0  0  0  0  0  0
   35.8392   12.0967  -15.0558 C   0  0  0  0  0  0  0  0  0  0  0  0
   34.5833   11.9518  -14.5178 C   0  0  0  0  0  0  0  0  0  0  0  0
   33.6698   11.1662  -15.2080 C   0  0  0  0  0  0  0  0  0  0  0  0
   33.9634   10.5280  -16.4008 C   0  0  0  0  0  0  0  0  0  0  0  0
   35.2167   10.6850  -16.9158 C   0  0  0  0  0  0  0  0  0  0  0  0
   36.7532   12.8477  -14.4216 N   0  0  0  0  0  0  0  0  0  0  0  0
   39.2323   12.4837  -16.5171 H   0  0  0  0  0  0  0  0  0  0  0  0
   41.3112   14.4227  -13.7548 C   0  0  0  0  0  0  0  0  0  0  0  0
   40.9397   15.3507  -12.8112 C   0  0  0  0  0  0  0  0  0  0  0  0
   39.5976   15.5036  -12.5800 C   0  0  0  0  0  0  0  0  0  0  0  0
   38.6548   14.7359  -13.2871 C   0  0  0  0  0  0  0  0  0  0  0  0
   39.0218   13.8069  -14.2314 C   0  0  0  0  0  0  0  0  0  0  0  0
   40.3730   13.6636  -14.4528 C   0  0  0  0  0  0  0  0  0  0  0  0
   41.9172   16.1507  -12.0743 C   0  0  0  0  0  0  0  0  0  0  0  0
   42.6756   16.8993  -12.7101 O   0  0  0  0  0  0  0  0  0  0  0  0
   42.0184   16.0949  -10.6882 O   0  0  0  0  0  0  0  0  0  0  0  0
   42.1407   16.9961  -10.2027 H   0  0  0  0  0  0  0  0  0  0  0  0
   40.7877   12.7393  -15.3922 O   0  0  0  0  0  0  0  0  0  0  0  0
   42.1077   12.9392  -15.9304 C   0  0  0  0  0  0  0  0  0  0  0  0
   34.2676   12.5765  -13.3257 O   0  0  0  0  0  0  0  0  0  0  0  0
   33.7680   13.9185  -13.4735 C   0  0  0  0  0  0  0  0  0  0  0  0
   34.3796   14.8737  -12.5453 C   0  0  0  0  0  0  0  0  0  0  0  0
   33.7431   15.4133  -11.5180 C   0  0  0  0  0  0  0  0  0  0  0  0
 13 14  2  0  0  0
 14 19  1  0  0  0
 19 20  2  0  0  0
 19 21  1  0  0  0
 14 15  1  0  0  0
 15 16  2  0  0  0
 16 17  1  0  0  0
 17  1  1  0  0  0
  1  2  1  0  0  0
  2  3  1  0  0  0
  3  4  2  0  0  0
  3  5  1  0  0  0
  5  6  2  0  0  0
  6  7  1  0  0  0
  7 25  1  0  0  0
 25 26  1  0  0  0
 26 27  1  0  0  0
 27 28  2  0  0  0
  7  8  2  0  0  0
  8  9  1  0  0  0
  9 10  2  0  0  0
  6 11  1  0  0  0
 17 18  2  0  0  0
 18 23  1  0  0  0
 23 24  1  0  0  0
 18 13  1  0  0  0
 11  1  2  0  0  0
 10  5  1  0  0  0
 21 22  1  0  0  0
  2 12  1  0  0  0
M  END
> <minimizedAffinity>
-7.85287

> <CNNscore>
0.3558048904

> <CNNaffinity>
6.1955690384

> <CNN_VS>
2.2044136524

> <CNNaffinity_variance>
0.1497591734

$$$$
[H]OC(=O)c1c([H])c([H])c(-c2nc3c(OC([H])([H])C([H])=C([H])[H])c([H])c([H])c([H])c3c(=O)n2[H])c(OC([H])([H])[H])c1[H]


 28 30  0  0  0  0  0  0  0  0999 V2000
   36.3627   13.3962  -14.1375 C   0  0  0  0  0  0  0  0  0  0  0  0
   35.2708   12.8210  -14.6563 N   0  0  0  0  0  0  0  0  0  0  0  0
   35.2572   11.9840  -15.7107 C   0  0  0  0  0  0  0  0  0  0  0  0
   34.2074   11.4691  -16.1610 O   0  0  0  0  0  0  0  0  0  0  0  0
   36.4496   11.6891  -16.3104 C   0  0  0  0  0  0  0  0  0  0  0  0
   37.6138   12.2759  -15.7915 C   0  0  0  0  0  0  0  0  0  0  0  0
   38.8272   12.0003  -16.3743 C   0  0  0  0  0  0  0  0  0  0  0  0
   38.8418   11.1397  -17.4639 C   0  0  0  0  0  0  0  0  0  0  0  0
   37.7015   10.5532  -17.9853 C   0  0  0  0  0  0  0  0  0  0  0  0
   36.5079   10.8419  -17.3916 C   0  0  0  0  0  0  0  0  0  0  0  0
   37.5541   13.1025  -14.7356 N   0  0  0  0  0  0  0  0  0  0  0  0
   34.3296   13.0158  -14.2217 H   0  0  0  0  0  0  0  0  0  0  0  0
   37.2650   15.8987  -11.4523 C   0  0  0  0  0  0  0  0  0  0  0  0
   36.0896   16.0545  -10.7570 C   0  0  0  0  0  0  0  0  0  0  0  0
   35.0073   15.3340  -11.1904 C   0  0  0  0  0  0  0  0  0  0  0  0
   35.1127   14.4770  -12.3006 C   0  0  0  0  0  0  0  0  0  0  0  0
   36.2861   14.3182  -12.9987 C   0  0  0  0  0  0  0  0  0  0  0  0
   37.3648   15.0476  -12.5520 C   0  0  0  0  0  0  0  0  0  0  0  0
   35.9763   16.9448   -9.6025 C   0  0  0  0  0  0  0  0  0  0  0  0
   35.1593   16.6647   -8.7116 O   0  0  0  0  0  0  0  0  0  0  0  0
   36.7555   18.0902   -9.4776 O   0  0  0  0  0  0  0  0  0  0  0  0
   37.1500   18.2744   -8.5431 H   0  0  0  0  0  0  0  0  0  0  0  0
   38.5657   14.9172  -13.2227 O   0  0  0  0  0  0  0  0  0  0  0  0
   39.7089   15.5181  -12.5870 C   0  0  0  0  0  0  0  0  0  0  0  0
   39.9794   12.5770  -15.8734 O   0  0  0  0  0  0  0  0  0  0  0  0
   41.1246   12.4617  -16.7381 C   0  0  0  0  0  0  0  0  0  0  0  0
   42.3890   12.8014  -16.0793 C   0  0  0  0  0  0  0  0  0  0  0  0
   43.5652   12.3213  -16.4503 C   0  0  0  0  0  0  0  0  0  0  0  0
 13 14  2  0  0  0
 14 19  1  0  0  0
 19 20  2  0  0  0
 19 21  1  0  0  0
 14 15  1  0  0  0
 15 16  2  0  0  0
 16 17  1  0  0  0
 17  1  1  0  0  0
  1  2  1  0  0  0
  2  3  1  0  0  0
  3  4  2  0  0  0
  3  5  1  0  0  0
  5  6  2  0  0  0
  6  7  1  0  0  0
  7 25  1  0  0  0
 25 26  1  0  0  0
 26 27  1  0  0  0
 27 28  2  0  0  0
  7  8  2  0  0  0
  8  9  1  0  0  0
  9 10  2  0  0  0
  6 11  1  0  0  0
 17 18  2  0  0  0
 18 23  1  0  0  0
 23 24  1  0  0  0
 18 13  1  0  0  0
 11  1  2  0  0  0
 10  5  1  0  0  0
 21 22  1  0  0  0
  2 12  1  0  0  0
M  END
> <minimizedAffinity>
-8.31102

> <CNNscore>
0.3540621996

> <CNNaffinity>
6.2694592476

> <CNN_VS>
2.2197785378

> <CNNaffinity_variance>
0.3722122610

$$$$
[H]OC(=O)c1c([H])c([H])c(-c2nc3c(OC([H])([H])C([H])=C([H])[H])c([H])c([H])c([H])c3c(=O)n2[H])c(OC([H])([H])[H])c1[H]


 28 30  0  0  0  0  0  0  0  0999 V2000
   37.2589   12.9176  -14.9839 C   0  0  0  0  0  0  0  0  0  0  0  0
   36.5307   12.0357  -15.6798 N   0  0  0  0  0  0  0  0  0  0  0  0
   36.9694   11.3221  -16.7338 C   0  0  0  0  0  0  0  0  0  0  0  0
   36.2487   10.5065  -17.3545 O   0  0  0  0  0  0  0  0  0  0  0  0
   38.2627   11.5037  -17.1371 C   0  0  0  0  0  0  0  0  0  0  0  0
   39.0536   12.4216  -16.4293 C   0  0  0  0  0  0  0  0  0  0  0  0
   40.3570   12.6274  -16.8123 C   0  0  0  0  0  0  0  0  0  0  0  0
   40.8352   11.9040  -17.8968 C   0  0  0  0  0  0  0  0  0  0  0  0
   40.0668   10.9948  -18.6033 C   0  0  0  0  0  0  0  0  0  0  0  0
   38.7754   10.8075  -18.2061 C   0  0  0  0  0  0  0  0  0  0  0  0
   38.5507   13.0998  -15.3859 N   0  0  0  0  0  0  0  0  0  0  0  0
   35.5290   11.8595  -15.4002 H   0  0  0  0  0  0  0  0  0  0  0  0
   36.9048   15.0529  -11.8853 C   0  0  0  0  0  0  0  0  0  0  0  0
   35.5468   15.0819  -11.6744 C   0  0  0  0  0  0  0  0  0  0  0  0
   34.7614   14.3994  -12.5664 C   0  0  0  0  0  0  0  0  0  0  0  0
   35.3370   13.7050  -13.6455 C   0  0  0  0  0  0  0  0  0  0  0  0
   36.6944   13.6733  -13.8602 C   0  0  0  0  0  0  0  0  0  0  0  0
   37.4708   14.3626  -12.9562 C   0  0  0  0  0  0  0  0  0  0  0  0
   34.9449   15.8031  -10.5537 C   0  0  0  0  0  0  0  0  0  0  0  0
   35.6249   16.6527   -9.9574 O   0  0  0  0  0  0  0  0  0  0  0  0
   33.6383   15.5633  -10.1412 O   0  0  0  0  0  0  0  0  0  0  0  0
   33.0728   16.3936   -9.9102 H   0  0  0  0  0  0  0  0  0  0  0  0
   38.8412   14.3562  -13.1319 O   0  0  0  0  0  0  0  0  0  0  0  0
   39.5517   15.4762  -12.5726 C   0  0  0  0  0  0  0  0  0  0  0  0
   41.1429   13.5329  -16.1244 O   0  0  0  0  0  0  0  0  0  0  0  0
   42.2582   12.9435  -15.4308 C   0  0  0  0  0  0  0  0  0  0  0  0
   43.5567   13.2864  -16.0176 C   0  0  0  0  0  0  0  0  0  0  0  0
   44.4803   12.3934  -16.3357 C   0  0  0  0  0  0  0  0  0  0  0  0
 13 14  2  0  0  0
 14 19  1  0  0  0
 19 20  2  0  0  0
 19 21  1  0  0  0
 14 15  1  0  0  0
 15 16  2  0  0  0
 16 17  1  0  0  0
 17  1  1  0  0  0
  1  2  1  0  0  0
  2  3  1  0  0  0
  3  4  2  0  0  0
  3  5  1  0  0  0
  5  6  2  0  0  0
  6  7  1  0  0  0
  7 25  1  0  0  0
 25 26  1  0  0  0
 26 27  1  0  0  0
 27 28  2  0  0  0
  7  8  2  0  0  0
  8  9  1  0  0  0
  9 10  2  0  0  0
  6 11  1  0  0  0
 17 18  2  0  0  0
 18 23  1  0  0  0
 23 24  1  0  0  0
 18 13  1  0  0  0
 11  1  2  0  0  0
 10  5  1  0  0  0
 21 22  1  0  0  0
  2 12  1  0  0  0
M  END
> <minimizedAffinity>
-8.27636

> <CNNscore>
0.3510810137

> <CNNaffinity>
6.2256999016

> <CNN_VS>
2.1857249737

> <CNNaffinity_variance>
0.1272028834

$$$$
[H]c1c([H])c([H])c(C([H])([H])n2c([H])c([H])c3c([H])c(N([H])S(=O)(=O)c4c([H])c([H])c(C(C([H])([H])[H])(C([H])([H])[H])C([H])([H])[H])c([H])c4[H])c([H])c([H])c32)c([H])c1[H]


 31 34  0  0  0  0  0  0  0  0999 V2000
   41.6288   13.3166  -16.4964 C   0  0  0  0  0  0  0  0  0  0  0  0
   41.0551   13.7025  -15.2644 C   0  0  0  0  0  0  0  0  0  0  0  0
   41.7913   13.7608  -14.1123 C   0  0  0  0  0  0  0  0  0  0  0  0
   43.1417   13.4312  -14.1554 C   0  0  0  0  0  0  0  0  0  0  0  0
   44.0758   13.3853  -13.1548 N   0  0  0  0  0  0  0  0  0  0  0  0
   45.2337   12.9906  -13.7134 C   0  0  0  0  0  0  0  0  0  0  0  0
   45.0416   12.7808  -15.0704 C   0  0  0  0  0  0  0  0  0  0  0  0
   43.7217   13.0589  -15.3370 C   0  0  0  0  0  0  0  0  0  0  0  0
   42.9411   13.0106  -16.4856 C   0  0  0  0  0  0  0  0  0  0  0  0
   40.7600   13.1462  -17.5744 N   0  0  0  0  0  0  0  0  0  0  0  0
   40.6042   13.9233  -18.2692 H   0  0  0  0  0  0  0  0  0  0  0  0
   39.9029   11.6792  -17.7941 S   0  0  0  0  0  0  0  0  0  0  0  0
   39.7063   11.4351  -19.2724 O   0  0  0  0  0  0  0  0  0  0  0  0
   40.6202   10.5051  -17.1792 O   0  0  0  0  0  0  0  0  0  0  0  0
   35.8974   11.9530  -15.5531 C   0  0  0  0  0  0  0  0  0  0  0  0
   35.9606   11.3141  -16.7670 C   0  0  0  0  0  0  0  0  0  0  0  0
   37.1710   11.2093  -17.4814 C   0  0  0  0  0  0  0  0  0  0  0  0
   38.3237   11.7294  -17.0153 C   0  0  0  0  0  0  0  0  0  0  0  0
   38.2552   12.3864  -15.7639 C   0  0  0  0  0  0  0  0  0  0  0  0
   37.0873   12.4949  -15.0592 C   0  0  0  0  0  0  0  0  0  0  0  0
   33.5891   11.1854  -15.0416 C   0  0  0  0  0  0  0  0  0  0  0  0
   34.6881   12.1401  -14.7208 C   0  0  0  0  0  0  0  0  0  0  0  0
   34.1454   13.5691  -14.9159 C   0  0  0  0  0  0  0  0  0  0  0  0
   35.0526   12.0639  -13.2565 C   0  0  0  0  0  0  0  0  0  0  0  0
   43.7733   13.6764  -11.7846 C   0  0  0  0  0  0  0  0  0  0  0  0
   44.2749   14.9459  -11.2794 C   0  0  0  0  0  0  0  0  0  0  0  0
   44.8075   15.0635  -10.0231 C   0  0  0  0  0  0  0  0  0  0  0  0
   45.3315   16.2662   -9.5921 C   0  0  0  0  0  0  0  0  0  0  0  0
   45.3065   17.3417  -10.4538 C   0  0  0  0  0  0  0  0  0  0  0  0
   44.7756   17.2609  -11.7334 C   0  0  0  0  0  0  0  0  0  0  0  0
   44.2620   16.0404  -12.1217 C   0  0  0  0  0  0  0  0  0  0  0  0
 21 22  1  0  0  0
 22 23  1  0  0  0
 22 24  1  0  0  0
 22 15  1  0  0  0
 15 16  2  0  0  0
 16 17  1  0  0  0
 17 18  2  0  0  0
 18 19  1  0  0  0
 19 20  2  0  0  0
 18 12  1  0  0  0
 12 13  2  0  0  0
 12 14  2  0  0  0
 12 10  1  0  0  0
 10  1  1  0  0  0
  1  2  2  0  0  0
  2  3  1  0  0  0
  3  4  2  0  0  0
  4  5  1  0  0  0
  5 25  1  0  0  0
 25 26  1  0  0  0
 26 27  2  0  0  0
 27 28  1  0  0  0
 28 29  2  0  0  0
 29 30  1  0  0  0
 30 31  2  0  0  0
  5  6  1  0  0  0
  6  7  2  0  0  0
  7  8  1  0  0  0
  8  9  2  0  0  0
 20 15  1  0  0  0
  9  1  1  0  0  0
  8  4  1  0  0  0
 31 26  1  0  0  0
 10 11  1  0  0  0
M  END
> <minimizedAffinity>
-7.74374

> <CNNscore>
0.6474581957

> <CNNaffinity>
6.9999465942

> <CNN_VS>
4.5321726799

> <CNNaffinity_variance>
0.1231307760

$$$$
[H]c1c([H])c([H])c(C([H])([H])n2c([H])c([H])c3c([H])c(N([H])S(=O)(=O)c4c([H])c([H])c(C(C([H])([H])[H])(C([H])([H])[H])C([H])([H])[H])c([H])c4[H])c([H])c([H])c32)c([H])c1[H]


 31 34  0  0  0  0  0  0  0  0999 V2000
   42.4429   13.6033  -15.9033 C   0  0  0  0  0  0  0  0  0  0  0  0
   42.0725   13.5889  -14.5401 C   0  0  0  0  0  0  0  0  0  0  0  0
   42.9840   13.3526  -13.5471 C   0  0  0  0  0  0  0  0  0  0  0  0
   44.3117   13.1202  -13.8893 C   0  0  0  0  0  0  0  0  0  0  0  0
   45.3948   12.8380  -13.0999 N   0  0  0  0  0  0  0  0  0  0  0  0
   46.4501   12.6811  -13.9186 C   0  0  0  0  0  0  0  0  0  0  0  0
   46.0436   12.8598  -15.2322 C   0  0  0  0  0  0  0  0  0  0  0  0
   44.6964   13.1333  -15.2020 C   0  0  0  0  0  0  0  0  0  0  0  0
   43.7416   13.3760  -16.1820 C   0  0  0  0  0  0  0  0  0  0  0  0
   41.4131   13.7042  -16.8389 N   0  0  0  0  0  0  0  0  0  0  0  0
   41.1500   14.6374  -17.2523 H   0  0  0  0  0  0  0  0  0  0  0  0
   40.5295   12.3217  -17.3317 S   0  0  0  0  0  0  0  0  0  0  0  0
   40.3497   12.3555  -18.8317 O   0  0  0  0  0  0  0  0  0  0  0  0
   41.2134   11.0392  -16.9336 O   0  0  0  0  0  0  0  0  0  0  0  0
   36.4747   12.3551  -15.1640 C   0  0  0  0  0  0  0  0  0  0  0  0
   36.6430   11.5871  -16.2899 C   0  0  0  0  0  0  0  0  0  0  0  0
   37.8718   11.5508  -16.9791 C   0  0  0  0  0  0  0  0  0  0  0  0
   38.9403   12.2653  -16.5738 C   0  0  0  0  0  0  0  0  0  0  0  0
   38.7637   13.0551  -15.4131 C   0  0  0  0  0  0  0  0  0  0  0  0
   37.5769   13.0992  -14.7336 C   0  0  0  0  0  0  0  0  0  0  0  0
   35.4073   12.1331  -12.9301 C   0  0  0  0  0  0  0  0  0  0  0  0
   35.2342   12.4869  -14.3678 C   0  0  0  0  0  0  0  0  0  0  0  0
   34.1465   11.5662  -14.9539 C   0  0  0  0  0  0  0  0  0  0  0  0
   34.6746   13.8830  -14.5116 C   0  0  0  0  0  0  0  0  0  0  0  0
   45.3148   12.7075  -11.6750 C   0  0  0  0  0  0  0  0  0  0  0  0
   45.9358   11.5183  -11.1104 C   0  0  0  0  0  0  0  0  0  0  0  0
   46.4603   10.5320  -11.9028 C   0  0  0  0  0  0  0  0  0  0  0  0
   47.0978    9.4438  -11.3404 C   0  0  0  0  0  0  0  0  0  0  0  0
   47.1939    9.3746   -9.9672 C   0  0  0  0  0  0  0  0  0  0  0  0
   46.6752   10.3540   -9.1321 C   0  0  0  0  0  0  0  0  0  0  0  0
   46.0457   11.4227   -9.7370 C   0  0  0  0  0  0  0  0  0  0  0  0
 21 22  1  0  0  0
 22 23  1  0  0  0
 22 24  1  0  0  0
 22 15  1  0  0  0
 15 16  2  0  0  0
 16 17  1  0  0  0
 17 18  2  0  0  0
 18 19  1  0  0  0
 19 20  2  0  0  0
 18 12  1  0  0  0
 12 13  2  0  0  0
 12 14  2  0  0  0
 12 10  1  0  0  0
 10  1  1  0  0  0
  1  2  2  0  0  0
  2  3  1  0  0  0
  3  4  2  0  0  0
  4  5  1  0  0  0
  5 25  1  0  0  0
 25 26  1  0  0  0
 26 27  2  0  0  0
 27 28  1  0  0  0
 28 29  2  0  0  0
 29 30  1  0  0  0
 30 31  2  0  0  0
  5  6  1  0  0  0
  6  7  2  0  0  0
  7  8  1  0  0  0
  8  9  2  0  0  0
 20 15  1  0  0  0
  9  1  1  0  0  0
  8  4  1  0  0  0
 31 26  1  0  0  0
 10 11  1  0  0  0
M  END
> <minimizedAffinity>
-8.08989

> <CNNscore>
0.5383584499

> <CNNaffinity>
6.7100243568

> <CNN_VS>
3.6123983860

> <CNNaffinity_variance>
0.0807456374

$$$$
[H]c1c([H])c([H])c(C([H])([H])n2c([H])c([H])c3c([H])c(N([H])S(=O)(=O)c4c([H])c([H])c(C(C([H])([H])[H])(C([H])([H])[H])C([H])([H])[H])c([H])c4[H])c([H])c([H])c32)c([H])c1[H]


 31 34  0  0  0  0  0  0  0  0999 V2000
   42.6701   12.4204  -16.1842 C   0  0  0  0  0  0  0  0  0  0  0  0
   42.2738   13.1581  -15.0464 C   0  0  0  0  0  0  0  0  0  0  0  0
   43.1845   13.7841  -14.2392 C   0  0  0  0  0  0  0  0  0  0  0  0
   44.5374   13.6917  -14.5475 C   0  0  0  0  0  0  0  0  0  0  0  0
   45.6318   14.1967  -13.8970 N   0  0  0  0  0  0  0  0  0  0  0  0
   46.7168   13.8114  -14.5919 C   0  0  0  0  0  0  0  0  0  0  0  0
   46.3187   13.0577  -15.6855 C   0  0  0  0  0  0  0  0  0  0  0  0
   44.9461   12.9871  -15.6464 C   0  0  0  0  0  0  0  0  0  0  0  0
   43.9916   12.3642  -16.4414 C   0  0  0  0  0  0  0  0  0  0  0  0
   41.6779   11.7001  -16.8497 N   0  0  0  0  0  0  0  0  0  0  0  0
   41.7101   10.6473  -16.8880 H   0  0  0  0  0  0  0  0  0  0  0  0
   40.3876   12.5006  -17.6429 S   0  0  0  0  0  0  0  0  0  0  0  0
   40.7399   13.9598  -17.8165 O   0  0  0  0  0  0  0  0  0  0  0  0
   40.0819   11.8913  -18.9868 O   0  0  0  0  0  0  0  0  0  0  0  0
   36.5875   12.3888  -15.0568 C   0  0  0  0  0  0  0  0  0  0  0  0
   36.6634   11.6252  -16.1957 C   0  0  0  0  0  0  0  0  0  0  0  0
   37.8126   11.6329  -17.0115 C   0  0  0  0  0  0  0  0  0  0  0  0
   38.8910   12.3872  -16.7207 C   0  0  0  0  0  0  0  0  0  0  0  0
   38.8097   13.1722  -15.5462 C   0  0  0  0  0  0  0  0  0  0  0  0
   37.7008   13.1739  -14.7445 C   0  0  0  0  0  0  0  0  0  0  0  0
   35.7423   12.0162  -12.7490 C   0  0  0  0  0  0  0  0  0  0  0  0
   35.4345   12.4763  -14.1332 C   0  0  0  0  0  0  0  0  0  0  0  0
   34.2769   11.6137  -14.6721 C   0  0  0  0  0  0  0  0  0  0  0  0
   34.8898   13.8856  -14.1198 C   0  0  0  0  0  0  0  0  0  0  0  0
   45.5440   14.9475  -12.6795 C   0  0  0  0  0  0  0  0  0  0  0  0
   45.5871   16.3954  -12.8219 C   0  0  0  0  0  0  0  0  0  0  0  0
   44.4665   17.1259  -13.1159 C   0  0  0  0  0  0  0  0  0  0  0  0
   44.5243   18.5038  -13.1851 C   0  0  0  0  0  0  0  0  0  0  0  0
   45.7326   19.1244  -12.9512 C   0  0  0  0  0  0  0  0  0  0  0  0
   46.8888   18.4183  -12.6505 C   0  0  0  0  0  0  0  0  0  0  0  0
   46.7850   17.0435  -12.5929 C   0  0  0  0  0  0  0  0  0  0  0  0
 21 22  1  0  0  0
 22 23  1  0  0  0
 22 24  1  0  0  0
 22 15  1  0  0  0
 15 16  2  0  0  0
 16 17  1  0  0  0
 17 18  2  0  0  0
 18 19  1  0  0  0
 19 20  2  0  0  0
 18 12  1  0  0  0
 12 13  2  0  0  0
 12 14  2  0  0  0
 12 10  1  0  0  0
 10  1  1  0  0  0
  1  2  2  0  0  0
  2  3  1  0  0  0
  3  4  2  0  0  0
  4  5  1  0  0  0
  5 25  1  0  0  0
 25 26  1  0  0  0
 26 27  2  0  0  0
 27 28  1  0  0  0
 28 29  2  0  0  0
 29 30  1  0  0  0
 30 31  2  0  0  0
  5  6  1  0  0  0
  6  7  2  0  0  0
  7  8  1  0  0  0
  8  9  2  0  0  0
 20 15  1  0  0  0
  9  1  1  0  0  0
  8  4  1  0  0  0
 31 26  1  0  0  0
 10 11  1  0  0  0
M  END
> <minimizedAffinity>
-7.95551

> <CNNscore>
0.3666936755

> <CNNaffinity>
6.6054282188

> <CNN_VS>
2.4221687317

> <CNNaffinity_variance>
0.0698967725

$$$$
[H]c1c([H])c([H])c(C([H])([H])n2c([H])c([H])c3c([H])c(N([H])S(=O)(=O)c4c([H])c([H])c(C(C([H])([H])[H])(C([H])([H])[H])C([H])([H])[H])c([H])c4[H])c([H])c([H])c32)c([H])c1[H]


 31 34  0  0  0  0  0  0  0  0999 V2000
   43.3510   12.9465  -16.1239 C   0  0  0  0  0  0  0  0  0  0  0  0
   42.9870   13.5988  -14.9248 C   0  0  0  0  0  0  0  0  0  0  0  0
   41.6877   13.6533  -14.4987 C   0  0  0  0  0  0  0  0  0  0  0  0
   40.6981   13.0499  -15.2672 C   0  0  0  0  0  0  0  0  0  0  0  0
   39.3432   12.9861  -15.0775 N   0  0  0  0  0  0  0  0  0  0  0  0
   38.8308   12.3028  -16.1163 C   0  0  0  0  0  0  0  0  0  0  0  0
   39.8558   11.9311  -16.9728 C   0  0  0  0  0  0  0  0  0  0  0  0
   41.0256   12.4082  -16.4300 C   0  0  0  0  0  0  0  0  0  0  0  0
   42.3559   12.3749  -16.8303 C   0  0  0  0  0  0  0  0  0  0  0  0
   44.6758   13.0788  -16.5405 N   0  0  0  0  0  0  0  0  0  0  0  0
   44.9099   13.2083  -17.5599 H   0  0  0  0  0  0  0  0  0  0  0  0
   45.9656   13.0148  -15.4148 S   0  0  0  0  0  0  0  0  0  0  0  0
   45.7441   11.8559  -14.4706 O   0  0  0  0  0  0  0  0  0  0  0  0
   47.3035   12.8660  -16.0922 O   0  0  0  0  0  0  0  0  0  0  0  0
   46.2961   16.7307  -12.7269 C   0  0  0  0  0  0  0  0  0  0  0  0
   46.0755   16.8776  -14.0743 C   0  0  0  0  0  0  0  0  0  0  0  0
   45.9669   15.7617  -14.9283 C   0  0  0  0  0  0  0  0  0  0  0  0
   46.0755   14.4985  -14.4714 C   0  0  0  0  0  0  0  0  0  0  0  0
   46.3021   14.3505  -13.0825 C   0  0  0  0  0  0  0  0  0  0  0  0
   46.4088   15.4247  -12.2417 C   0  0  0  0  0  0  0  0  0  0  0  0
   45.4565   17.7517  -10.6219 C   0  0  0  0  0  0  0  0  0  0  0  0
   46.4435   17.8207  -11.7368 C   0  0  0  0  0  0  0  0  0  0  0  0
   46.2693   19.1810  -12.4395 C   0  0  0  0  0  0  0  0  0  0  0  0
   47.8559   17.8432  -11.2005 C   0  0  0  0  0  0  0  0  0  0  0  0
   38.6758   13.6036  -13.9699 C   0  0  0  0  0  0  0  0  0  0  0  0
   37.2577   13.3046  -13.8361 C   0  0  0  0  0  0  0  0  0  0  0  0
   36.8091   12.2552  -13.0789 C   0  0  0  0  0  0  0  0  0  0  0  0
   35.4558   12.0314  -12.9202 C   0  0  0  0  0  0  0  0  0  0  0  0
   34.5701   12.8869  -13.5395 C   0  0  0  0  0  0  0  0  0  0  0  0
   34.9867   13.9604  -14.3140 C   0  0  0  0  0  0  0  0  0  0  0  0
   36.3477   14.1457  -14.4461 C   0  0  0  0  0  0  0  0  0  0  0  0
 21 22  1  0  0  0
 22 23  1  0  0  0
 22 24  1  0  0  0
 22 15  1  0  0  0
 15 16  2  0  0  0
 16 17  1  0  0  0
 17 18  2  0  0  0
 18 19  1  0  0  0
 19 20  2  0  0  0
 18 12  1  0  0  0
 12 13  2  0  0  0
 12 14  2  0  0  0
 12 10  1  0  0  0
 10  1  1  0  0  0
  1  2  2  0  0  0
  2  3  1  0  0  0
  3  4  2  0  0  0
  4  5  1  0  0  0
  5 25  1  0  0  0
 25 26  1  0  0  0
 26 27  2  0  0  0
 27 28  1  0  0  0
 28 29  2  0  0  0
 29 30  1  0  0  0
 30 31  2  0  0  0
  5  6  1  0  0  0
  6  7  2  0  0  0
  7  8  1  0  0  0
  8  9  2  0  0  0
 20 15  1  0  0  0
  9  1  1  0  0  0
  8  4  1  0  0  0
 31 26  1  0  0  0
 10 11  1  0  0  0
M  END
> <minimizedAffinity>
-7.70214

> <CNNscore>
0.2080744058

> <CNNaffinity>
6.1125359535

> <CNN_VS>
1.2718622684

> <CNNaffinity_variance>
0.0756907687

$$$$
[H]c1c([H])c([H])c(C([H])([H])n2c([H])c([H])c3c([H])c(N([H])S(=O)(=O)c4c([H])c([H])c(C(C([H])([H])[H])(C([H])([H])[H])C([H])([H])[H])c([H])c4[H])c([H])c([H])c32)c([H])c1[H]


 31 34  0  0  0  0  0  0  0  0999 V2000
   38.5064   12.3607  -14.9984 C   0  0  0  0  0  0  0  0  0  0  0  0
   38.9726   13.3683  -14.1249 C   0  0  0  0  0  0  0  0  0  0  0  0
   38.1135   14.1539  -13.4055 C   0  0  0  0  0  0  0  0  0  0  0  0
   36.7435   13.9548  -13.5378 C   0  0  0  0  0  0  0  0  0  0  0  0
   35.6915   14.6130  -12.9583 N   0  0  0  0  0  0  0  0  0  0  0  0
   34.5651   14.0484  -13.4286 C   0  0  0  0  0  0  0  0  0  0  0  0
   34.8945   13.0309  -14.3110 C   0  0  0  0  0  0  0  0  0  0  0  0
   36.2672   12.9824  -14.3738 C   0  0  0  0  0  0  0  0  0  0  0  0
   37.1709   12.2054  -15.0884 C   0  0  0  0  0  0  0  0  0  0  0  0
   39.4577   11.7213  -15.7936 N   0  0  0  0  0  0  0  0  0  0  0  0
   39.4780   10.6703  -15.8699 H   0  0  0  0  0  0  0  0  0  0  0  0
   40.6353   12.6190  -16.6551 S   0  0  0  0  0  0  0  0  0  0  0  0
   41.0734   11.8297  -17.8670 O   0  0  0  0  0  0  0  0  0  0  0  0
   40.1168   13.9656  -17.0897 O   0  0  0  0  0  0  0  0  0  0  0  0
   44.4833   13.3960  -14.2612 C   0  0  0  0  0  0  0  0  0  0  0  0
   43.2641   13.7316  -13.7256 C   0  0  0  0  0  0  0  0  0  0  0  0
   42.0640   13.5066  -14.4295 C   0  0  0  0  0  0  0  0  0  0  0  0
   42.0490   12.9554  -15.6593 C   0  0  0  0  0  0  0  0  0  0  0  0
   43.3068   12.6101  -16.2079 C   0  0  0  0  0  0  0  0  0  0  0  0
   44.4796   12.8221  -15.5356 C   0  0  0  0  0  0  0  0  0  0  0  0
   46.5708   12.3330  -13.4298 C   0  0  0  0  0  0  0  0  0  0  0  0
   45.8059   13.5970  -13.6286 C   0  0  0  0  0  0  0  0  0  0  0  0
   45.6214   14.2601  -12.2499 C   0  0  0  0  0  0  0  0  0  0  0  0
   46.6147   14.5916  -14.4283 C   0  0  0  0  0  0  0  0  0  0  0  0
   35.8554   15.7194  -12.0625 C   0  0  0  0  0  0  0  0  0  0  0  0
   35.5890   15.4444  -10.6582 C   0  0  0  0  0  0  0  0  0  0  0  0
   36.4924   14.7858   -9.8672 C   0  0  0  0  0  0  0  0  0  0  0  0
   36.2397   14.5921   -8.5236 C   0  0  0  0  0  0  0  0  0  0  0  0
   35.0606   15.0765   -7.9991 C   0  0  0  0  0  0  0  0  0  0  0  0
   34.1216   15.7486   -8.7687 C   0  0  0  0  0  0  0  0  0  0  0  0
   34.4150   15.9185  -10.1063 C   0  0  0  0  0  0  0  0  0  0  0  0
 21 22  1  0  0  0
 22 23  1  0  0  0
 22 24  1  0  0  0
 22 15  1  0  0  0
 15 16  2  0  0  0
 16 17  1  0  0  0
 17 18  2  0  0  0
 18 19  1  0  0  0
 19 20  2  0  0  0
 18 12  1  0  0  0
 12 13  2  0  0  0
 12 14  2  0  0  0
 12 10  1  0  0  0
 10  1  1  0  0  0
  1  2  2  0  0  0
  2  3  1  0  0  0
  3  4  2  0  0  0
  4  5  1  0  0  0
  5 25  1  0  0  0
 25 26  1  0  0  0
 26 27  2  0  0  0
 27 28  1  0  0  0
 28 29  2  0  0  0
 29 30  1  0  0  0
 30 31  2  0  0  0
  5  6  1  0  0  0
  6  7  2  0  0  0
  7  8  1  0  0  0
  8  9  2  0  0  0
 20 15  1  0  0  0
  9  1  1  0  0  0
  8  4  1  0  0  0
 31 26  1  0  0  0
 10 11  1  0  0  0
M  END
> <minimizedAffinity>
-7.88903

> <CNNscore>
0.1773285717

> <CNNaffinity>
6.1949453354

> <CNN_VS>
1.0985407829

> <CNNaffinity_variance>
0.1300685704

$$$$
[H]c1c([H])c([H])c(C([H])([H])n2c([H])c([H])c3c([H])c(N([H])S(=O)(=O)c4c([H])c([H])c(C(C([H])([H])[H])(C([H])([H])[H])C([H])([H])[H])c([H])c4[H])c([H])c([H])c32)c([H])c1[H]


 31 34  0  0  0  0  0  0  0  0999 V2000
   43.4945   13.7243  -14.9591 C   0  0  0  0  0  0  0  0  0  0  0  0
   42.5179   13.9485  -13.9633 C   0  0  0  0  0  0  0  0  0  0  0  0
   41.2049   13.6116  -14.1514 C   0  0  0  0  0  0  0  0  0  0  0  0
   40.8213   13.0325  -15.3561 C   0  0  0  0  0  0  0  0  0  0  0  0
   39.5867   12.6339  -15.7953 N   0  0  0  0  0  0  0  0  0  0  0  0
   39.7472   12.1517  -17.0403 C   0  0  0  0  0  0  0  0  0  0  0  0
   41.0831   12.2435  -17.4004 C   0  0  0  0  0  0  0  0  0  0  0  0
   41.7490   12.8009  -16.3344 C   0  0  0  0  0  0  0  0  0  0  0  0
   43.0726   13.1576  -16.1066 C   0  0  0  0  0  0  0  0  0  0  0  0
   44.7693   14.2399  -14.7242 N   0  0  0  0  0  0  0  0  0  0  0  0
   44.9160   15.2753  -14.5925 H   0  0  0  0  0  0  0  0  0  0  0  0
   46.1392   13.2131  -14.6621 S   0  0  0  0  0  0  0  0  0  0  0  0
   45.9783   12.1078  -15.6800 O   0  0  0  0  0  0  0  0  0  0  0  0
   47.4211   13.9602  -14.9260 O   0  0  0  0  0  0  0  0  0  0  0  0
   46.9164   11.2900  -10.5586 C   0  0  0  0  0  0  0  0  0  0  0  0
   45.6520   11.7120  -10.8886 C   0  0  0  0  0  0  0  0  0  0  0  0
   45.3763   12.3040  -12.1376 C   0  0  0  0  0  0  0  0  0  0  0  0
   46.3334   12.4887  -13.0682 C   0  0  0  0  0  0  0  0  0  0  0  0
   47.6350   12.0522  -12.7252 C   0  0  0  0  0  0  0  0  0  0  0  0
   47.9169   11.4751  -11.5170 C   0  0  0  0  0  0  0  0  0  0  0  0
   47.8087    9.2673   -9.4222 C   0  0  0  0  0  0  0  0  0  0  0  0
   47.3303   10.6719   -9.2793 C   0  0  0  0  0  0  0  0  0  0  0  0
   46.1401   10.6691   -8.3005 C   0  0  0  0  0  0  0  0  0  0  0  0
   48.3783   11.5284   -8.6076 C   0  0  0  0  0  0  0  0  0  0  0  0
   38.3914   12.7845  -15.0193 C   0  0  0  0  0  0  0  0  0  0  0  0
   37.1940   12.1682  -15.5716 C   0  0  0  0  0  0  0  0  0  0  0  0
   35.9564   12.3751  -15.0226 C   0  0  0  0  0  0  0  0  0  0  0  0
   34.8298   11.8269  -15.6033 C   0  0  0  0  0  0  0  0  0  0  0  0
   34.9801   11.0697  -16.7451 C   0  0  0  0  0  0  0  0  0  0  0  0
   36.2170   10.8383  -17.3302 C   0  0  0  0  0  0  0  0  0  0  0  0
   37.3153   11.4043  -16.7158 C   0  0  0  0  0  0  0  0  0  0  0  0
 21 22  1  0  0  0
 22 23  1  0  0  0
 22 24  1  0  0  0
 22 15  1  0  0  0
 15 16  2  0  0  0
 16 17  1  0  0  0
 17 18  2  0  0  0
 18 19  1  0  0  0
 19 20  2  0  0  0
 18 12  1  0  0  0
 12 13  2  0  0  0
 12 14  2  0  0  0
 12 10  1  0  0  0
 10  1  1  0  0  0
  1  2  2  0  0  0
  2  3  1  0  0  0
  3  4  2  0  0  0
  4  5  1  0  0  0
  5 25  1  0  0  0
 25 26  1  0  0  0
 26 27  2  0  0  0
 27 28  1  0  0  0
 28 29  2  0  0  0
 29 30  1  0  0  0
 30 31  2  0  0  0
  5  6  1  0  0  0
  6  7  2  0  0  0
  7  8  1  0  0  0
  8  9  2  0  0  0
 20 15  1  0  0  0
  9  1  1  0  0  0
  8  4  1  0  0  0
 31 26  1  0  0  0
 10 11  1  0  0  0
M  END
> <minimizedAffinity>
-8.66943

> <CNNscore>
0.1745122373

> <CNNaffinity>
5.8661055565

> <CNN_VS>
1.0237071514

> <CNNaffinity_variance>
0.1201933622

$$$$
[H]c1c([H])c([H])c(C([H])([H])n2c([H])c([H])c3c([H])c(N([H])S(=O)(=O)c4c([H])c([H])c(C(C([H])([H])[H])(C([H])([H])[H])C([H])([H])[H])c([H])c4[H])c([H])c([H])c32)c([H])c1[H]


 31 34  0  0  0  0  0  0  0  0999 V2000
   43.6655   13.5415  -15.0458 C   0  0  0  0  0  0  0  0  0  0  0  0
   42.6662   13.8972  -14.1127 C   0  0  0  0  0  0  0  0  0  0  0  0
   41.3452   13.6095  -14.3252 C   0  0  0  0  0  0  0  0  0  0  0  0
   40.9763   12.9487  -15.4918 C   0  0  0  0  0  0  0  0  0  0  0  0
   39.7395   12.5743  -15.9459 N   0  0  0  0  0  0  0  0  0  0  0  0
   39.9201   11.9801  -17.1387 C   0  0  0  0  0  0  0  0  0  0  0  0
   41.2711   11.9758  -17.4506 C   0  0  0  0  0  0  0  0  0  0  0  0
   41.9257   12.5895  -16.4088 C   0  0  0  0  0  0  0  0  0  0  0  0
   43.2568   12.8998  -16.1580 C   0  0  0  0  0  0  0  0  0  0  0  0
   44.9558   14.0130  -14.8032 N   0  0  0  0  0  0  0  0  0  0  0  0
   45.3781   14.7643  -15.4099 H   0  0  0  0  0  0  0  0  0  0  0  0
   45.9036   13.3743  -13.5270 S   0  0  0  0  0  0  0  0  0  0  0  0
   46.1076   11.8940  -13.7523 O   0  0  0  0  0  0  0  0  0  0  0  0
   47.2422   14.0578  -13.4170 O   0  0  0  0  0  0  0  0  0  0  0  0
   43.9395   14.2463   -9.4622 C   0  0  0  0  0  0  0  0  0  0  0  0
   43.9089   12.9742   -9.9787 C   0  0  0  0  0  0  0  0  0  0  0  0
   44.5017   12.6697  -11.2205 C   0  0  0  0  0  0  0  0  0  0  0  0
   45.1246   13.6053  -11.9640 C   0  0  0  0  0  0  0  0  0  0  0  0
   45.1549   14.9148  -11.4287 C   0  0  0  0  0  0  0  0  0  0  0  0
   44.5843   15.2246  -10.2242 C   0  0  0  0  0  0  0  0  0  0  0  0
   42.3451   13.7311   -7.6260 C   0  0  0  0  0  0  0  0  0  0  0  0
   43.3416   14.6897   -8.1831 C   0  0  0  0  0  0  0  0  0  0  0  0
   42.6332   16.0427   -8.3881 C   0  0  0  0  0  0  0  0  0  0  0  0
   44.4309   14.9748   -7.1757 C   0  0  0  0  0  0  0  0  0  0  0  0
   38.5261   12.8486  -15.2345 C   0  0  0  0  0  0  0  0  0  0  0  0
   37.3208   12.2383  -15.7760 C   0  0  0  0  0  0  0  0  0  0  0  0
   37.3600   11.3961  -16.8554 C   0  0  0  0  0  0  0  0  0  0  0  0
   36.2092   10.7833  -17.3103 C   0  0  0  0  0  0  0  0  0  0  0  0
   35.0242   11.0381  -16.6539 C   0  0  0  0  0  0  0  0  0  0  0  0
   34.9452   11.8848  -15.5573 C   0  0  0  0  0  0  0  0  0  0  0  0
   36.1193   12.4763  -15.1378 C   0  0  0  0  0  0  0  0  0  0  0  0
 21 22  1  0  0  0
 22 23  1  0  0  0
 22 24  1  0  0  0
 22 15  1  0  0  0
 15 16  2  0  0  0
 16 17  1  0  0  0
 17 18  2  0  0  0
 18 19  1  0  0  0
 19 20  2  0  0  0
 18 12  1  0  0  0
 12 13  2  0  0  0
 12 14  2  0  0  0
 12 10  1  0  0  0
 10  1  1  0  0  0
  1  2  2  0  0  0
  2  3  1  0  0  0
  3  4  2  0  0  0
  4  5  1  0  0  0
  5 25  1  0  0  0
 25 26  1  0  0  0
 26 27  2  0  0  0
 27 28  1  0  0  0
 28 29  2  0  0  0
 29 30  1  0  0  0
 30 31  2  0  0  0
  5  6  1  0  0  0
  6  7  2  0  0  0
  7  8  1  0  0  0
  8  9  2  0  0  0
 20 15  1  0  0  0
  9  1  1  0  0  0
  8  4  1  0  0  0
 31 26  1  0  0  0
 10 11  1  0  0  0
M  END
> <minimizedAffinity>
-8.02090

> <CNNscore>
0.1688099056

> <CNNaffinity>
5.9555397034

> <CNN_VS>
1.0053540468

> <CNNaffinity_variance>
0.1663917452

$$$$
[H]c1c([H])c([H])c(C([H])([H])n2c([H])c([H])c3c([H])c(N([H])S(=O)(=O)c4c([H])c([H])c(C(C([H])([H])[H])(C([H])([H])[H])C([H])([H])[H])c([H])c4[H])c([H])c([H])c32)c([H])c1[H]


 31 34  0  0  0  0  0  0  0  0999 V2000
   34.1430   14.9937  -12.4043 C   0  0  0  0  0  0  0  0  0  0  0  0
   32.7459   14.9440  -12.2007 C   0  0  0  0  0  0  0  0  0  0  0  0
   32.1752   15.3254  -11.0168 C   0  0  0  0  0  0  0  0  0  0  0  0
   32.9930   15.7743   -9.9855 C   0  0  0  0  0  0  0  0  0  0  0  0
   32.6774   16.1823   -8.7167 N   0  0  0  0  0  0  0  0  0  0  0  0
   33.8322   16.5012   -8.1058 C   0  0  0  0  0  0  0  0  0  0  0  0
   34.8877   16.2953   -8.9810 C   0  0  0  0  0  0  0  0  0  0  0  0
   34.3484   15.8360  -10.1596 C   0  0  0  0  0  0  0  0  0  0  0  0
   34.8909   15.4392  -11.3758 C   0  0  0  0  0  0  0  0  0  0  0  0
   34.6307   14.4428  -13.5896 N   0  0  0  0  0  0  0  0  0  0  0  0
   34.6359   15.0031  -14.4823 H   0  0  0  0  0  0  0  0  0  0  0  0
   35.2177   12.8342  -13.6393 S   0  0  0  0  0  0  0  0  0  0  0  0
   35.5793   12.3937  -12.2397 O   0  0  0  0  0  0  0  0  0  0  0  0
   34.2091   11.8796  -14.2245 O   0  0  0  0  0  0  0  0  0  0  0  0
   39.0804   12.6427  -16.1260 C   0  0  0  0  0  0  0  0  0  0  0  0
   37.9662   11.9535  -16.5376 C   0  0  0  0  0  0  0  0  0  0  0  0
   36.7646   11.9904  -15.8019 C   0  0  0  0  0  0  0  0  0  0  0  0
   36.6463   12.6977  -14.6608 C   0  0  0  0  0  0  0  0  0  0  0  0
   37.7960   13.4072  -14.2399 C   0  0  0  0  0  0  0  0  0  0  0  0
   38.9686   13.3811  -14.9446 C   0  0  0  0  0  0  0  0  0  0  0  0
   40.6182   11.5163  -17.7215 C   0  0  0  0  0  0  0  0  0  0  0  0
   40.3968   12.6684  -16.8017 C   0  0  0  0  0  0  0  0  0  0  0  0
   41.5180   12.6522  -15.7448 C   0  0  0  0  0  0  0  0  0  0  0  0
   40.5763   13.9786  -17.5325 C   0  0  0  0  0  0  0  0  0  0  0  0
   31.3388   16.1906   -8.2052 C   0  0  0  0  0  0  0  0  0  0  0  0
   30.7615   14.8863   -7.9157 C   0  0  0  0  0  0  0  0  0  0  0  0
   31.4050   13.9708   -7.1260 C   0  0  0  0  0  0  0  0  0  0  0  0
   30.8068   12.7649   -6.8182 C   0  0  0  0  0  0  0  0  0  0  0  0
   29.5504   12.5058   -7.3224 C   0  0  0  0  0  0  0  0  0  0  0  0
   28.8674   13.4083   -8.1253 C   0  0  0  0  0  0  0  0  0  0  0  0
   29.5033   14.5998   -8.4081 C   0  0  0  0  0  0  0  0  0  0  0  0
 21 22  1  0  0  0
 22 23  1  0  0  0
 22 24  1  0  0  0
 22 15  1  0  0  0
 15 16  2  0  0  0
 16 17  1  0  0  0
 17 18  2  0  0  0
 18 19  1  0  0  0
 19 20  2  0  0  0
 18 12  1  0  0  0
 12 13  2  0  0  0
 12 14  2  0  0  0
 12 10  1  0  0  0
 10  1  1  0  0  0
  1  2  2  0  0  0
  2  3  1  0  0  0
  3  4  2  0  0  0
  4  5  1  0  0  0
  5 25  1  0  0  0
 25 26  1  0  0  0
 26 27  2  0  0  0
 27 28  1  0  0  0
 28 29  2  0  0  0
 29 30  1  0  0  0
 30 31  2  0  0  0
  5  6  1  0  0  0
  6  7  2  0  0  0
  7  8  1  0  0  0
  8  9  2  0  0  0
 20 15  1  0  0  0
  9  1  1  0  0  0
  8  4  1  0  0  0
 31 26  1  0  0  0
 10 11  1  0  0  0
M  END
> <minimizedAffinity>
-8.96228

> <CNNscore>
0.1324549466

> <CNNaffinity>
5.9166550636

> <CNN_VS>
0.7836902142

> <CNNaffinity_variance>
0.2852761149

$$$$
[H]c1c([H])c([H])c(C([H])([H])n2c([H])c([H])c3c([H])c(N([H])S(=O)(=O)c4c([H])c([H])c(C(C([H])([H])[H])(C([H])([H])[H])C([H])([H])[H])c([H])c4[H])c([H])c([H])c32)c([H])c1[H]


 31 34  0  0  0  0  0  0  0  0999 V2000
   44.9467   13.0525  -15.0674 C   0  0  0  0  0  0  0  0  0  0  0  0
   44.6082   12.3450  -16.2424 C   0  0  0  0  0  0  0  0  0  0  0  0
   43.3096   12.2017  -16.6497 C   0  0  0  0  0  0  0  0  0  0  0  0
   42.2950   12.7682  -15.8858 C   0  0  0  0  0  0  0  0  0  0  0  0
   40.9366   12.7467  -16.0595 N   0  0  0  0  0  0  0  0  0  0  0  0
   40.3965   13.4290  -15.0341 C   0  0  0  0  0  0  0  0  0  0  0  0
   41.4075   13.8853  -14.2021 C   0  0  0  0  0  0  0  0  0  0  0  0
   42.5972   13.4621  -14.7463 C   0  0  0  0  0  0  0  0  0  0  0  0
   43.9277   13.5852  -14.3647 C   0  0  0  0  0  0  0  0  0  0  0  0
   46.2817   13.0106  -14.6646 N   0  0  0  0  0  0  0  0  0  0  0  0
   46.8853   12.1754  -14.8855 H   0  0  0  0  0  0  0  0  0  0  0  0
   46.9783   14.3030  -13.7819 S   0  0  0  0  0  0  0  0  0  0  0  0
   48.4072   13.9546  -13.4350 O   0  0  0  0  0  0  0  0  0  0  0  0
   46.9466   15.5983  -14.5515 O   0  0  0  0  0  0  0  0  0  0  0  0
   44.6372   15.3852   -9.9754 C   0  0  0  0  0  0  0  0  0  0  0  0
   45.1189   14.1103  -10.1438 C   0  0  0  0  0  0  0  0  0  0  0  0
   45.8420   13.7431  -11.2964 C   0  0  0  0  0  0  0  0  0  0  0  0
   46.0960   14.6176  -12.2900 C   0  0  0  0  0  0  0  0  0  0  0  0
   45.5988   15.9305  -12.1130 C   0  0  0  0  0  0  0  0  0  0  0  0
   44.8961   16.3011  -10.9990 C   0  0  0  0  0  0  0  0  0  0  0  0
   44.4450   17.0910   -8.1775 C   0  0  0  0  0  0  0  0  0  0  0  0
   43.8547   15.8835   -8.8223 C   0  0  0  0  0  0  0  0  0  0  0  0
   43.7532   14.7782   -7.7534 C   0  0  0  0  0  0  0  0  0  0  0  0
   42.4270   16.1449   -9.2418 C   0  0  0  0  0  0  0  0  0  0  0  0
   40.2943   12.0587  -17.1401 C   0  0  0  0  0  0  0  0  0  0  0  0
   38.8911   11.7287  -16.9381 C   0  0  0  0  0  0  0  0  0  0  0  0
   38.1651   12.2619  -15.9064 C   0  0  0  0  0  0  0  0  0  0  0  0
   36.8200   11.9790  -15.7743 C   0  0  0  0  0  0  0  0  0  0  0  0
   36.2273   11.1505  -16.7029 C   0  0  0  0  0  0  0  0  0  0  0  0
   36.9300   10.5919  -17.7612 C   0  0  0  0  0  0  0  0  0  0  0  0
   38.2717   10.9007  -17.8537 C   0  0  0  0  0  0  0  0  0  0  0  0
 21 22  1  0  0  0
 22 23  1  0  0  0
 22 24  1  0  0  0
 22 15  1  0  0  0
 15 16  2  0  0  0
 16 17  1  0  0  0
 17 18  2  0  0  0
 18 19  1  0  0  0
 19 20  2  0  0  0
 18 12  1  0  0  0
 12 13  2  0  0  0
 12 14  2  0  0  0
 12 10  1  0  0  0
 10  1  1  0  0  0
  1  2  2  0  0  0
  2  3  1  0  0  0
  3  4  2  0  0  0
  4  5  1  0  0  0
  5 25  1  0  0  0
 25 26  1  0  0  0
 26 27  2  0  0  0
 27 28  1  0  0  0
 28 29  2  0  0  0
 29 30  1  0  0  0
 30 31  2  0  0  0
  5  6  1  0  0  0
  6  7  2  0  0  0
  7  8  1  0  0  0
  8  9  2  0  0  0
 20 15  1  0  0  0
  9  1  1  0  0  0
  8  4  1  0  0  0
 31 26  1  0  0  0
 10 11  1  0  0  0
M  END
> <minimizedAffinity>
-7.95493

> <CNNscore>
0.1299924105

> <CNNaffinity>
5.7377023697

> <CNN_VS>
0.7458577752

> <CNNaffinity_variance>
0.1705240905

$$$$
[H]c1nc(-c2nc3nc(N([H])c4c([H])c([H])nc(C([H])([H])[H])c4[H])sc3c(N([H])[H])c2[H])c([H])c([H])c1[H]


 27 30  0  0  0  0  0  0  0  0999 V2000
   36.4158   11.9446  -15.7271 C   0  0  0  0  0  0  0  0  0  0  0  0
   37.0638   12.7341  -14.8800 N   0  0  0  0  0  0  0  0  0  0  0  0
   36.4016   13.4424  -14.0265 C   0  0  0  0  0  0  0  0  0  0  0  0
   36.9394   14.3027  -13.0935 N   0  0  0  0  0  0  0  0  0  0  0  0
   36.1831   14.9883  -12.2610 C   0  0  0  0  0  0  0  0  0  0  0  0
   34.7962   14.9234  -12.2300 C   0  0  0  0  0  0  0  0  0  0  0  0
   34.2139   14.0739  -13.1472 C   0  0  0  0  0  0  0  0  0  0  0  0
   32.8103   13.8839  -13.2566 N   0  0  0  0  0  0  0  0  0  0  0  0
   35.0344   13.3510  -14.0271 C   0  0  0  0  0  0  0  0  0  0  0  0
   34.7902   12.2254  -15.2857 S   0  0  0  0  0  0  0  0  0  0  0  0
   32.3724   12.9580  -13.4725 H   0  0  0  0  0  0  0  0  0  0  0  0
   32.1208   14.6757  -13.1246 H   0  0  0  0  0  0  0  0  0  0  0  0
   36.8769   15.8849  -11.2994 C   0  0  0  0  0  0  0  0  0  0  0  0
   36.2014   16.5853  -10.3340 C   0  0  0  0  0  0  0  0  0  0  0  0
   36.8707   17.4247   -9.4372 C   0  0  0  0  0  0  0  0  0  0  0  0
   38.2404   17.5510   -9.5256 C   0  0  0  0  0  0  0  0  0  0  0  0
   38.8827   16.8310  -10.5090 C   0  0  0  0  0  0  0  0  0  0  0  0
   38.2041   16.0210  -11.3686 N   0  0  0  0  0  0  0  0  0  0  0  0
   37.0229   11.1322  -16.7291 N   0  0  0  0  0  0  0  0  0  0  0  0
   36.4409   10.3070  -17.0856 H   0  0  0  0  0  0  0  0  0  0  0  0
   41.7154   12.7864  -16.4355 C   0  0  0  0  0  0  0  0  0  0  0  0
   40.6264   12.1277  -17.2060 C   0  0  0  0  0  0  0  0  0  0  0  0
   39.3667   11.9570  -16.6268 C   0  0  0  0  0  0  0  0  0  0  0  0
   38.3122   11.3681  -17.2491 C   0  0  0  0  0  0  0  0  0  0  0  0
   38.5675   10.9221  -18.5623 C   0  0  0  0  0  0  0  0  0  0  0  0
   39.7999   11.0880  -19.1325 C   0  0  0  0  0  0  0  0  0  0  0  0
   40.7886   11.6774  -18.4545 N   0  0  0  0  0  0  0  0  0  0  0  0
 21 22  1  0  0  0
 22 23  2  0  0  0
 23 24  1  0  0  0
 24 19  1  0  0  0
 19  1  1  0  0  0
  1  2  2  0  0  0
  2  3  1  0  0  0
  3  4  2  0  0  0
  4  5  1  0  0  0
  5  6  2  0  0  0
  6  7  1  0  0  0
  7  8  1  0  0  0
  7  9  2  0  0  0
  9 10  1  0  0  0
  5 13  1  0  0  0
 13 14  2  0  0  0
 14 15  1  0  0  0
 15 16  2  0  0  0
 16 17  1  0  0  0
 17 18  2  0  0  0
 24 25  2  0  0  0
 25 26  1  0  0  0
 26 27  2  0  0  0
 27 22  1  0  0  0
 10  1  1  0  0  0
 18 13  1  0  0  0
  9  3  1  0  0  0
 19 20  1  0  0  0
  8 11  1  0  0  0
  8 12  1  0  0  0
M  END
> <minimizedAffinity>
-8.76273

> <CNNscore>
0.6764119267

> <CNNaffinity>
7.1867308617

> <CNN_VS>
4.8611903191

> <CNNaffinity_variance>
0.2384984493

$$$$
[H]c1nc(-c2nc3nc(N([H])c4c([H])c([H])nc(C([H])([H])[H])c4[H])sc3c(N([H])[H])c2[H])c([H])c([H])c1[H]


 27 30  0  0  0  0  0  0  0  0999 V2000
   40.9646   12.6870  -16.4366 C   0  0  0  0  0  0  0  0  0  0  0  0
   40.1376   13.2659  -15.5753 N   0  0  0  0  0  0  0  0  0  0  0  0
   38.8837   12.9553  -15.5800 C   0  0  0  0  0  0  0  0  0  0  0  0
   37.9148   13.4750  -14.7486 N   0  0  0  0  0  0  0  0  0  0  0  0
   36.6550   13.0984  -14.8270 C   0  0  0  0  0  0  0  0  0  0  0  0
   36.1738   12.1608  -15.7313 C   0  0  0  0  0  0  0  0  0  0  0  0
   37.1092   11.6134  -16.5842 C   0  0  0  0  0  0  0  0  0  0  0  0
   36.7942   10.6412  -17.5710 N   0  0  0  0  0  0  0  0  0  0  0  0
   38.4473   12.0259  -16.4874 C   0  0  0  0  0  0  0  0  0  0  0  0
   39.9059   11.6541  -17.2903 S   0  0  0  0  0  0  0  0  0  0  0  0
   37.4305    9.8472  -17.8170 H   0  0  0  0  0  0  0  0  0  0  0  0
   35.8891   10.6647  -18.1188 H   0  0  0  0  0  0  0  0  0  0  0  0
   35.7005   13.7292  -13.8777 C   0  0  0  0  0  0  0  0  0  0  0  0
   36.1080   14.6003  -12.9010 C   0  0  0  0  0  0  0  0  0  0  0  0
   35.1958   15.1847  -12.0161 C   0  0  0  0  0  0  0  0  0  0  0  0
   33.8566   14.8782  -12.1282 C   0  0  0  0  0  0  0  0  0  0  0  0
   33.4871   13.9989  -13.1222 C   0  0  0  0  0  0  0  0  0  0  0  0
   34.3983   13.4451  -13.9697 N   0  0  0  0  0  0  0  0  0  0  0  0
   42.3601   12.9556  -16.5507 N   0  0  0  0  0  0  0  0  0  0  0  0
   42.7705   12.9138  -17.5388 H   0  0  0  0  0  0  0  0  0  0  0  0
   46.6991   14.2276  -14.4536 C   0  0  0  0  0  0  0  0  0  0  0  0
   45.2533   13.8996  -14.3277 C   0  0  0  0  0  0  0  0  0  0  0  0
   44.5096   13.5765  -15.4652 C   0  0  0  0  0  0  0  0  0  0  0  0
   43.1874   13.2643  -15.4513 C   0  0  0  0  0  0  0  0  0  0  0  0
   42.5831   13.2837  -14.1772 C   0  0  0  0  0  0  0  0  0  0  0  0
   43.3087   13.5995  -13.0613 C   0  0  0  0  0  0  0  0  0  0  0  0
   44.6077   13.8965  -13.1569 N   0  0  0  0  0  0  0  0  0  0  0  0
 21 22  1  0  0  0
 22 23  2  0  0  0
 23 24  1  0  0  0
 24 19  1  0  0  0
 19  1  1  0  0  0
  1  2  2  0  0  0
  2  3  1  0  0  0
  3  4  2  0  0  0
  4  5  1  0  0  0
  5  6  2  0  0  0
  6  7  1  0  0  0
  7  8  1  0  0  0
  7  9  2  0  0  0
  9 10  1  0  0  0
  5 13  1  0  0  0
 13 14  2  0  0  0
 14 15  1  0  0  0
 15 16  2  0  0  0
 16 17  1  0  0  0
 17 18  2  0  0  0
 24 25  2  0  0  0
 25 26  1  0  0  0
 26 27  2  0  0  0
 27 22  1  0  0  0
 10  1  1  0  0  0
 18 13  1  0  0  0
  9  3  1  0  0  0
 19 20  1  0  0  0
  8 11  1  0  0  0
  8 12  1  0  0  0
M  END
> <minimizedAffinity>
-7.89913

> <CNNscore>
0.3178637028

> <CNNaffinity>
6.6408286095

> <CNN_VS>
2.1108784676

> <CNNaffinity_variance>
0.1686711907

$$$$
[H]c1nc(-c2nc3nc(N([H])c4c([H])c([H])nc(C([H])([H])[H])c4[H])sc3c(N([H])[H])c2[H])c([H])c([H])c1[H]


 27 30  0  0  0  0  0  0  0  0999 V2000
   41.2967   13.8543  -14.2911 C   0  0  0  0  0  0  0  0  0  0  0  0
   39.9966   13.6041  -14.2018 N   0  0  0  0  0  0  0  0  0  0  0  0
   39.4077   12.9235  -15.1285 C   0  0  0  0  0  0  0  0  0  0  0  0
   38.0705   12.5915  -15.1675 N   0  0  0  0  0  0  0  0  0  0  0  0
   37.5552   11.8924  -16.1579 C   0  0  0  0  0  0  0  0  0  0  0  0
   38.2812   11.4236  -17.2449 C   0  0  0  0  0  0  0  0  0  0  0  0
   39.6253   11.7324  -17.2479 C   0  0  0  0  0  0  0  0  0  0  0  0
   40.5173   11.3345  -18.2795 N   0  0  0  0  0  0  0  0  0  0  0  0
   40.1582   12.4783  -16.1850 C   0  0  0  0  0  0  0  0  0  0  0  0
   41.6959   13.0841  -15.7621 S   0  0  0  0  0  0  0  0  0  0  0  0
   41.5068   11.0435  -18.1009 H   0  0  0  0  0  0  0  0  0  0  0  0
   40.2290   11.3093  -19.2974 H   0  0  0  0  0  0  0  0  0  0  0  0
   36.1000   11.5959  -16.0906 C   0  0  0  0  0  0  0  0  0  0  0  0
   35.4987   10.6895  -16.9247 C   0  0  0  0  0  0  0  0  0  0  0  0
   34.1277   10.4229  -16.8473 C   0  0  0  0  0  0  0  0  0  0  0  0
   33.3633   11.0862  -15.9116 C   0  0  0  0  0  0  0  0  0  0  0  0
   34.0045   11.9892  -15.0921 C   0  0  0  0  0  0  0  0  0  0  0  0
   35.3418   12.2283  -15.1906 N   0  0  0  0  0  0  0  0  0  0  0  0
   42.0595   14.6093  -13.3527 N   0  0  0  0  0  0  0  0  0  0  0  0
   41.5853   15.4808  -12.9498 H   0  0  0  0  0  0  0  0  0  0  0  0
   45.3712   11.8194  -10.8845 C   0  0  0  0  0  0  0  0  0  0  0  0
   45.0671   12.9535  -11.7983 C   0  0  0  0  0  0  0  0  0  0  0  0
   43.7418   13.2496  -12.1258 C   0  0  0  0  0  0  0  0  0  0  0  0
   43.3655   14.2620  -12.9500 C   0  0  0  0  0  0  0  0  0  0  0  0
   44.4259   15.0283  -13.4764 C   0  0  0  0  0  0  0  0  0  0  0  0
   45.7248   14.7412  -13.1575 C   0  0  0  0  0  0  0  0  0  0  0  0
   46.0151   13.7264  -12.3385 N   0  0  0  0  0  0  0  0  0  0  0  0
 21 22  1  0  0  0
 22 23  2  0  0  0
 23 24  1  0  0  0
 24 19  1  0  0  0
 19  1  1  0  0  0
  1  2  2  0  0  0
  2  3  1  0  0  0
  3  4  2  0  0  0
  4  5  1  0  0  0
  5  6  2  0  0  0
  6  7  1  0  0  0
  7  8  1  0  0  0
  7  9  2  0  0  0
  9 10  1  0  0  0
  5 13  1  0  0  0
 13 14  2  0  0  0
 14 15  1  0  0  0
 15 16  2  0  0  0
 16 17  1  0  0  0
 17 18  2  0  0  0
 24 25  2  0  0  0
 25 26  1  0  0  0
 26 27  2  0  0  0
 27 22  1  0  0  0
 10  1  1  0  0  0
 18 13  1  0  0  0
  9  3  1  0  0  0
 19 20  1  0  0  0
  8 11  1  0  0  0
  8 12  1  0  0  0
M  END
> <minimizedAffinity>
-8.13095

> <CNNscore>
0.2534484565

> <CNNaffinity>
6.4183263779

> <CNN_VS>
1.6267149448

> <CNNaffinity_variance>
0.0597430952

$$$$
[H]c1nc(-c2nc3nc(N([H])c4c([H])c([H])nc(C([H])([H])[H])c4[H])sc3c(N([H])[H])c2[H])c([H])c([H])c1[H]


 27 30  0  0  0  0  0  0  0  0999 V2000
   41.3287   13.9433  -14.1997 C   0  0  0  0  0  0  0  0  0  0  0  0
   40.0300   13.6832  -14.1193 N   0  0  0  0  0  0  0  0  0  0  0  0
   39.4537   12.9942  -15.0477 C   0  0  0  0  0  0  0  0  0  0  0  0
   38.1193   12.6516  -15.0956 N   0  0  0  0  0  0  0  0  0  0  0  0
   37.6173   11.9444  -16.0870 C   0  0  0  0  0  0  0  0  0  0  0  0
   38.3553   11.4769  -17.1664 C   0  0  0  0  0  0  0  0  0  0  0  0
   39.6969   11.7963  -17.1604 C   0  0  0  0  0  0  0  0  0  0  0  0
   40.5999   11.4011  -18.1834 N   0  0  0  0  0  0  0  0  0  0  0  0
   40.2157   12.5506  -16.0965 C   0  0  0  0  0  0  0  0  0  0  0  0
   41.7454   13.1702  -15.6643 S   0  0  0  0  0  0  0  0  0  0  0  0
   41.5903   11.1186  -17.9960 H   0  0  0  0  0  0  0  0  0  0  0  0
   40.3197   11.3694  -19.2034 H   0  0  0  0  0  0  0  0  0  0  0  0
   36.1639   11.6368  -16.0297 C   0  0  0  0  0  0  0  0  0  0  0  0
   35.5672   10.7587  -16.8967 C   0  0  0  0  0  0  0  0  0  0  0  0
   34.1979   10.4811  -16.8283 C   0  0  0  0  0  0  0  0  0  0  0  0
   33.4306   11.1041  -15.8677 C   0  0  0  0  0  0  0  0  0  0  0  0
   34.0671   11.9796  -15.0154 C   0  0  0  0  0  0  0  0  0  0  0  0
   35.4029   12.2304  -15.1059 N   0  0  0  0  0  0  0  0  0  0  0  0
   42.0783   14.7081  -13.2585 N   0  0  0  0  0  0  0  0  0  0  0  0
   41.5545   15.5059  -12.7731 H   0  0  0  0  0  0  0  0  0  0  0  0
   46.9175   15.8982  -13.1629 C   0  0  0  0  0  0  0  0  0  0  0  0
   45.8162   14.9507  -12.8422 C   0  0  0  0  0  0  0  0  0  0  0  0
   44.5027   15.2593  -13.2039 C   0  0  0  0  0  0  0  0  0  0  0  0
   43.4327   14.4601  -12.9542 C   0  0  0  0  0  0  0  0  0  0  0  0
   43.7312   13.2550  -12.2853 C   0  0  0  0  0  0  0  0  0  0  0  0
   45.0165   12.9496  -11.9300 C   0  0  0  0  0  0  0  0  0  0  0  0
   46.0169   13.7894  -12.2104 N   0  0  0  0  0  0  0  0  0  0  0  0
 21 22  1  0  0  0
 22 23  2  0  0  0
 23 24  1  0  0  0
 24 19  1  0  0  0
 19  1  1  0  0  0
  1  2  2  0  0  0
  2  3  1  0  0  0
  3  4  2  0  0  0
  4  5  1  0  0  0
  5  6  2  0  0  0
  6  7  1  0  0  0
  7  8  1  0  0  0
  7  9  2  0  0  0
  9 10  1  0  0  0
  5 13  1  0  0  0
 13 14  2  0  0  0
 14 15  1  0  0  0
 15 16  2  0  0  0
 16 17  1  0  0  0
 17 18  2  0  0  0
 24 25  2  0  0  0
 25 26  1  0  0  0
 26 27  2  0  0  0
 27 22  1  0  0  0
 10  1  1  0  0  0
 18 13  1  0  0  0
  9  3  1  0  0  0
 19 20  1  0  0  0
  8 11  1  0  0  0
  8 12  1  0  0  0
M  END
> <minimizedAffinity>
-8.01916

> <CNNscore>
0.2355023921

> <CNNaffinity>
6.3484711647

> <CNN_VS>
1.4950801134

> <CNNaffinity_variance>
0.0607730746

$$$$
[H]c1nc(-c2nc3nc(N([H])c4c([H])c([H])nc(C([H])([H])[H])c4[H])sc3c(N([H])[H])c2[H])c([H])c([H])c1[H]


 27 30  0  0  0  0  0  0  0  0999 V2000
   43.3748   13.8850  -14.2208 C   0  0  0  0  0  0  0  0  0  0  0  0
   42.1264   13.7883  -13.7815 N   0  0  0  0  0  0  0  0  0  0  0  0
   41.2034   13.3336  -14.5625 C   0  0  0  0  0  0  0  0  0  0  0  0
   39.8713   13.1807  -14.2430 N   0  0  0  0  0  0  0  0  0  0  0  0
   38.9976   12.7083  -15.1082 C   0  0  0  0  0  0  0  0  0  0  0  0
   39.3112   12.3214  -16.4045 C   0  0  0  0  0  0  0  0  0  0  0  0
   40.6345   12.4571  -16.7684 C   0  0  0  0  0  0  0  0  0  0  0  0
   41.1322   12.1107  -18.0531 N   0  0  0  0  0  0  0  0  0  0  0  0
   41.5525   12.9622  -15.8345 C   0  0  0  0  0  0  0  0  0  0  0  0
   43.2244   13.3010  -15.8186 S   0  0  0  0  0  0  0  0  0  0  0  0
   42.0718   11.6749  -18.2055 H   0  0  0  0  0  0  0  0  0  0  0  0
   40.5756   12.2749  -18.9380 H   0  0  0  0  0  0  0  0  0  0  0  0
   37.5886   12.5889  -14.6493 C   0  0  0  0  0  0  0  0  0  0  0  0
   36.5307   12.6150  -15.5204 C   0  0  0  0  0  0  0  0  0  0  0  0
   35.2110   12.5013  -15.0709 C   0  0  0  0  0  0  0  0  0  0  0  0
   34.9679   12.3599  -13.7216 C   0  0  0  0  0  0  0  0  0  0  0  0
   36.0574   12.3382  -12.8786 C   0  0  0  0  0  0  0  0  0  0  0  0
   37.3320   12.4511  -13.3454 N   0  0  0  0  0  0  0  0  0  0  0  0
   44.4781   14.3892  -13.4717 N   0  0  0  0  0  0  0  0  0  0  0  0
   44.8965   13.7266  -12.7418 H   0  0  0  0  0  0  0  0  0  0  0  0
   47.7592   17.6240  -15.3724 C   0  0  0  0  0  0  0  0  0  0  0  0
   46.5585   17.3447  -14.5393 C   0  0  0  0  0  0  0  0  0  0  0  0
   46.1033   16.0326  -14.3892 C   0  0  0  0  0  0  0  0  0  0  0  0
   45.0186   15.6791  -13.6514 C   0  0  0  0  0  0  0  0  0  0  0  0
   44.3519   16.7494  -13.0200 C   0  0  0  0  0  0  0  0  0  0  0  0
   44.7952   18.0354  -13.1648 C   0  0  0  0  0  0  0  0  0  0  0  0
   45.8717   18.3034  -13.9093 N   0  0  0  0  0  0  0  0  0  0  0  0
 21 22  1  0  0  0
 22 23  2  0  0  0
 23 24  1  0  0  0
 24 19  1  0  0  0
 19  1  1  0  0  0
  1  2  2  0  0  0
  2  3  1  0  0  0
  3  4  2  0  0  0
  4  5  1  0  0  0
  5  6  2  0  0  0
  6  7  1  0  0  0
  7  8  1  0  0  0
  7  9  2  0  0  0
  9 10  1  0  0  0
  5 13  1  0  0  0
 13 14  2  0  0  0
 14 15  1  0  0  0
 15 16  2  0  0  0
 16 17  1  0  0  0
 17 18  2  0  0  0
 24 25  2  0  0  0
 25 26  1  0  0  0
 26 27  2  0  0  0
 27 22  1  0  0  0
 10  1  1  0  0  0
 18 13  1  0  0  0
  9  3  1  0  0  0
 19 20  1  0  0  0
  8 11  1  0  0  0
  8 12  1  0  0  0
M  END
> <minimizedAffinity>
-7.94966

> <CNNscore>
0.2289039046

> <CNNaffinity>
6.1607713699

> <CNN_VS>
1.4102246761

> <CNNaffinity_variance>
0.0724820942

$$$$
[H]c1nc(-c2nc3nc(N([H])c4c([H])c([H])nc(C([H])([H])[H])c4[H])sc3c(N([H])[H])c2[H])c([H])c([H])c1[H]


 27 30  0  0  0  0  0  0  0  0999 V2000
   41.0507   12.9818  -16.1874 C   0  0  0  0  0  0  0  0  0  0  0  0
   42.3497   12.7183  -16.2517 N   0  0  0  0  0  0  0  0  0  0  0  0
   43.1111   12.9885  -15.2437 C   0  0  0  0  0  0  0  0  0  0  0  0
   44.4704   12.7716  -15.1711 N   0  0  0  0  0  0  0  0  0  0  0  0
   45.1686   13.0814  -14.0980 C   0  0  0  0  0  0  0  0  0  0  0  0
   44.6288   13.6461  -12.9498 C   0  0  0  0  0  0  0  0  0  0  0  0
   43.2701   13.8811  -12.9775 C   0  0  0  0  0  0  0  0  0  0  0  0
   42.5527   14.4524  -11.8926 N   0  0  0  0  0  0  0  0  0  0  0  0
   42.5411   13.5452  -14.1289 C   0  0  0  0  0  0  0  0  0  0  0  0
   40.9102   13.6439  -14.6195 S   0  0  0  0  0  0  0  0  0  0  0  0
   41.5838   14.1574  -11.6275 H   0  0  0  0  0  0  0  0  0  0  0  0
   42.9610   15.2161  -11.2845 H   0  0  0  0  0  0  0  0  0  0  0  0
   46.6281   12.8014  -14.1369 C   0  0  0  0  0  0  0  0  0  0  0  0
   47.3187   12.3638  -13.0368 C   0  0  0  0  0  0  0  0  0  0  0  0
   48.6924   12.1052  -13.0917 C   0  0  0  0  0  0  0  0  0  0  0  0
   49.3675   12.2946  -14.2783 C   0  0  0  0  0  0  0  0  0  0  0  0
   48.6382   12.7352  -15.3609 C   0  0  0  0  0  0  0  0  0  0  0  0
   47.3006   12.9788  -15.2776 N   0  0  0  0  0  0  0  0  0  0  0  0
   40.1085   12.7544  -17.2329 N   0  0  0  0  0  0  0  0  0  0  0  0
   40.3926   13.0942  -18.2079 H   0  0  0  0  0  0  0  0  0  0  0  0
   35.7203   12.1553  -14.9466 C   0  0  0  0  0  0  0  0  0  0  0  0
   36.6905   11.7534  -16.0004 C   0  0  0  0  0  0  0  0  0  0  0  0
   37.9161   12.4149  -16.1095 C   0  0  0  0  0  0  0  0  0  0  0  0
   38.8641   12.1208  -17.0372 C   0  0  0  0  0  0  0  0  0  0  0  0
   38.5319   11.0703  -17.9175 C   0  0  0  0  0  0  0  0  0  0  0  0
   37.3327   10.4203  -17.8132 C   0  0  0  0  0  0  0  0  0  0  0  0
   36.4503   10.7688  -16.8727 N   0  0  0  0  0  0  0  0  0  0  0  0
 21 22  1  0  0  0
 22 23  2  0  0  0
 23 24  1  0  0  0
 24 19  1  0  0  0
 19  1  1  0  0  0
  1  2  2  0  0  0
  2  3  1  0  0  0
  3  4  2  0  0  0
  4  5  1  0  0  0
  5  6  2  0  0  0
  6  7  1  0  0  0
  7  8  1  0  0  0
  7  9  2  0  0  0
  9 10  1  0  0  0
  5 13  1  0  0  0
 13 14  2  0  0  0
 14 15  1  0  0  0
 15 16  2  0  0  0
 16 17  1  0  0  0
 17 18  2  0  0  0
 24 25  2  0  0  0
 25 26  1  0  0  0
 26 27  2  0  0  0
 27 22  1  0  0  0
 10  1  1  0  0  0
 18 13  1  0  0  0
  9  3  1  0  0  0
 19 20  1  0  0  0
  8 11  1  0  0  0
  8 12  1  0  0  0
M  END
> <minimizedAffinity>
-7.12948

> <CNNscore>
0.2247674316

> <CNNaffinity>
6.1846323013

> <CNN_VS>
1.3901039362

> <CNNaffinity_variance>
0.1407512724

$$$$
[H]c1nc(-c2nc3nc(N([H])c4c([H])c([H])nc(C([H])([H])[H])c4[H])sc3c(N([H])[H])c2[H])c([H])c([H])c1[H]


 27 30  0  0  0  0  0  0  0  0999 V2000
   41.8745   13.2553  -15.6311 C   0  0  0  0  0  0  0  0  0  0  0  0
   40.7438   12.7268  -16.0817 N   0  0  0  0  0  0  0  0  0  0  0  0
   39.6472   12.8944  -15.4199 C   0  0  0  0  0  0  0  0  0  0  0  0
   38.4063   12.4041  -15.7660 N   0  0  0  0  0  0  0  0  0  0  0  0
   37.3393   12.6247  -15.0259 C   0  0  0  0  0  0  0  0  0  0  0  0
   37.3438   13.3564  -13.8456 C   0  0  0  0  0  0  0  0  0  0  0  0
   38.5654   13.8670  -13.4599 C   0  0  0  0  0  0  0  0  0  0  0  0
   38.7545   14.6382  -12.2819 N   0  0  0  0  0  0  0  0  0  0  0  0
   39.6925   13.6224  -14.2599 C   0  0  0  0  0  0  0  0  0  0  0  0
   41.3491   14.0253  -14.2001 S   0  0  0  0  0  0  0  0  0  0  0  0
   39.4127   15.4505  -12.2281 H   0  0  0  0  0  0  0  0  0  0  0  0
   38.2352   14.4335  -11.3829 H   0  0  0  0  0  0  0  0  0  0  0  0
   36.0555   12.0446  -15.5007 C   0  0  0  0  0  0  0  0  0  0  0  0
   35.9704   11.2939  -16.6443 C   0  0  0  0  0  0  0  0  0  0  0  0
   34.7537   10.7556  -17.0762 C   0  0  0  0  0  0  0  0  0  0  0  0
   33.6140   10.9849  -16.3357 C   0  0  0  0  0  0  0  0  0  0  0  0
   33.7408   11.7441  -15.1931 C   0  0  0  0  0  0  0  0  0  0  0  0
   34.9395   12.2554  -14.7971 N   0  0  0  0  0  0  0  0  0  0  0  0
   43.1519   13.1264  -16.2509 N   0  0  0  0  0  0  0  0  0  0  0  0
   43.1555   12.7479  -17.2526 H   0  0  0  0  0  0  0  0  0  0  0  0
   46.0852   16.1214  -13.5550 C   0  0  0  0  0  0  0  0  0  0  0  0
   45.8749   14.8481  -14.2952 C   0  0  0  0  0  0  0  0  0  0  0  0
   44.6508   14.5985  -14.9204 C   0  0  0  0  0  0  0  0  0  0  0  0
   44.3644   13.4679  -15.6172 C   0  0  0  0  0  0  0  0  0  0  0  0
   45.4102   12.5238  -15.6787 C   0  0  0  0  0  0  0  0  0  0  0  0
   46.6102   12.7653  -15.0679 C   0  0  0  0  0  0  0  0  0  0  0  0
   46.8155   13.9035  -14.3991 N   0  0  0  0  0  0  0  0  0  0  0  0
 21 22  1  0  0  0
 22 23  2  0  0  0
 23 24  1  0  0  0
 24 19  1  0  0  0
 19  1  1  0  0  0
  1  2  2  0  0  0
  2  3  1  0  0  0
  3  4  2  0  0  0
  4  5  1  0  0  0
  5  6  2  0  0  0
  6  7  1  0  0  0
  7  8  1  0  0  0
  7  9  2  0  0  0
  9 10  1  0  0  0
  5 13  1  0  0  0
 13 14  2  0  0  0
 14 15  1  0  0  0
 15 16  2  0  0  0
 16 17  1  0  0  0
 17 18  2  0  0  0
 24 25  2  0  0  0
 25 26  1  0  0  0
 26 27  2  0  0  0
 27 22  1  0  0  0
 10  1  1  0  0  0
 18 13  1  0  0  0
  9  3  1  0  0  0
 19 20  1  0  0  0
  8 11  1  0  0  0
  8 12  1  0  0  0
M  END
> <minimizedAffinity>
-8.00498

> <CNNscore>
0.2014439702

> <CNNaffinity>
6.2147989273

> <CNN_VS>
1.2519338131

> <CNNaffinity_variance>
0.0297446195

$$$$
[H]c1nc(-c2nc3nc(N([H])c4c([H])c([H])nc(C([H])([H])[H])c4[H])sc3c(N([H])[H])c2[H])c([H])c([H])c1[H]


 27 30  0  0  0  0  0  0  0  0999 V2000
   37.8262   13.7606  -14.1612 C   0  0  0  0  0  0  0  0  0  0  0  0
   37.6233   14.3469  -12.9882 N   0  0  0  0  0  0  0  0  0  0  0  0
   36.4177   14.5683  -12.5802 C   0  0  0  0  0  0  0  0  0  0  0  0
   36.0594   15.1670  -11.3914 N   0  0  0  0  0  0  0  0  0  0  0  0
   34.7989   15.3538  -11.0581 C   0  0  0  0  0  0  0  0  0  0  0  0
   33.7179   14.9790  -11.8452 C   0  0  0  0  0  0  0  0  0  0  0  0
   34.0294   14.3753  -13.0455 C   0  0  0  0  0  0  0  0  0  0  0  0
   33.0512   13.9285  -13.9736 N   0  0  0  0  0  0  0  0  0  0  0  0
   35.3777   14.1839  -13.3853 C   0  0  0  0  0  0  0  0  0  0  0  0
   36.2262   13.5144  -14.7052 S   0  0  0  0  0  0  0  0  0  0  0  0
   33.1553   13.0541  -14.5397 H   0  0  0  0  0  0  0  0  0  0  0  0
   32.1525   14.4596  -14.1472 H   0  0  0  0  0  0  0  0  0  0  0  0
   34.5355   16.0106   -9.7506 C   0  0  0  0  0  0  0  0  0  0  0  0
   35.4948   16.7302   -9.0870 C   0  0  0  0  0  0  0  0  0  0  0  0
   35.2294   17.3417   -7.8572 C   0  0  0  0  0  0  0  0  0  0  0  0
   33.9750   17.2183   -7.2994 C   0  0  0  0  0  0  0  0  0  0  0  0
   33.0386   16.4872   -7.9971 C   0  0  0  0  0  0  0  0  0  0  0  0
   33.3261   15.9027   -9.1934 N   0  0  0  0  0  0  0  0  0  0  0  0
   39.1005   13.4806  -14.7358 N   0  0  0  0  0  0  0  0  0  0  0  0
   39.9455   13.9281  -14.2536 H   0  0  0  0  0  0  0  0  0  0  0  0
   37.5350   10.2896  -18.2300 C   0  0  0  0  0  0  0  0  0  0  0  0
   38.6160   11.1195  -17.6331 C   0  0  0  0  0  0  0  0  0  0  0  0
   38.3616   11.8781  -16.4880 C   0  0  0  0  0  0  0  0  0  0  0  0
   39.2817   12.6655  -15.8721 C   0  0  0  0  0  0  0  0  0  0  0  0
   40.5571   12.6751  -16.4737 C   0  0  0  0  0  0  0  0  0  0  0  0
   40.8097   11.9332  -17.5949 C   0  0  0  0  0  0  0  0  0  0  0  0
   39.8502   11.1827  -18.1435 N   0  0  0  0  0  0  0  0  0  0  0  0
 21 22  1  0  0  0
 22 23  2  0  0  0
 23 24  1  0  0  0
 24 19  1  0  0  0
 19  1  1  0  0  0
  1  2  2  0  0  0
  2  3  1  0  0  0
  3  4  2  0  0  0
  4  5  1  0  0  0
  5  6  2  0  0  0
  6  7  1  0  0  0
  7  8  1  0  0  0
  7  9  2  0  0  0
  9 10  1  0  0  0
  5 13  1  0  0  0
 13 14  2  0  0  0
 14 15  1  0  0  0
 15 16  2  0  0  0
 16 17  1  0  0  0
 17 18  2  0  0  0
 24 25  2  0  0  0
 25 26  1  0  0  0
 26 27  2  0  0  0
 27 22  1  0  0  0
 10  1  1  0  0  0
 18 13  1  0  0  0
  9  3  1  0  0  0
 19 20  1  0  0  0
  8 11  1  0  0  0
  8 12  1  0  0  0
M  END
> <minimizedAffinity>
-7.97059

> <CNNscore>
0.1900605708

> <CNNaffinity>
6.3268208504

> <CNN_VS>
1.2024791241

> <CNNaffinity_variance>
0.2464162558

$$$$
[H]c1nc(-c2nc3nc(N([H])c4c([H])c([H])nc(C([H])([H])[H])c4[H])sc3c(N([H])[H])c2[H])c([H])c([H])c1[H]


 27 30  0  0  0  0  0  0  0  0999 V2000
   35.5818   12.4223  -14.8306 C   0  0  0  0  0  0  0  0  0  0  0  0
   36.1564   13.2133  -13.9334 N   0  0  0  0  0  0  0  0  0  0  0  0
   35.4248   13.9112  -13.1293 C   0  0  0  0  0  0  0  0  0  0  0  0
   35.8825   14.7716  -12.1544 N   0  0  0  0  0  0  0  0  0  0  0  0
   35.0589   15.4460  -11.3786 C   0  0  0  0  0  0  0  0  0  0  0  0
   33.6744   15.3685  -11.4530 C   0  0  0  0  0  0  0  0  0  0  0  0
   33.1711   14.5185  -12.4155 C   0  0  0  0  0  0  0  0  0  0  0  0
   31.7817   14.3165  -12.6317 N   0  0  0  0  0  0  0  0  0  0  0  0
   34.0626   13.8075  -13.2339 C   0  0  0  0  0  0  0  0  0  0  0  0
   33.9248   12.6863  -14.5123 S   0  0  0  0  0  0  0  0  0  0  0  0
   31.3700   13.3877  -12.8842 H   0  0  0  0  0  0  0  0  0  0  0  0
   31.0767   15.1013  -12.5487 H   0  0  0  0  0  0  0  0  0  0  0  0
   35.6695   16.3439  -10.3632 C   0  0  0  0  0  0  0  0  0  0  0  0
   36.8639   16.9822  -10.5747 C   0  0  0  0  0  0  0  0  0  0  0  0
   37.4239   17.8238   -9.6079 C   0  0  0  0  0  0  0  0  0  0  0  0
   36.7603   18.0162   -8.4152 C   0  0  0  0  0  0  0  0  0  0  0  0
   35.5630   17.3573   -8.2408 C   0  0  0  0  0  0  0  0  0  0  0  0
   35.0420   16.5435   -9.2008 N   0  0  0  0  0  0  0  0  0  0  0  0
   36.2705   11.6206  -15.7874 N   0  0  0  0  0  0  0  0  0  0  0  0
   35.7057   10.8286  -16.2351 H   0  0  0  0  0  0  0  0  0  0  0  0
   40.1957   11.1158  -18.8174 C   0  0  0  0  0  0  0  0  0  0  0  0
   39.5916   11.6537  -17.5687 C   0  0  0  0  0  0  0  0  0  0  0  0
   38.2557   11.3800  -17.2657 C   0  0  0  0  0  0  0  0  0  0  0  0
   37.6168   11.8262  -16.1528 C   0  0  0  0  0  0  0  0  0  0  0  0
   38.4059   12.6099  -15.2857 C   0  0  0  0  0  0  0  0  0  0  0  0
   39.7146   12.8796  -15.5793 C   0  0  0  0  0  0  0  0  0  0  0  0
   40.2723   12.4044  -16.6964 N   0  0  0  0  0  0  0  0  0  0  0  0
 21 22  1  0  0  0
 22 23  2  0  0  0
 23 24  1  0  0  0
 24 19  1  0  0  0
 19  1  1  0  0  0
  1  2  2  0  0  0
  2  3  1  0  0  0
  3  4  2  0  0  0
  4  5  1  0  0  0
  5  6  2  0  0  0
  6  7  1  0  0  0
  7  8  1  0  0  0
  7  9  2  0  0  0
  9 10  1  0  0  0
  5 13  1  0  0  0
 13 14  2  0  0  0
 14 15  1  0  0  0
 15 16  2  0  0  0
 16 17  1  0  0  0
 17 18  2  0  0  0
 24 25  2  0  0  0
 25 26  1  0  0  0
 26 27  2  0  0  0
 27 22  1  0  0  0
 10  1  1  0  0  0
 18 13  1  0  0  0
  9  3  1  0  0  0
 19 20  1  0  0  0
  8 11  1  0  0  0
  8 12  1  0  0  0
M  END
> <minimizedAffinity>
-8.46060

> <CNNscore>
0.1470248103

> <CNNaffinity>
6.1962442398

> <CNN_VS>
0.9110016227

> <CNNaffinity_variance>
0.1320537031

$$$$
[H]c1nc(S(=O)(=O)N2C([H])([H])C([H])([H])OC([H])([H])C2([H])[H])c([H])c([H])c1N([H])c1nc(C([H])([H])C([H])([H])C([H])([H])[H])c([H])s1


 25 27  0  0  0  0  0  0  0  0999 V2000
   41.9365   13.4125  -15.8568 C   0  0  0  0  0  0  0  0  0  0  0  0
   43.2705   13.1050  -15.9242 C   0  0  0  0  0  0  0  0  0  0  0  0
   44.0887   13.1027  -14.7804 C   0  0  0  0  0  0  0  0  0  0  0  0
   43.5720   13.4113  -13.5445 C   0  0  0  0  0  0  0  0  0  0  0  0
   42.2645   13.7097  -13.4934 N   0  0  0  0  0  0  0  0  0  0  0  0
   41.4653   13.7185  -14.5715 C   0  0  0  0  0  0  0  0  0  0  0  0
   44.5658   13.4160  -12.1080 S   0  0  0  0  0  0  0  0  0  0  0  0
   43.7888   12.9579  -10.9026 O   0  0  0  0  0  0  0  0  0  0  0  0
   45.6809   12.4251  -12.3077 O   0  0  0  0  0  0  0  0  0  0  0  0
   45.2130   14.9582  -11.7685 N   0  0  0  0  0  0  0  0  0  0  0  0
   44.2314   15.9605  -11.4890 C   0  0  0  0  0  0  0  0  0  0  0  0
   43.8280   16.7797  -12.6710 C   0  0  0  0  0  0  0  0  0  0  0  0
   44.8531   17.1084  -13.5213 O   0  0  0  0  0  0  0  0  0  0  0  0
   46.1126   16.8098  -13.0495 C   0  0  0  0  0  0  0  0  0  0  0  0
   46.1654   15.3214  -12.7717 C   0  0  0  0  0  0  0  0  0  0  0  0
   41.0323   13.4712  -16.9281 N   0  0  0  0  0  0  0  0  0  0  0  0
   41.1135   14.3202  -17.5877 H   0  0  0  0  0  0  0  0  0  0  0  0
   37.9933   11.5594  -16.8452 C   0  0  0  0  0  0  0  0  0  0  0  0
   38.2913   10.6823  -17.8568 C   0  0  0  0  0  0  0  0  0  0  0  0
   39.8460   11.2268  -18.3055 S   0  0  0  0  0  0  0  0  0  0  0  0
   40.0189   12.5071  -17.2051 C   0  0  0  0  0  0  0  0  0  0  0  0
   38.8618   12.4549  -16.5381 N   0  0  0  0  0  0  0  0  0  0  0  0
   36.6566   11.4492  -16.1276 C   0  0  0  0  0  0  0  0  0  0  0  0
   34.3628   10.6030  -16.6564 C   0  0  0  0  0  0  0  0  0  0  0  0
   35.5956   11.2643  -17.1906 C   0  0  0  0  0  0  0  0  0  0  0  0
 24 25  1  0  0  0
 25 23  1  0  0  0
 23 18  1  0  0  0
 18 19  2  0  0  0
 19 20  1  0  0  0
 20 21  1  0  0  0
 21 16  1  0  0  0
 16  1  1  0  0  0
  1  2  2  0  0  0
  2  3  1  0  0  0
  3  4  2  0  0  0
  4  5  1  0  0  0
  5  6  2  0  0  0
  4  7  1  0  0  0
  7  8  2  0  0  0
  7  9  2  0  0  0
  7 10  1  0  0  0
 10 11  1  0  0  0
 11 12  1  0  0  0
 12 13  1  0  0  0
 13 14  1  0  0  0
 14 15  1  0  0  0
 21 22  2  0  0  0
 22 18  1  0  0  0
  6  1  1  0  0  0
 15 10  1  0  0  0
 16 17  1  0  0  0
M  END
> <minimizedAffinity>
-6.46037

> <CNNscore>
0.6641712785

> <CNNaffinity>
6.3707962036

> <CNN_VS>
4.2312998772

> <CNNaffinity_variance>
0.0999712944

$$$$
[H]c1nc(S(=O)(=O)N2C([H])([H])C([H])([H])OC([H])([H])C2([H])[H])c([H])c([H])c1N([H])c1nc(C([H])([H])C([H])([H])C([H])([H])[H])c([H])s1


 25 27  0  0  0  0  0  0  0  0999 V2000
   40.4917   12.3900  -16.4576 C   0  0  0  0  0  0  0  0  0  0  0  0
   40.2451   13.1178  -15.3227 C   0  0  0  0  0  0  0  0  0  0  0  0
   41.2868   13.6697  -14.5559 C   0  0  0  0  0  0  0  0  0  0  0  0
   42.6000   13.4961  -14.9235 C   0  0  0  0  0  0  0  0  0  0  0  0
   42.8265   12.7820  -16.0369 N   0  0  0  0  0  0  0  0  0  0  0  0
   41.8485   12.2460  -16.7836 C   0  0  0  0  0  0  0  0  0  0  0  0
   43.9128   14.1706  -13.9893 S   0  0  0  0  0  0  0  0  0  0  0  0
   44.7952   13.0897  -13.4243 O   0  0  0  0  0  0  0  0  0  0  0  0
   44.7706   14.9922  -14.9136 O   0  0  0  0  0  0  0  0  0  0  0  0
   43.3620   15.1375  -12.6953 N   0  0  0  0  0  0  0  0  0  0  0  0
   43.9639   16.4336  -12.6306 C   0  0  0  0  0  0  0  0  0  0  0  0
   45.1500   16.5218  -11.7270 C   0  0  0  0  0  0  0  0  0  0  0  0
   45.0397   15.8092  -10.5601 O   0  0  0  0  0  0  0  0  0  0  0  0
   43.7850   15.2965  -10.3132 C   0  0  0  0  0  0  0  0  0  0  0  0
   43.4129   14.3961  -11.4735 C   0  0  0  0  0  0  0  0  0  0  0  0
   39.5401   11.7737  -17.2843 N   0  0  0  0  0  0  0  0  0  0  0  0
   39.8952   11.3717  -18.2196 H   0  0  0  0  0  0  0  0  0  0  0  0
   36.2734   12.2249  -15.8620 C   0  0  0  0  0  0  0  0  0  0  0  0
   35.6128   11.2709  -16.5934 C   0  0  0  0  0  0  0  0  0  0  0  0
   36.8854   10.6699  -17.5599 S   0  0  0  0  0  0  0  0  0  0  0  0
   38.1511   11.6453  -16.9887 C   0  0  0  0  0  0  0  0  0  0  0  0
   37.5294   12.3945  -16.0728 N   0  0  0  0  0  0  0  0  0  0  0  0
   35.5070   13.0470  -14.8371 C   0  0  0  0  0  0  0  0  0  0  0  0
   35.9095   13.0967  -12.3687 C   0  0  0  0  0  0  0  0  0  0  0  0
   35.5096   12.2601  -13.5446 C   0  0  0  0  0  0  0  0  0  0  0  0
 24 25  1  0  0  0
 25 23  1  0  0  0
 23 18  1  0  0  0
 18 19  2  0  0  0
 19 20  1  0  0  0
 20 21  1  0  0  0
 21 16  1  0  0  0
 16  1  1  0  0  0
  1  2  2  0  0  0
  2  3  1  0  0  0
  3  4  2  0  0  0
  4  5  1  0  0  0
  5  6  2  0  0  0
  4  7  1  0  0  0
  7  8  2  0  0  0
  7  9  2  0  0  0
  7 10  1  0  0  0
 10 11  1  0  0  0
 11 12  1  0  0  0
 12 13  1  0  0  0
 13 14  1  0  0  0
 14 15  1  0  0  0
 21 22  2  0  0  0
 22 18  1  0  0  0
  6  1  1  0  0  0
 15 10  1  0  0  0
 16 17  1  0  0  0
M  END
> <minimizedAffinity>
-6.26730

> <CNNscore>
0.6209565401

> <CNNaffinity>
6.3559861183

> <CNN_VS>
3.9467911720

> <CNNaffinity_variance>
0.0472365245

$$$$
[H]c1nc(S(=O)(=O)N2C([H])([H])C([H])([H])OC([H])([H])C2([H])[H])c([H])c([H])c1N([H])c1nc(C([H])([H])C([H])([H])C([H])([H])[H])c([H])s1


 25 27  0  0  0  0  0  0  0  0999 V2000
   41.7799   12.9756  -15.6401 C   0  0  0  0  0  0  0  0  0  0  0  0
   42.1297   13.4617  -14.4072 C   0  0  0  0  0  0  0  0  0  0  0  0
   43.4718   13.5349  -13.9935 C   0  0  0  0  0  0  0  0  0  0  0  0
   44.4873   13.1175  -14.8207 C   0  0  0  0  0  0  0  0  0  0  0  0
   44.1302   12.6446  -16.0247 N   0  0  0  0  0  0  0  0  0  0  0  0
   42.8566   12.5653  -16.4402 C   0  0  0  0  0  0  0  0  0  0  0  0
   46.1624   13.1974  -14.3317 S   0  0  0  0  0  0  0  0  0  0  0  0
   46.4189   12.3494  -13.1146 O   0  0  0  0  0  0  0  0  0  0  0  0
   47.0016   12.6265  -15.4431 O   0  0  0  0  0  0  0  0  0  0  0  0
   46.6645   14.7911  -13.9846 N   0  0  0  0  0  0  0  0  0  0  0  0
   46.8032   15.0743  -12.5893 C   0  0  0  0  0  0  0  0  0  0  0  0
   45.5987   15.6938  -11.9598 C   0  0  0  0  0  0  0  0  0  0  0  0
   44.9533   16.6201  -12.7389 O   0  0  0  0  0  0  0  0  0  0  0  0
   45.6274   16.9804  -13.8852 C   0  0  0  0  0  0  0  0  0  0  0  0
   45.8571   15.7268  -14.7043 C   0  0  0  0  0  0  0  0  0  0  0  0
   40.4804   12.8326  -16.1495 N   0  0  0  0  0  0  0  0  0  0  0  0
   40.3914   12.4807  -17.1648 H   0  0  0  0  0  0  0  0  0  0  0  0
   37.0795   12.8097  -14.9956 C   0  0  0  0  0  0  0  0  0  0  0  0
   37.1984   13.7770  -14.0304 C   0  0  0  0  0  0  0  0  0  0  0  0
   38.8499   14.1815  -14.1837 S   0  0  0  0  0  0  0  0  0  0  0  0
   39.2794   13.1208  -15.4369 C   0  0  0  0  0  0  0  0  0  0  0  0
   38.1213   12.4996  -15.6807 N   0  0  0  0  0  0  0  0  0  0  0  0
   35.7336   12.1378  -15.2212 C   0  0  0  0  0  0  0  0  0  0  0  0
   34.5553   10.6728  -16.8714 C   0  0  0  0  0  0  0  0  0  0  0  0
   35.8114   11.4236  -16.5531 C   0  0  0  0  0  0  0  0  0  0  0  0
 24 25  1  0  0  0
 25 23  1  0  0  0
 23 18  1  0  0  0
 18 19  2  0  0  0
 19 20  1  0  0  0
 20 21  1  0  0  0
 21 16  1  0  0  0
 16  1  1  0  0  0
  1  2  2  0  0  0
  2  3  1  0  0  0
  3  4  2  0  0  0
  4  5  1  0  0  0
  5  6  2  0  0  0
  4  7  1  0  0  0
  7  8  2  0  0  0
  7  9  2  0  0  0
  7 10  1  0  0  0
 10 11  1  0  0  0
 11 12  1  0  0  0
 12 13  1  0  0  0
 13 14  1  0  0  0
 14 15  1  0  0  0
 21 22  2  0  0  0
 22 18  1  0  0  0
  6  1  1  0  0  0
 15 10  1  0  0  0
 16 17  1  0  0  0
M  END
> <minimizedAffinity>
-6.32652

> <CNNscore>
0.2522333562

> <CNNaffinity>
5.7897896767

> <CNN_VS>
1.4603780508

> <CNNaffinity_variance>
0.1697202474

$$$$
[H]c1nc(S(=O)(=O)N2C([H])([H])C([H])([H])OC([H])([H])C2([H])[H])c([H])c([H])c1N([H])c1nc(C([H])([H])C([H])([H])C([H])([H])[H])c([H])s1


 25 27  0  0  0  0  0  0  0  0999 V2000
   36.3107   12.4112  -14.8218 C   0  0  0  0  0  0  0  0  0  0  0  0
   35.7944   13.6769  -14.9218 C   0  0  0  0  0  0  0  0  0  0  0  0
   35.7220   14.5370  -13.8115 C   0  0  0  0  0  0  0  0  0  0  0  0
   36.1718   14.1326  -12.5770 C   0  0  0  0  0  0  0  0  0  0  0  0
   36.6752   12.8913  -12.4941 N   0  0  0  0  0  0  0  0  0  0  0  0
   36.7538   12.0537  -13.5398 C   0  0  0  0  0  0  0  0  0  0  0  0
   36.0936   15.1806  -11.1817 S   0  0  0  0  0  0  0  0  0  0  0  0
   34.7633   15.8801  -11.0958 O   0  0  0  0  0  0  0  0  0  0  0  0
   36.2155   14.3268   -9.9483 O   0  0  0  0  0  0  0  0  0  0  0  0
   37.3191   16.3683  -11.1895 N   0  0  0  0  0  0  0  0  0  0  0  0
   38.6492   15.8422  -11.2114 C   0  0  0  0  0  0  0  0  0  0  0  0
   39.2830   15.7031   -9.8661 C   0  0  0  0  0  0  0  0  0  0  0  0
   39.0151   16.7276   -8.9941 O   0  0  0  0  0  0  0  0  0  0  0  0
   38.3797   17.8130   -9.5565 C   0  0  0  0  0  0  0  0  0  0  0  0
   37.0763   17.3295  -10.1587 C   0  0  0  0  0  0  0  0  0  0  0  0
   36.4105   11.4606  -15.8490 N   0  0  0  0  0  0  0  0  0  0  0  0
   35.5959   10.7609  -15.9457 H   0  0  0  0  0  0  0  0  0  0  0  0
   39.6293   11.7581  -17.4138 C   0  0  0  0  0  0  0  0  0  0  0  0
   39.3644   11.0190  -18.5386 C   0  0  0  0  0  0  0  0  0  0  0  0
   37.7386   10.5800  -18.2580 S   0  0  0  0  0  0  0  0  0  0  0  0
   37.4996   11.3451  -16.7622 C   0  0  0  0  0  0  0  0  0  0  0  0
   38.6929   11.9075  -16.5469 N   0  0  0  0  0  0  0  0  0  0  0  0
   41.0098   12.3688  -17.2266 C   0  0  0  0  0  0  0  0  0  0  0  0
   41.7950   13.3040  -15.0434 C   0  0  0  0  0  0  0  0  0  0  0  0
   40.8699   13.4791  -16.2080 C   0  0  0  0  0  0  0  0  0  0  0  0
 24 25  1  0  0  0
 25 23  1  0  0  0
 23 18  1  0  0  0
 18 19  2  0  0  0
 19 20  1  0  0  0
 20 21  1  0  0  0
 21 16  1  0  0  0
 16  1  1  0  0  0
  1  2  2  0  0  0
  2  3  1  0  0  0
  3  4  2  0  0  0
  4  5  1  0  0  0
  5  6  2  0  0  0
  4  7  1  0  0  0
  7  8  2  0  0  0
  7  9  2  0  0  0
  7 10  1  0  0  0
 10 11  1  0  0  0
 11 12  1  0  0  0
 12 13  1  0  0  0
 13 14  1  0  0  0
 14 15  1  0  0  0
 21 22  2  0  0  0
 22 18  1  0  0  0
  6  1  1  0  0  0
 15 10  1  0  0  0
 16 17  1  0  0  0
M  END
> <minimizedAffinity>
-7.02864

> <CNNscore>
0.1879820228

> <CNNaffinity>
5.7678489685

> <CNN_VS>
1.0842518806

> <CNNaffinity_variance>
0.2747458220

$$$$
[H]c1nc(S(=O)(=O)N2C([H])([H])C([H])([H])OC([H])([H])C2([H])[H])c([H])c([H])c1N([H])c1nc(C([H])([H])C([H])([H])C([H])([H])[H])c([H])s1


 25 27  0  0  0  0  0  0  0  0999 V2000
   35.9714   13.4950  -14.1106 C   0  0  0  0  0  0  0  0  0  0  0  0
   36.5693   14.7161  -13.9375 C   0  0  0  0  0  0  0  0  0  0  0  0
   36.8755   15.2161  -12.6592 C   0  0  0  0  0  0  0  0  0  0  0  0
   36.5827   14.4889  -11.5300 C   0  0  0  0  0  0  0  0  0  0  0  0
   35.9980   13.2952  -11.7146 N   0  0  0  0  0  0  0  0  0  0  0  0
   35.6965   12.7985  -12.9244 C   0  0  0  0  0  0  0  0  0  0  0  0
   36.9522   15.0864   -9.9307 S   0  0  0  0  0  0  0  0  0  0  0  0
   36.2949   14.2479   -8.8671 O   0  0  0  0  0  0  0  0  0  0  0  0
   38.4377   14.9692   -9.7194 O   0  0  0  0  0  0  0  0  0  0  0  0
   36.4602   16.7057   -9.7104 N   0  0  0  0  0  0  0  0  0  0  0  0
   37.5383   17.6333   -9.5571 C   0  0  0  0  0  0  0  0  0  0  0  0
   37.9089   17.9243   -8.1397 C   0  0  0  0  0  0  0  0  0  0  0  0
   36.8479   18.0291   -7.2765 O   0  0  0  0  0  0  0  0  0  0  0  0
   35.6110   18.0536   -7.8827 C   0  0  0  0  0  0  0  0  0  0  0  0
   35.4618   16.7797   -8.6891 C   0  0  0  0  0  0  0  0  0  0  0  0
   35.5981   12.9071  -15.3288 N   0  0  0  0  0  0  0  0  0  0  0  0
   34.5747   13.0410  -15.6406 H   0  0  0  0  0  0  0  0  0  0  0  0
   38.4898   11.6272  -17.0310 C   0  0  0  0  0  0  0  0  0  0  0  0
   37.8627   10.6569  -17.7705 C   0  0  0  0  0  0  0  0  0  0  0  0
   36.2444   10.8676  -17.2691 S   0  0  0  0  0  0  0  0  0  0  0  0
   36.4581   12.1471  -16.1749 C   0  0  0  0  0  0  0  0  0  0  0  0
   37.7766   12.3539  -16.2474 N   0  0  0  0  0  0  0  0  0  0  0  0
   39.9947   11.8094  -17.1564 C   0  0  0  0  0  0  0  0  0  0  0  0
   41.9133   12.8717  -15.9531 C   0  0  0  0  0  0  0  0  0  0  0  0
   40.4244   12.7369  -16.0406 C   0  0  0  0  0  0  0  0  0  0  0  0
 24 25  1  0  0  0
 25 23  1  0  0  0
 23 18  1  0  0  0
 18 19  2  0  0  0
 19 20  1  0  0  0
 20 21  1  0  0  0
 21 16  1  0  0  0
 16  1  1  0  0  0
  1  2  2  0  0  0
  2  3  1  0  0  0
  3  4  2  0  0  0
  4  5  1  0  0  0
  5  6  2  0  0  0
  4  7  1  0  0  0
  7  8  2  0  0  0
  7  9  2  0  0  0
  7 10  1  0  0  0
 10 11  1  0  0  0
 11 12  1  0  0  0
 12 13  1  0  0  0
 13 14  1  0  0  0
 14 15  1  0  0  0
 21 22  2  0  0  0
 22 18  1  0  0  0
  6  1  1  0  0  0
 15 10  1  0  0  0
 16 17  1  0  0  0
M  END
> <minimizedAffinity>
-7.10881

> <CNNscore>
0.1792447567

> <CNNaffinity>
5.6824994087

> <CNN_VS>
1.0185582638

> <CNNaffinity_variance>
0.2096004933

$$$$
[H]c1nc(S(=O)(=O)N2C([H])([H])C([H])([H])OC([H])([H])C2([H])[H])c([H])c([H])c1N([H])c1nc(C([H])([H])C([H])([H])C([H])([H])[H])c([H])s1


 25 27  0  0  0  0  0  0  0  0999 V2000
   34.8026   14.6658  -12.5286 C   0  0  0  0  0  0  0  0  0  0  0  0
   34.3215   15.6105  -11.6599 C   0  0  0  0  0  0  0  0  0  0  0  0
   34.8486   15.7626  -10.3650 C   0  0  0  0  0  0  0  0  0  0  0  0
   35.8745   14.9611   -9.9237 C   0  0  0  0  0  0  0  0  0  0  0  0
   36.3359   14.0411  -10.7850 N   0  0  0  0  0  0  0  0  0  0  0  0
   35.8481   13.8780  -12.0246 C   0  0  0  0  0  0  0  0  0  0  0  0
   36.5474   15.1288   -8.3205 S   0  0  0  0  0  0  0  0  0  0  0  0
   35.5974   15.8473   -7.3999 O   0  0  0  0  0  0  0  0  0  0  0  0
   36.7454   13.7502   -7.7499 O   0  0  0  0  0  0  0  0  0  0  0  0
   38.0292   15.9754   -8.3213 N   0  0  0  0  0  0  0  0  0  0  0  0
   37.8948   17.3983   -8.3811 C   0  0  0  0  0  0  0  0  0  0  0  0
   37.9726   17.9710   -9.7584 C   0  0  0  0  0  0  0  0  0  0  0  0
   38.9037   17.3820  -10.5756 O   0  0  0  0  0  0  0  0  0  0  0  0
   39.7539   16.5024   -9.9419 C   0  0  0  0  0  0  0  0  0  0  0  0
   38.9107   15.4193   -9.3007 C   0  0  0  0  0  0  0  0  0  0  0  0
   34.3416   14.4067  -13.8283 N   0  0  0  0  0  0  0  0  0  0  0  0
   33.6614   15.1256  -14.2560 H   0  0  0  0  0  0  0  0  0  0  0  0
   36.1536   12.0592  -15.8541 C   0  0  0  0  0  0  0  0  0  0  0  0
   35.1525   11.1363  -16.0194 C   0  0  0  0  0  0  0  0  0  0  0  0
   33.8912   11.8693  -15.1325 S   0  0  0  0  0  0  0  0  0  0  0  0
   34.6946   13.2725  -14.6172 C   0  0  0  0  0  0  0  0  0  0  0  0
   35.9066   13.1096  -15.1567 N   0  0  0  0  0  0  0  0  0  0  0  0
   37.5127   11.8126  -16.4913 C   0  0  0  0  0  0  0  0  0  0  0  0
   39.8788   12.5120  -16.0792 C   0  0  0  0  0  0  0  0  0  0  0  0
   38.5591   12.1713  -15.4587 C   0  0  0  0  0  0  0  0  0  0  0  0
 24 25  1  0  0  0
 25 23  1  0  0  0
 23 18  1  0  0  0
 18 19  2  0  0  0
 19 20  1  0  0  0
 20 21  1  0  0  0
 21 16  1  0  0  0
 16  1  1  0  0  0
  1  2  2  0  0  0
  2  3  1  0  0  0
  3  4  2  0  0  0
  4  5  1  0  0  0
  5  6  2  0  0  0
  4  7  1  0  0  0
  7  8  2  0  0  0
  7  9  2  0  0  0
  7 10  1  0  0  0
 10 11  1  0  0  0
 11 12  1  0  0  0
 12 13  1  0  0  0
 13 14  1  0  0  0
 14 15  1  0  0  0
 21 22  2  0  0  0
 22 18  1  0  0  0
  6  1  1  0  0  0
 15 10  1  0  0  0
 16 17  1  0  0  0
M  END
> <minimizedAffinity>
-7.06772

> <CNNscore>
0.1637368202

> <CNNaffinity>
5.4643430710

> <CNN_VS>
0.8947141767

> <CNNaffinity_variance>
0.3796693087

$$$$
[H]c1nc(S(=O)(=O)N2C([H])([H])C([H])([H])OC([H])([H])C2([H])[H])c([H])c([H])c1N([H])c1nc(C([H])([H])C([H])([H])C([H])([H])[H])c([H])s1


 25 27  0  0  0  0  0  0  0  0999 V2000
   35.7286   13.2725  -13.7826 C   0  0  0  0  0  0  0  0  0  0  0  0
   35.7868   12.9911  -12.4425 C   0  0  0  0  0  0  0  0  0  0  0  0
   36.3839   13.8746  -11.5256 C   0  0  0  0  0  0  0  0  0  0  0  0
   36.9339   15.0617  -11.9475 C   0  0  0  0  0  0  0  0  0  0  0  0
   36.8692   15.3242  -13.2620 N   0  0  0  0  0  0  0  0  0  0  0  0
   36.3049   14.4961  -14.1548 C   0  0  0  0  0  0  0  0  0  0  0  0
   37.6815   16.1768  -10.8300 S   0  0  0  0  0  0  0  0  0  0  0  0
   39.1021   16.4795  -11.2260 O   0  0  0  0  0  0  0  0  0  0  0  0
   36.9270   17.4775  -10.8923 O   0  0  0  0  0  0  0  0  0  0  0  0
   37.6904   15.5866   -9.2288 N   0  0  0  0  0  0  0  0  0  0  0  0
   37.1654   16.5001   -8.2612 C   0  0  0  0  0  0  0  0  0  0  0  0
   38.1948   17.3421   -7.5812 C   0  0  0  0  0  0  0  0  0  0  0  0
   39.3631   16.6906   -7.2772 O   0  0  0  0  0  0  0  0  0  0  0  0
   39.3267   15.3254   -7.4587 C   0  0  0  0  0  0  0  0  0  0  0  0
   38.9799   15.0571   -8.9089 C   0  0  0  0  0  0  0  0  0  0  0  0
   35.1835   12.4608  -14.7890 N   0  0  0  0  0  0  0  0  0  0  0  0
   34.1193   12.2909  -14.7543 H   0  0  0  0  0  0  0  0  0  0  0  0
   37.8488   11.3650  -16.9321 C   0  0  0  0  0  0  0  0  0  0  0  0
   37.0949   10.6410  -17.8203 C   0  0  0  0  0  0  0  0  0  0  0  0
   35.5319   10.8651  -17.1712 S   0  0  0  0  0  0  0  0  0  0  0  0
   35.9225   11.8432  -15.8405 C   0  0  0  0  0  0  0  0  0  0  0  0
   37.2494   11.9524  -15.9593 N   0  0  0  0  0  0  0  0  0  0  0  0
   39.3559   11.4469  -17.1211 C   0  0  0  0  0  0  0  0  0  0  0  0
   40.6579   13.5450  -16.7205 C   0  0  0  0  0  0  0  0  0  0  0  0
   39.8795   12.4287  -16.0954 C   0  0  0  0  0  0  0  0  0  0  0  0
 24 25  1  0  0  0
 25 23  1  0  0  0
 23 18  1  0  0  0
 18 19  2  0  0  0
 19 20  1  0  0  0
 20 21  1  0  0  0
 21 16  1  0  0  0
 16  1  1  0  0  0
  1  2  2  0  0  0
  2  3  1  0  0  0
  3  4  2  0  0  0
  4  5  1  0  0  0
  5  6  2  0  0  0
  4  7  1  0  0  0
  7  8  2  0  0  0
  7  9  2  0  0  0
  7 10  1  0  0  0
 10 11  1  0  0  0
 11 12  1  0  0  0
 12 13  1  0  0  0
 13 14  1  0  0  0
 14 15  1  0  0  0
 21 22  2  0  0  0
 22 18  1  0  0  0
  6  1  1  0  0  0
 15 10  1  0  0  0
 16 17  1  0  0  0
M  END
> <minimizedAffinity>
-6.96154

> <CNNscore>
0.1596508324

> <CNNaffinity>
5.7692284584

> <CNN_VS>
0.9210621119

> <CNNaffinity_variance>
0.1449675858

$$$$
[H]c1nc(S(=O)(=O)N2C([H])([H])C([H])([H])OC([H])([H])C2([H])[H])c([H])c([H])c1N([H])c1nc(C([H])([H])C([H])([H])C([H])([H])[H])c([H])s1


 25 27  0  0  0  0  0  0  0  0999 V2000
   39.3778   13.5875  -14.2696 C   0  0  0  0  0  0  0  0  0  0  0  0
   38.2719   12.9851  -13.7286 C   0  0  0  0  0  0  0  0  0  0  0  0
   37.4498   13.6453  -12.7980 C   0  0  0  0  0  0  0  0  0  0  0  0
   37.7308   14.9298  -12.3968 C   0  0  0  0  0  0  0  0  0  0  0  0
   38.8160   15.5072  -12.9351 N   0  0  0  0  0  0  0  0  0  0  0  0
   39.6147   14.8964  -13.8241 C   0  0  0  0  0  0  0  0  0  0  0  0
   36.7264   15.7726  -11.2427 S   0  0  0  0  0  0  0  0  0  0  0  0
   36.2964   17.1160  -11.7686 O   0  0  0  0  0  0  0  0  0  0  0  0
   35.4728   14.9656  -11.0366 O   0  0  0  0  0  0  0  0  0  0  0  0
   37.5138   16.0142   -9.7480 N   0  0  0  0  0  0  0  0  0  0  0  0
   38.4195   17.1215   -9.7314 C   0  0  0  0  0  0  0  0  0  0  0  0
   39.8407   16.7641  -10.0202 C   0  0  0  0  0  0  0  0  0  0  0  0
   40.2631   15.5844   -9.4621 O   0  0  0  0  0  0  0  0  0  0  0  0
   39.3828   15.0232   -8.5632 C   0  0  0  0  0  0  0  0  0  0  0  0
   38.0718   14.7821   -9.2834 C   0  0  0  0  0  0  0  0  0  0  0  0
   40.2810   13.0220  -15.1824 N   0  0  0  0  0  0  0  0  0  0  0  0
   41.3304   13.1346  -14.9621 H   0  0  0  0  0  0  0  0  0  0  0  0
   38.4656   11.1542  -17.6549 C   0  0  0  0  0  0  0  0  0  0  0  0
   39.4491   11.0936  -18.6092 C   0  0  0  0  0  0  0  0  0  0  0  0
   40.7048   11.9484  -17.8300 S   0  0  0  0  0  0  0  0  0  0  0  0
   39.9215   12.3225  -16.3718 C   0  0  0  0  0  0  0  0  0  0  0  0
   38.7196   11.7670  -16.5546 N   0  0  0  0  0  0  0  0  0  0  0  0
   37.1172   10.5046  -17.9263 C   0  0  0  0  0  0  0  0  0  0  0  0
   34.8797   10.4774  -16.8081 C   0  0  0  0  0  0  0  0  0  0  0  0
   36.0796   11.2998  -17.1641 C   0  0  0  0  0  0  0  0  0  0  0  0
 24 25  1  0  0  0
 25 23  1  0  0  0
 23 18  1  0  0  0
 18 19  2  0  0  0
 19 20  1  0  0  0
 20 21  1  0  0  0
 21 16  1  0  0  0
 16  1  1  0  0  0
  1  2  2  0  0  0
  2  3  1  0  0  0
  3  4  2  0  0  0
  4  5  1  0  0  0
  5  6  2  0  0  0
  4  7  1  0  0  0
  7  8  2  0  0  0
  7  9  2  0  0  0
  7 10  1  0  0  0
 10 11  1  0  0  0
 11 12  1  0  0  0
 12 13  1  0  0  0
 13 14  1  0  0  0
 14 15  1  0  0  0
 21 22  2  0  0  0
 22 18  1  0  0  0
  6  1  1  0  0  0
 15 10  1  0  0  0
 16 17  1  0  0  0
M  END
> <minimizedAffinity>
-7.11393

> <CNNscore>
0.1570761204

> <CNNaffinity>
5.7788448334

> <CNN_VS>
0.9077185392

> <CNNaffinity_variance>
0.0822309181

$$$$
[H]c1nc(S(=O)(=O)N2C([H])([H])C([H])([H])OC([H])([H])C2([H])[H])c([H])c([H])c1N([H])c1nc(C([H])([H])C([H])([H])C([H])([H])[H])c([H])s1


 25 27  0  0  0  0  0  0  0  0999 V2000
   36.2572   14.6618  -12.7823 C   0  0  0  0  0  0  0  0  0  0  0  0
   35.6358   14.6469  -11.5607 C   0  0  0  0  0  0  0  0  0  0  0  0
   36.3292   14.9427  -10.3736 C   0  0  0  0  0  0  0  0  0  0  0  0
   37.6664   15.2603  -10.3996 C   0  0  0  0  0  0  0  0  0  0  0  0
   38.2615   15.2716  -11.6024 N   0  0  0  0  0  0  0  0  0  0  0  0
   37.6200   14.9924  -12.7477 C   0  0  0  0  0  0  0  0  0  0  0  0
   38.5514   15.6317   -8.9401 S   0  0  0  0  0  0  0  0  0  0  0  0
   38.5843   17.1144   -8.6816 O   0  0  0  0  0  0  0  0  0  0  0  0
   37.8249   15.0050   -7.7805 O   0  0  0  0  0  0  0  0  0  0  0  0
   40.1604   15.0654   -8.9920 N   0  0  0  0  0  0  0  0  0  0  0  0
   40.6159   14.4725   -7.7724 C   0  0  0  0  0  0  0  0  0  0  0  0
   41.3474   15.4062   -6.8645 C   0  0  0  0  0  0  0  0  0  0  0  0
   42.1853   16.2881   -7.4985 O   0  0  0  0  0  0  0  0  0  0  0  0
   42.3750   16.0410   -8.8405 C   0  0  0  0  0  0  0  0  0  0  0  0
   41.0202   16.0802   -9.5177 C   0  0  0  0  0  0  0  0  0  0  0  0
   35.6771   14.3613  -14.0241 N   0  0  0  0  0  0  0  0  0  0  0  0
   34.8891   15.0140  -14.3640 H   0  0  0  0  0  0  0  0  0  0  0  0
   37.5606   11.9807  -15.9432 C   0  0  0  0  0  0  0  0  0  0  0  0
   36.5096   11.2216  -16.3911 C   0  0  0  0  0  0  0  0  0  0  0  0
   35.1947   12.0369  -15.6693 S   0  0  0  0  0  0  0  0  0  0  0  0
   36.0413   13.2653  -14.8604 C   0  0  0  0  0  0  0  0  0  0  0  0
   37.3075   12.9878  -15.1867 N   0  0  0  0  0  0  0  0  0  0  0  0
   38.9791   11.6094  -16.3479 C   0  0  0  0  0  0  0  0  0  0  0  0
   40.1486   11.2753  -18.5338 C   0  0  0  0  0  0  0  0  0  0  0  0
   38.9042   11.0212  -17.7402 C   0  0  0  0  0  0  0  0  0  0  0  0
 24 25  1  0  0  0
 25 23  1  0  0  0
 23 18  1  0  0  0
 18 19  2  0  0  0
 19 20  1  0  0  0
 20 21  1  0  0  0
 21 16  1  0  0  0
 16  1  1  0  0  0
  1  2  2  0  0  0
  2  3  1  0  0  0
  3  4  2  0  0  0
  4  5  1  0  0  0
  5  6  2  0  0  0
  4  7  1  0  0  0
  7  8  2  0  0  0
  7  9  2  0  0  0
  7 10  1  0  0  0
 10 11  1  0  0  0
 11 12  1  0  0  0
 12 13  1  0  0  0
 13 14  1  0  0  0
 14 15  1  0  0  0
 21 22  2  0  0  0
 22 18  1  0  0  0
  6  1  1  0  0  0
 15 10  1  0  0  0
 16 17  1  0  0  0
M  END
> <minimizedAffinity>
-6.33086

> <CNNscore>
0.1115930900

> <CNNaffinity>
5.2869853973

> <CNN_VS>
0.5899910331

> <CNNaffinity_variance>
0.2377316058

$$$$
[H]c1nc(N([H])[C@@]([H])(c2c([H])c([H])c([H])c([H])c2[H])C([H])([H])[H])nc(-n2nc(C3(C(=O)N([H])C([H])([H])C([H])([H])C([H])([H])C([H])([H])[N+](=O)[O-])C([H])([H])C3([H])[H])nc2[H])c1[H]


 35 38  0  0  0  0  0  0  0  0999 V2000
   40.0049   15.2863  -12.6533 N   0  0  0  0  0  0  0  0  0  0  0  0
   40.5164   16.2303  -11.8242 C   0  0  0  0  0  0  0  0  0  0  0  0
   39.5503   16.6931  -11.0334 N   0  0  0  0  0  0  0  0  0  0  0  0
   38.4146   16.0413  -11.3586 C   0  0  0  0  0  0  0  0  0  0  0  0
   38.7281   15.1955  -12.3453 N   0  0  0  0  0  0  0  0  0  0  0  0
   40.8725   13.4753  -15.7443 C   0  0  0  0  0  0  0  0  0  0  0  0
   42.1713   13.2287  -15.5237 N   0  0  0  0  0  0  0  0  0  0  0  0
   42.8312   13.6116  -14.4108 C   0  0  0  0  0  0  0  0  0  0  0  0
   42.1093   14.3011  -13.4460 C   0  0  0  0  0  0  0  0  0  0  0  0
   40.7726   14.5712  -13.6418 C   0  0  0  0  0  0  0  0  0  0  0  0
   40.1967   14.1536  -14.7772 N   0  0  0  0  0  0  0  0  0  0  0  0
   40.2403   13.0493  -16.9280 N   0  0  0  0  0  0  0  0  0  0  0  0
   40.0255   13.7641  -17.6506 H   0  0  0  0  0  0  0  0  0  0  0  0
   40.2244   11.1878  -18.5375 C   0  0  0  0  0  0  0  0  0  0  0  0
   39.8969   11.6808  -17.1488 C   0  0  0  0  0  0  0  0  0  0  0  0
   38.4297   11.5422  -16.8970 C   0  0  0  0  0  0  0  0  0  0  0  0
   37.7093   10.7815  -17.7844 C   0  0  0  0  0  0  0  0  0  0  0  0
   36.3553   10.6042  -17.6152 C   0  0  0  0  0  0  0  0  0  0  0  0
   35.7519   11.2061  -16.5408 C   0  0  0  0  0  0  0  0  0  0  0  0
   36.4839   11.9624  -15.6636 C   0  0  0  0  0  0  0  0  0  0  0  0
   37.8579   12.1474  -15.8277 C   0  0  0  0  0  0  0  0  0  0  0  0
   37.1340   16.3166  -10.6609 C   0  0  0  0  0  0  0  0  0  0  0  0
   36.1529   15.1427  -10.6812 C   0  0  0  0  0  0  0  0  0  0  0  0
   35.8675   16.3991  -11.4305 C   0  0  0  0  0  0  0  0  0  0  0  0
   37.2032   17.0127   -9.3483 C   0  0  0  0  0  0  0  0  0  0  0  0
   37.3969   16.3340   -8.2935 O   0  0  0  0  0  0  0  0  0  0  0  0
   37.0511   18.4180   -9.3166 N   0  0  0  0  0  0  0  0  0  0  0  0
   36.8981   18.9284  -10.2057 H   0  0  0  0  0  0  0  0  0  0  0  0
   37.1054   19.1513   -8.0907 C   0  0  0  0  0  0  0  0  0  0  0  0
   37.8439   20.4669   -8.2412 C   0  0  0  0  0  0  0  0  0  0  0  0
   37.0273   21.6211   -7.7222 C   0  0  0  0  0  0  0  0  0  0  0  0
   35.5576   21.2587   -7.6342 C   0  0  0  0  0  0  0  0  0  0  0  0
   34.7159   22.4203   -7.5678 N   0  0  0  0  0  0  0  0  0  0  0  0
   33.5580   22.4332   -8.3185 O   0  0  0  0  0  0  0  0  0  0  0  0
   34.9938   23.4244   -6.8524 O   0  0  0  0  0  0  0  0  0  0  0  0
 14 15  1  0  0  0
 15 12  1  0  0  0
 12  6  1  0  0  0
  6  7  2  0  0  0
  7  8  1  0  0  0
  8  9  2  0  0  0
  9 10  1  0  0  0
 10 11  2  0  0  0
 10  1  1  0  0  0
  1  2  1  0  0  0
  2  3  2  0  0  0
  3  4  1  0  0  0
  4  5  2  0  0  0
  4 22  1  0  0  0
 22 23  1  0  0  0
 23 24  1  0  0  0
 22 25  1  0  0  0
 25 26  2  0  0  0
 25 27  1  0  0  0
 27 29  1  0  0  0
 29 30  1  0  0  0
 30 31  1  0  0  0
 31 32  1  0  0  0
 32 33  1  0  0  0
 33 34  1  0  0  0
 33 35  2  0  0  0
 15 16  1  0  0  0
 16 17  2  0  0  0
 17 18  1  0  0  0
 18 19  2  0  0  0
 19 20  1  0  0  0
 20 21  2  0  0  0
 11  6  1  0  0  0
  5  1  1  0  0  0
 24 22  1  0  0  0
 21 16  1  0  0  0
 12 13  1  0  0  0
 27 28  1  0  0  0
M  CHG 1  33   1
M  CHG 1  34  -1
M  END
> <minimizedAffinity>
-8.32495

> <CNNscore>
0.1745695025

> <CNNaffinity>
6.3236708641

> <CNN_VS>
1.1039201021

> <CNNaffinity_variance>
0.0863010138

$$$$
[H]c1nc(N([H])[C@@]([H])(c2c([H])c([H])c([H])c([H])c2[H])C([H])([H])[H])nc(-n2nc(C3(C(=O)N([H])C([H])([H])C([H])([H])C([H])([H])C([H])([H])[N+](=O)[O-])C([H])([H])C3([H])[H])nc2[H])c1[H]


 35 38  0  0  0  0  0  0  0  0999 V2000
   36.7054   12.4723  -15.6730 N   0  0  0  0  0  0  0  0  0  0  0  0
   36.5397   11.3749  -16.4530 C   0  0  0  0  0  0  0  0  0  0  0  0
   37.6717   11.1243  -17.1078 N   0  0  0  0  0  0  0  0  0  0  0  0
   38.5663   12.0666  -16.7443 C   0  0  0  0  0  0  0  0  0  0  0  0
   37.9452   12.8677  -15.8727 N   0  0  0  0  0  0  0  0  0  0  0  0
   35.0519   14.5577  -13.1228 C   0  0  0  0  0  0  0  0  0  0  0  0
   33.7959   14.0982  -13.2118 N   0  0  0  0  0  0  0  0  0  0  0  0
   33.4095   13.1252  -14.0631 C   0  0  0  0  0  0  0  0  0  0  0  0
   34.3810   12.5772  -14.8896 C   0  0  0  0  0  0  0  0  0  0  0  0
   35.6815   13.0271  -14.8235 C   0  0  0  0  0  0  0  0  0  0  0  0
   35.9774   13.9975  -13.9483 N   0  0  0  0  0  0  0  0  0  0  0  0
   35.3926   15.5768  -12.2131 N   0  0  0  0  0  0  0  0  0  0  0  0
   35.5250   16.5379  -12.5846 H   0  0  0  0  0  0  0  0  0  0  0  0
   34.4611   15.9056   -9.9591 C   0  0  0  0  0  0  0  0  0  0  0  0
   35.5551   15.3187  -10.8180 C   0  0  0  0  0  0  0  0  0  0  0  0
   36.8765   15.8865  -10.4097 C   0  0  0  0  0  0  0  0  0  0  0  0
   36.9525   17.2480  -10.2493 C   0  0  0  0  0  0  0  0  0  0  0  0
   38.1341   17.8425   -9.8701 C   0  0  0  0  0  0  0  0  0  0  0  0
   39.2255   17.0394   -9.6588 C   0  0  0  0  0  0  0  0  0  0  0  0
   39.1344   15.6821   -9.8229 C   0  0  0  0  0  0  0  0  0  0  0  0
   37.9396   15.0707  -10.2073 C   0  0  0  0  0  0  0  0  0  0  0  0
   39.9457   12.0804  -17.2917 C   0  0  0  0  0  0  0  0  0  0  0  0
   40.0053   12.0795  -18.8206 C   0  0  0  0  0  0  0  0  0  0  0  0
   40.4673   10.9034  -18.0303 C   0  0  0  0  0  0  0  0  0  0  0  0
   40.9267   13.0012  -16.6576 C   0  0  0  0  0  0  0  0  0  0  0  0
   40.8068   14.2529  -16.8303 O   0  0  0  0  0  0  0  0  0  0  0  0
   41.9682   12.4498  -15.8765 N   0  0  0  0  0  0  0  0  0  0  0  0
   42.0219   11.4210  -15.7624 H   0  0  0  0  0  0  0  0  0  0  0  0
   42.9461   13.2753  -15.2393 C   0  0  0  0  0  0  0  0  0  0  0  0
   44.3526   12.9718  -15.7172 C   0  0  0  0  0  0  0  0  0  0  0  0
   45.3351   14.0063  -15.2347 C   0  0  0  0  0  0  0  0  0  0  0  0
   45.9345   13.6137  -13.8984 C   0  0  0  0  0  0  0  0  0  0  0  0
   46.7884   12.4640  -14.0042 N   0  0  0  0  0  0  0  0  0  0  0  0
   47.7353   12.4422  -15.0078 O   0  0  0  0  0  0  0  0  0  0  0  0
   46.7059   11.4780  -13.2179 O   0  0  0  0  0  0  0  0  0  0  0  0
 14 15  1  0  0  0
 15 12  1  0  0  0
 12  6  1  0  0  0
  6  7  2  0  0  0
  7  8  1  0  0  0
  8  9  2  0  0  0
  9 10  1  0  0  0
 10 11  2  0  0  0
 10  1  1  0  0  0
  1  2  1  0  0  0
  2  3  2  0  0  0
  3  4  1  0  0  0
  4  5  2  0  0  0
  4 22  1  0  0  0
 22 23  1  0  0  0
 23 24  1  0  0  0
 22 25  1  0  0  0
 25 26  2  0  0  0
 25 27  1  0  0  0
 27 29  1  0  0  0
 29 30  1  0  0  0
 30 31  1  0  0  0
 31 32  1  0  0  0
 32 33  1  0  0  0
 33 34  1  0  0  0
 33 35  2  0  0  0
 15 16  1  0  0  0
 16 17  2  0  0  0
 17 18  1  0  0  0
 18 19  2  0  0  0
 19 20  1  0  0  0
 20 21  2  0  0  0
 11  6  1  0  0  0
  5  1  1  0  0  0
 24 22  1  0  0  0
 21 16  1  0  0  0
 12 13  1  0  0  0
 27 28  1  0  0  0
M  CHG 1  33   1
M  CHG 1  34  -1
M  END
> <minimizedAffinity>
-7.42448

> <CNNscore>
0.1162146032

> <CNNaffinity>
6.4805679321

> <CNN_VS>
0.7531366348

> <CNNaffinity_variance>
0.2438708097

$$$$
[H]c1nc(N([H])[C@@]([H])(c2c([H])c([H])c([H])c([H])c2[H])C([H])([H])[H])nc(-n2nc(C3(C(=O)N([H])C([H])([H])C([H])([H])C([H])([H])C([H])([H])[N+](=O)[O-])C([H])([H])C3([H])[H])nc2[H])c1[H]


 35 38  0  0  0  0  0  0  0  0999 V2000
   40.9570   13.5369  -14.7601 N   0  0  0  0  0  0  0  0  0  0  0  0
   40.7871   13.1455  -16.0478 C   0  0  0  0  0  0  0  0  0  0  0  0
   41.9526   12.7306  -16.5401 N   0  0  0  0  0  0  0  0  0  0  0  0
   42.8729   12.8574  -15.5617 C   0  0  0  0  0  0  0  0  0  0  0  0
   42.2331   13.3496  -14.4961 N   0  0  0  0  0  0  0  0  0  0  0  0
   37.6631   13.8895  -13.1438 C   0  0  0  0  0  0  0  0  0  0  0  0
   37.8919   14.9502  -12.3571 N   0  0  0  0  0  0  0  0  0  0  0  0
   39.0732   15.5995  -12.2947 C   0  0  0  0  0  0  0  0  0  0  0  0
   40.1031   15.1297  -13.0984 C   0  0  0  0  0  0  0  0  0  0  0  0
   39.9010   14.0412  -13.9184 C   0  0  0  0  0  0  0  0  0  0  0  0
   38.6955   13.4566  -13.9175 N   0  0  0  0  0  0  0  0  0  0  0  0
   36.4068   13.2542  -13.1638 N   0  0  0  0  0  0  0  0  0  0  0  0
   36.2600   12.4437  -12.5307 H   0  0  0  0  0  0  0  0  0  0  0  0
   34.0715   14.0200  -13.2903 C   0  0  0  0  0  0  0  0  0  0  0  0
   35.3524   13.6953  -14.0201 C   0  0  0  0  0  0  0  0  0  0  0  0
   35.1036   12.6099  -15.0177 C   0  0  0  0  0  0  0  0  0  0  0  0
   33.8851   11.9791  -14.9687 C   0  0  0  0  0  0  0  0  0  0  0  0
   33.5818   10.9737  -15.8579 C   0  0  0  0  0  0  0  0  0  0  0  0
   34.5270   10.6236  -16.7878 C   0  0  0  0  0  0  0  0  0  0  0  0
   35.7388   11.2621  -16.8245 C   0  0  0  0  0  0  0  0  0  0  0  0
   36.0547   12.2832  -15.9262 C   0  0  0  0  0  0  0  0  0  0  0  0
   44.2915   12.4772  -15.7757 C   0  0  0  0  0  0  0  0  0  0  0  0
   44.7511   12.5937  -17.2304 C   0  0  0  0  0  0  0  0  0  0  0  0
   44.6287   11.2660  -16.5644 C   0  0  0  0  0  0  0  0  0  0  0  0
   45.2912   12.9747  -14.7932 C   0  0  0  0  0  0  0  0  0  0  0  0
   46.1554   12.1720  -14.3243 O   0  0  0  0  0  0  0  0  0  0  0  0
   45.2480   14.3351  -14.4107 N   0  0  0  0  0  0  0  0  0  0  0  0
   44.5251   14.9520  -14.8243 H   0  0  0  0  0  0  0  0  0  0  0  0
   46.1769   14.8803  -13.4707 C   0  0  0  0  0  0  0  0  0  0  0  0
   45.6104   16.0771  -12.7323 C   0  0  0  0  0  0  0  0  0  0  0  0
   45.0295   15.6801  -11.4006 C   0  0  0  0  0  0  0  0  0  0  0  0
   45.5013   14.3004  -10.9847 C   0  0  0  0  0  0  0  0  0  0  0  0
   44.4084   13.3896  -10.7903 N   0  0  0  0  0  0  0  0  0  0  0  0
   43.4080   13.7463   -9.9091 O   0  0  0  0  0  0  0  0  0  0  0  0
   44.3287   12.2810  -11.3918 O   0  0  0  0  0  0  0  0  0  0  0  0
 14 15  1  0  0  0
 15 12  1  0  0  0
 12  6  1  0  0  0
  6  7  2  0  0  0
  7  8  1  0  0  0
  8  9  2  0  0  0
  9 10  1  0  0  0
 10 11  2  0  0  0
 10  1  1  0  0  0
  1  2  1  0  0  0
  2  3  2  0  0  0
  3  4  1  0  0  0
  4  5  2  0  0  0
  4 22  1  0  0  0
 22 23  1  0  0  0
 23 24  1  0  0  0
 22 25  1  0  0  0
 25 26  2  0  0  0
 25 27  1  0  0  0
 27 29  1  0  0  0
 29 30  1  0  0  0
 30 31  1  0  0  0
 31 32  1  0  0  0
 32 33  1  0  0  0
 33 34  1  0  0  0
 33 35  2  0  0  0
 15 16  1  0  0  0
 16 17  2  0  0  0
 17 18  1  0  0  0
 18 19  2  0  0  0
 19 20  1  0  0  0
 20 21  2  0  0  0
 11  6  1  0  0  0
  5  1  1  0  0  0
 24 22  1  0  0  0
 21 16  1  0  0  0
 12 13  1  0  0  0
 27 28  1  0  0  0
M  CHG 1  33   1
M  CHG 1  34  -1
M  END
> <minimizedAffinity>
-7.19634

> <CNNscore>
0.1023165435

> <CNNaffinity>
6.5820641518

> <CNN_VS>
0.6734540462

> <CNNaffinity_variance>
0.0933616906

$$$$
[H]c1nc(N([H])[C@@]([H])(c2c([H])c([H])c([H])c([H])c2[H])C([H])([H])[H])nc(-n2nc(C3(C(=O)N([H])C([H])([H])C([H])([H])C([H])([H])C([H])([H])[N+](=O)[O-])C([H])([H])C3([H])[H])nc2[H])c1[H]


 35 38  0  0  0  0  0  0  0  0999 V2000
   38.4612   12.7064  -15.6038 N   0  0  0  0  0  0  0  0  0  0  0  0
   37.4460   12.0765  -16.2463 C   0  0  0  0  0  0  0  0  0  0  0  0
   36.2948   12.3677  -15.6438 N   0  0  0  0  0  0  0  0  0  0  0  0
   36.5755   13.1884  -14.6104 C   0  0  0  0  0  0  0  0  0  0  0  0
   37.8996   13.3721  -14.6166 N   0  0  0  0  0  0  0  0  0  0  0  0
   42.1274   13.0795  -15.5246 C   0  0  0  0  0  0  0  0  0  0  0  0
   42.4575   12.4691  -16.6713 N   0  0  0  0  0  0  0  0  0  0  0  0
   41.5605   11.9180  -17.5154 C   0  0  0  0  0  0  0  0  0  0  0  0
   40.2202   11.9953  -17.1620 C   0  0  0  0  0  0  0  0  0  0  0  0
   39.8471   12.6157  -15.9899 C   0  0  0  0  0  0  0  0  0  0  0  0
   40.8046   13.1362  -15.2104 N   0  0  0  0  0  0  0  0  0  0  0  0
   43.1115   13.6353  -14.6851 N   0  0  0  0  0  0  0  0  0  0  0  0
   43.9887   13.9791  -15.1231 H   0  0  0  0  0  0  0  0  0  0  0  0
   42.7487   15.1493  -12.7792 C   0  0  0  0  0  0  0  0  0  0  0  0
   42.9292   13.7339  -13.2722 C   0  0  0  0  0  0  0  0  0  0  0  0
   44.1293   13.1226  -12.6232 C   0  0  0  0  0  0  0  0  0  0  0  0
   45.2701   13.0223  -13.3806 C   0  0  0  0  0  0  0  0  0  0  0  0
   46.4159   12.4753  -12.8501 C   0  0  0  0  0  0  0  0  0  0  0  0
   46.3837   12.0367  -11.5510 C   0  0  0  0  0  0  0  0  0  0  0  0
   45.2377   12.1434  -10.8075 C   0  0  0  0  0  0  0  0  0  0  0  0
   44.0709   12.6970  -11.3378 C   0  0  0  0  0  0  0  0  0  0  0  0
   35.5081   13.7115  -13.7218 C   0  0  0  0  0  0  0  0  0  0  0  0
   34.4388   12.6775  -13.3634 C   0  0  0  0  0  0  0  0  0  0  0  0
   34.1189   13.8503  -14.2257 C   0  0  0  0  0  0  0  0  0  0  0  0
   35.9252   14.5599  -12.5736 C   0  0  0  0  0  0  0  0  0  0  0  0
   35.1384   15.4597  -12.1466 O   0  0  0  0  0  0  0  0  0  0  0  0
   37.1929   14.3355  -11.9893 N   0  0  0  0  0  0  0  0  0  0  0  0
   37.7984   13.5862  -12.3716 H   0  0  0  0  0  0  0  0  0  0  0  0
   37.6584   15.1139  -10.8843 C   0  0  0  0  0  0  0  0  0  0  0  0
   38.9740   15.8056  -11.1834 C   0  0  0  0  0  0  0  0  0  0  0  0
   39.4496   16.6195  -10.0088 C   0  0  0  0  0  0  0  0  0  0  0  0
   38.2993   16.9821   -9.0898 C   0  0  0  0  0  0  0  0  0  0  0  0
   37.8716   18.3414   -9.2671 N   0  0  0  0  0  0  0  0  0  0  0  0
   37.4199   19.0347   -8.1627 O   0  0  0  0  0  0  0  0  0  0  0  0
   37.8932   18.9228  -10.3890 O   0  0  0  0  0  0  0  0  0  0  0  0
 14 15  1  0  0  0
 15 12  1  0  0  0
 12  6  1  0  0  0
  6  7  2  0  0  0
  7  8  1  0  0  0
  8  9  2  0  0  0
  9 10  1  0  0  0
 10 11  2  0  0  0
 10  1  1  0  0  0
  1  2  1  0  0  0
  2  3  2  0  0  0
  3  4  1  0  0  0
  4  5  2  0  0  0
  4 22  1  0  0  0
 22 23  1  0  0  0
 23 24  1  0  0  0
 22 25  1  0  0  0
 25 26  2  0  0  0
 25 27  1  0  0  0
 27 29  1  0  0  0
 29 30  1  0  0  0
 30 31  1  0  0  0
 31 32  1  0  0  0
 32 33  1  0  0  0
 33 34  1  0  0  0
 33 35  2  0  0  0
 15 16  1  0  0  0
 16 17  2  0  0  0
 17 18  1  0  0  0
 18 19  2  0  0  0
 19 20  1  0  0  0
 20 21  2  0  0  0
 11  6  1  0  0  0
  5  1  1  0  0  0
 24 22  1  0  0  0
 21 16  1  0  0  0
 12 13  1  0  0  0
 27 28  1  0  0  0
M  CHG 1  33   1
M  CHG 1  34  -1
M  END
> <minimizedAffinity>
-7.09884

> <CNNscore>
0.0973019227

> <CNNaffinity>
6.1492357254

> <CNN_VS>
0.5983324647

> <CNNaffinity_variance>
0.3229852319

$$$$
[H]c1nc(N([H])[C@@]([H])(c2c([H])c([H])c([H])c([H])c2[H])C([H])([H])[H])nc(-n2nc(C3(C(=O)N([H])C([H])([H])C([H])([H])C([H])([H])C([H])([H])[N+](=O)[O-])C([H])([H])C3([H])[H])nc2[H])c1[H]


 35 38  0  0  0  0  0  0  0  0999 V2000
   40.1302   15.1557  -12.9335 N   0  0  0  0  0  0  0  0  0  0  0  0
   40.6952   16.1267  -12.1732 C   0  0  0  0  0  0  0  0  0  0  0  0
   39.7765   16.6373  -11.3557 N   0  0  0  0  0  0  0  0  0  0  0  0
   38.6176   15.9891  -11.5946 C   0  0  0  0  0  0  0  0  0  0  0  0
   38.8697   15.0973  -12.5580 N   0  0  0  0  0  0  0  0  0  0  0  0
   40.8417   13.2837  -16.0280 C   0  0  0  0  0  0  0  0  0  0  0  0
   42.1224   12.9483  -15.8188 N   0  0  0  0  0  0  0  0  0  0  0  0
   42.8175   13.2867  -14.7129 C   0  0  0  0  0  0  0  0  0  0  0  0
   42.1540   14.0262  -13.7432 C   0  0  0  0  0  0  0  0  0  0  0  0
   40.8374   14.3876  -13.9273 C   0  0  0  0  0  0  0  0  0  0  0  0
   40.2235   14.0087  -15.0563 N   0  0  0  0  0  0  0  0  0  0  0  0
   40.1705   12.9002  -17.2047 N   0  0  0  0  0  0  0  0  0  0  0  0
   39.9644   13.6346  -17.9100 H   0  0  0  0  0  0  0  0  0  0  0  0
   39.9892   11.0933  -18.8656 C   0  0  0  0  0  0  0  0  0  0  0  0
   39.7771   11.5480  -17.4418 C   0  0  0  0  0  0  0  0  0  0  0  0
   38.3293   11.4352  -17.0863 C   0  0  0  0  0  0  0  0  0  0  0  0
   37.9276   12.0011  -15.9016 C   0  0  0  0  0  0  0  0  0  0  0  0
   36.6099   11.9418  -15.5096 C   0  0  0  0  0  0  0  0  0  0  0  0
   35.7167   11.3048  -16.3326 C   0  0  0  0  0  0  0  0  0  0  0  0
   36.1325   10.7447  -17.5119 C   0  0  0  0  0  0  0  0  0  0  0  0
   37.4673   10.8003  -17.9172 C   0  0  0  0  0  0  0  0  0  0  0  0
   37.3778   16.3131  -10.8460 C   0  0  0  0  0  0  0  0  0  0  0  0
   36.3203   15.2083  -10.8914 C   0  0  0  0  0  0  0  0  0  0  0  0
   36.0991   16.5157  -11.5718 C   0  0  0  0  0  0  0  0  0  0  0  0
   37.5292   16.9383   -9.5049 C   0  0  0  0  0  0  0  0  0  0  0  0
   36.7636   17.8952   -9.1745 O   0  0  0  0  0  0  0  0  0  0  0  0
   38.5269   16.4432   -8.6341 N   0  0  0  0  0  0  0  0  0  0  0  0
   39.1254   15.6575   -8.9485 H   0  0  0  0  0  0  0  0  0  0  0  0
   38.7287   16.9971   -7.3318 C   0  0  0  0  0  0  0  0  0  0  0  0
   39.5860   16.1052   -6.4553 C   0  0  0  0  0  0  0  0  0  0  0  0
   38.7448   15.1550   -5.6442 C   0  0  0  0  0  0  0  0  0  0  0  0
   38.7434   13.7660   -6.2525 C   0  0  0  0  0  0  0  0  0  0  0  0
   37.4609   13.4121   -6.7928 N   0  0  0  0  0  0  0  0  0  0  0  0
   36.7936   12.3363   -6.2433 O   0  0  0  0  0  0  0  0  0  0  0  0
   36.9239   14.0445   -7.7460 O   0  0  0  0  0  0  0  0  0  0  0  0
 14 15  1  0  0  0
 15 12  1  0  0  0
 12  6  1  0  0  0
  6  7  2  0  0  0
  7  8  1  0  0  0
  8  9  2  0  0  0
  9 10  1  0  0  0
 10 11  2  0  0  0
 10  1  1  0  0  0
  1  2  1  0  0  0
  2  3  2  0  0  0
  3  4  1  0  0  0
  4  5  2  0  0  0
  4 22  1  0  0  0
 22 23  1  0  0  0
 23 24  1  0  0  0
 22 25  1  0  0  0
 25 26  2  0  0  0
 25 27  1  0  0  0
 27 29  1  0  0  0
 29 30  1  0  0  0
 30 31  1  0  0  0
 31 32  1  0  0  0
 32 33  1  0  0  0
 33 34  1  0  0  0
 33 35  2  0  0  0
 15 16  1  0  0  0
 16 17  2  0  0  0
 17 18  1  0  0  0
 18 19  2  0  0  0
 19 20  1  0  0  0
 20 21  2  0  0  0
 11  6  1  0  0  0
  5  1  1  0  0  0
 24 22  1  0  0  0
 21 16  1  0  0  0
 12 13  1  0  0  0
 27 28  1  0  0  0
M  CHG 1  33   1
M  CHG 1  34  -1
M  END
> <minimizedAffinity>
-8.17751

> <CNNscore>
0.0959708467

> <CNNaffinity>
6.1530747414

> <CNN_VS>
0.5905157924

> <CNNaffinity_variance>
0.2369063348

$$$$
[H]c1nc(N([H])[C@@]([H])(c2c([H])c([H])c([H])c([H])c2[H])C([H])([H])[H])nc(-n2nc(C3(C(=O)N([H])C([H])([H])C([H])([H])C([H])([H])C([H])([H])[N+](=O)[O-])C([H])([H])C3([H])[H])nc2[H])c1[H]


 35 38  0  0  0  0  0  0  0  0999 V2000
   42.6760   13.9980  -14.1998 N   0  0  0  0  0  0  0  0  0  0  0  0
   43.9481   13.5272  -14.1871 C   0  0  0  0  0  0  0  0  0  0  0  0
   44.6952   14.2962  -13.3974 N   0  0  0  0  0  0  0  0  0  0  0  0
   43.8962   15.2640  -12.9023 C   0  0  0  0  0  0  0  0  0  0  0  0
   42.6781   15.0518  -13.4106 N   0  0  0  0  0  0  0  0  0  0  0  0
   39.3171   12.7608  -15.0793 C   0  0  0  0  0  0  0  0  0  0  0  0
   39.5453   12.3007  -16.3174 N   0  0  0  0  0  0  0  0  0  0  0  0
   40.7464   12.3539  -16.9300 C   0  0  0  0  0  0  0  0  0  0  0  0
   41.7985   12.9215  -16.2242 C   0  0  0  0  0  0  0  0  0  0  0  0
   41.5976   13.4043  -14.9497 C   0  0  0  0  0  0  0  0  0  0  0  0
   40.3714   13.3107  -14.4176 N   0  0  0  0  0  0  0  0  0  0  0  0
   38.0392   12.6766  -14.4943 N   0  0  0  0  0  0  0  0  0  0  0  0
   37.9110   12.0261  -13.6944 H   0  0  0  0  0  0  0  0  0  0  0  0
   36.3351   14.3576  -13.9230 C   0  0  0  0  0  0  0  0  0  0  0  0
   36.9395   13.4535  -14.9701 C   0  0  0  0  0  0  0  0  0  0  0  0
   35.9033   12.5002  -15.4727 C   0  0  0  0  0  0  0  0  0  0  0  0
   34.7528   12.3763  -14.7337 C   0  0  0  0  0  0  0  0  0  0  0  0
   33.7519   11.5220  -15.1360 C   0  0  0  0  0  0  0  0  0  0  0  0
   33.9374   10.8034  -16.2893 C   0  0  0  0  0  0  0  0  0  0  0  0
   35.0911   10.9376  -17.0162 C   0  0  0  0  0  0  0  0  0  0  0  0
   36.1115   11.8019  -16.6154 C   0  0  0  0  0  0  0  0  0  0  0  0
   44.4145   16.3000  -11.9745 C   0  0  0  0  0  0  0  0  0  0  0  0
   44.5742   17.6805  -12.6146 C   0  0  0  0  0  0  0  0  0  0  0  0
   45.7611   16.8865  -12.1878 C   0  0  0  0  0  0  0  0  0  0  0  0
   43.8410   16.3420  -10.6028 C   0  0  0  0  0  0  0  0  0  0  0  0
   44.5622   16.7441   -9.6389 O   0  0  0  0  0  0  0  0  0  0  0  0
   42.5014   15.9310  -10.4145 N   0  0  0  0  0  0  0  0  0  0  0  0
   41.9518   15.6137  -11.2340 H   0  0  0  0  0  0  0  0  0  0  0  0
   41.8866   15.9443   -9.1239 C   0  0  0  0  0  0  0  0  0  0  0  0
   42.0838   14.6376   -8.3808 C   0  0  0  0  0  0  0  0  0  0  0  0
   40.9623   14.3803   -7.4090 C   0  0  0  0  0  0  0  0  0  0  0  0
   41.4548   13.6276   -6.1883 C   0  0  0  0  0  0  0  0  0  0  0  0
   40.5625   12.5687   -5.8078 N   0  0  0  0  0  0  0  0  0  0  0  0
   39.3249   12.5059   -6.4152 O   0  0  0  0  0  0  0  0  0  0  0  0
   40.8660   11.6981   -4.9436 O   0  0  0  0  0  0  0  0  0  0  0  0
 14 15  1  0  0  0
 15 12  1  0  0  0
 12  6  1  0  0  0
  6  7  2  0  0  0
  7  8  1  0  0  0
  8  9  2  0  0  0
  9 10  1  0  0  0
 10 11  2  0  0  0
 10  1  1  0  0  0
  1  2  1  0  0  0
  2  3  2  0  0  0
  3  4  1  0  0  0
  4  5  2  0  0  0
  4 22  1  0  0  0
 22 23  1  0  0  0
 23 24  1  0  0  0
 22 25  1  0  0  0
 25 26  2  0  0  0
 25 27  1  0  0  0
 27 29  1  0  0  0
 29 30  1  0  0  0
 30 31  1  0  0  0
 31 32  1  0  0  0
 32 33  1  0  0  0
 33 34  1  0  0  0
 33 35  2  0  0  0
 15 16  1  0  0  0
 16 17  2  0  0  0
 17 18  1  0  0  0
 18 19  2  0  0  0
 19 20  1  0  0  0
 20 21  2  0  0  0
 11  6  1  0  0  0
  5  1  1  0  0  0
 24 22  1  0  0  0
 21 16  1  0  0  0
 12 13  1  0  0  0
 27 28  1  0  0  0
M  CHG 1  33   1
M  CHG 1  34  -1
M  END
> <minimizedAffinity>
-7.20237

> <CNNscore>
0.0957310423

> <CNNaffinity>
6.3837113380

> <CNN_VS>
0.6111193299

> <CNNaffinity_variance>
0.1445467472

$$$$
[H]c1nc(N([H])[C@@]([H])(c2c([H])c([H])c([H])c([H])c2[H])C([H])([H])[H])nc(-n2nc(C3(C(=O)N([H])C([H])([H])C([H])([H])C([H])([H])C([H])([H])[N+](=O)[O-])C([H])([H])C3([H])[H])nc2[H])c1[H]


 35 38  0  0  0  0  0  0  0  0999 V2000
   35.5915   13.2511  -13.8346 N   0  0  0  0  0  0  0  0  0  0  0  0
   34.3280   13.5393  -13.4339 C   0  0  0  0  0  0  0  0  0  0  0  0
   34.3742   14.3004  -12.3423 N   0  0  0  0  0  0  0  0  0  0  0  0
   35.6747   14.5000  -12.0434 C   0  0  0  0  0  0  0  0  0  0  0  0
   36.3846   13.8486  -12.9701 N   0  0  0  0  0  0  0  0  0  0  0  0
   37.5560   11.4683  -16.3938 C   0  0  0  0  0  0  0  0  0  0  0  0
   36.5694   10.9492  -17.1379 N   0  0  0  0  0  0  0  0  0  0  0  0
   35.2575   11.1295  -16.8790 C   0  0  0  0  0  0  0  0  0  0  0  0
   34.9249   11.9003  -15.7733 C   0  0  0  0  0  0  0  0  0  0  0  0
   35.9149   12.4483  -14.9873 C   0  0  0  0  0  0  0  0  0  0  0  0
   37.1928   12.2182  -15.3178 N   0  0  0  0  0  0  0  0  0  0  0  0
   38.9079   11.2433  -16.7161 N   0  0  0  0  0  0  0  0  0  0  0  0
   39.3342   10.3407  -16.4283 H   0  0  0  0  0  0  0  0  0  0  0  0
   40.2266   11.7197  -18.7385 C   0  0  0  0  0  0  0  0  0  0  0  0
   39.6872   12.2129  -17.4176 C   0  0  0  0  0  0  0  0  0  0  0  0
   40.8202   12.6060  -16.5249 C   0  0  0  0  0  0  0  0  0  0  0  0
   40.5081   13.3030  -15.3839 C   0  0  0  0  0  0  0  0  0  0  0  0
   41.4972   13.6947  -14.5111 C   0  0  0  0  0  0  0  0  0  0  0  0
   42.7948   13.3699  -14.8136 C   0  0  0  0  0  0  0  0  0  0  0  0
   43.0909   12.6740  -15.9562 C   0  0  0  0  0  0  0  0  0  0  0  0
   42.0937   12.2726  -16.8470 C   0  0  0  0  0  0  0  0  0  0  0  0
   36.0865   15.3163  -10.8743 C   0  0  0  0  0  0  0  0  0  0  0  0
   36.4015   16.7738  -11.2169 C   0  0  0  0  0  0  0  0  0  0  0  0
   37.4736   15.8358  -10.7783 C   0  0  0  0  0  0  0  0  0  0  0  0
   35.3101   15.1543   -9.6161 C   0  0  0  0  0  0  0  0  0  0  0  0
   35.7727   14.4205   -8.6896 O   0  0  0  0  0  0  0  0  0  0  0  0
   34.0734   15.8279   -9.4904 N   0  0  0  0  0  0  0  0  0  0  0  0
   33.7395   16.4186  -10.2739 H   0  0  0  0  0  0  0  0  0  0  0  0
   33.2747   15.7164   -8.3101 C   0  0  0  0  0  0  0  0  0  0  0  0
   31.8582   16.2119   -8.5267 C   0  0  0  0  0  0  0  0  0  0  0  0
   30.9777   15.1334   -9.1011 C   0  0  0  0  0  0  0  0  0  0  0  0
   30.8848   15.2457  -10.6104 C   0  0  0  0  0  0  0  0  0  0  0  0
   29.6400   14.7390  -11.1161 N   0  0  0  0  0  0  0  0  0  0  0  0
   29.6341   14.1392  -12.3589 O   0  0  0  0  0  0  0  0  0  0  0  0
   28.5569   14.8211  -10.4701 O   0  0  0  0  0  0  0  0  0  0  0  0
 14 15  1  0  0  0
 15 12  1  0  0  0
 12  6  1  0  0  0
  6  7  2  0  0  0
  7  8  1  0  0  0
  8  9  2  0  0  0
  9 10  1  0  0  0
 10 11  2  0  0  0
 10  1  1  0  0  0
  1  2  1  0  0  0
  2  3  2  0  0  0
  3  4  1  0  0  0
  4  5  2  0  0  0
  4 22  1  0  0  0
 22 23  1  0  0  0
 23 24  1  0  0  0
 22 25  1  0  0  0
 25 26  2  0  0  0
 25 27  1  0  0  0
 27 29  1  0  0  0
 29 30  1  0  0  0
 30 31  1  0  0  0
 31 32  1  0  0  0
 32 33  1  0  0  0
 33 34  1  0  0  0
 33 35  2  0  0  0
 15 16  1  0  0  0
 16 17  2  0  0  0
 17 18  1  0  0  0
 18 19  2  0  0  0
 19 20  1  0  0  0
 20 21  2  0  0  0
 11  6  1  0  0  0
  5  1  1  0  0  0
 24 22  1  0  0  0
 21 16  1  0  0  0
 12 13  1  0  0  0
 27 28  1  0  0  0
M  CHG 1  33   1
M  CHG 1  34  -1
M  END
> <minimizedAffinity>
-8.51090

> <CNNscore>
0.0847513080

> <CNNaffinity>
6.5912194252

> <CNN_VS>
0.5586144924

> <CNNaffinity_variance>
0.1717729121

$$$$
[H]c1nc(N([H])[C@@]([H])(c2c([H])c([H])c([H])c([H])c2[H])C([H])([H])[H])nc(-n2nc(C3(C(=O)N([H])C([H])([H])C([H])([H])C([H])([H])C([H])([H])[N+](=O)[O-])C([H])([H])C3([H])[H])nc2[H])c1[H]


 35 38  0  0  0  0  0  0  0  0999 V2000
   35.4988   13.3685  -13.7876 N   0  0  0  0  0  0  0  0  0  0  0  0
   34.2136   13.7109  -13.5211 C   0  0  0  0  0  0  0  0  0  0  0  0
   34.1788   14.4849  -12.4382 N   0  0  0  0  0  0  0  0  0  0  0  0
   35.4490   14.6385  -12.0100 C   0  0  0  0  0  0  0  0  0  0  0  0
   36.2229   13.9472  -12.8527 N   0  0  0  0  0  0  0  0  0  0  0  0
   37.6462   11.5745  -16.1870 C   0  0  0  0  0  0  0  0  0  0  0  0
   36.7157   10.9883  -16.9531 N   0  0  0  0  0  0  0  0  0  0  0  0
   35.3872   11.1242  -16.7594 C   0  0  0  0  0  0  0  0  0  0  0  0
   34.9747   11.9210  -15.7000 C   0  0  0  0  0  0  0  0  0  0  0  0
   35.9056   12.5377  -14.8931 C   0  0  0  0  0  0  0  0  0  0  0  0
   37.2053   12.3481  -15.1578 N   0  0  0  0  0  0  0  0  0  0  0  0
   39.0192   11.3933  -16.4406 N   0  0  0  0  0  0  0  0  0  0  0  0
   39.4635   10.5130  -16.1135 H   0  0  0  0  0  0  0  0  0  0  0  0
   40.3430   11.9049  -18.4510 C   0  0  0  0  0  0  0  0  0  0  0  0
   39.7956   12.3768  -17.1257 C   0  0  0  0  0  0  0  0  0  0  0  0
   40.9228   12.7642  -16.2232 C   0  0  0  0  0  0  0  0  0  0  0  0
   40.5978   13.3939  -15.0472 C   0  0  0  0  0  0  0  0  0  0  0  0
   41.5811   13.7760  -14.1636 C   0  0  0  0  0  0  0  0  0  0  0  0
   42.8861   13.5103  -14.4912 C   0  0  0  0  0  0  0  0  0  0  0  0
   43.1950   12.8812  -15.6685 C   0  0  0  0  0  0  0  0  0  0  0  0
   42.2038   12.4901  -16.5706 C   0  0  0  0  0  0  0  0  0  0  0  0
   35.7719   15.4547  -10.8133 C   0  0  0  0  0  0  0  0  0  0  0  0
   36.2372   16.8752  -11.1397 C   0  0  0  0  0  0  0  0  0  0  0  0
   37.1714   15.8740  -10.5514 C   0  0  0  0  0  0  0  0  0  0  0  0
   34.8338   15.3849   -9.6611 C   0  0  0  0  0  0  0  0  0  0  0  0
   35.2516   14.9506   -8.5441 O   0  0  0  0  0  0  0  0  0  0  0  0
   33.4978   15.8083   -9.8473 N   0  0  0  0  0  0  0  0  0  0  0  0
   33.2052   16.1584  -10.7779 H   0  0  0  0  0  0  0  0  0  0  0  0
   32.5426   15.7675   -8.7844 C   0  0  0  0  0  0  0  0  0  0  0  0
   31.1620   15.3696   -9.2685 C   0  0  0  0  0  0  0  0  0  0  0  0
   30.3603   14.7155   -8.1741 C   0  0  0  0  0  0  0  0  0  0  0  0
   30.9293   13.3573   -7.8129 C   0  0  0  0  0  0  0  0  0  0  0  0
   29.9885   12.5511   -7.0869 N   0  0  0  0  0  0  0  0  0  0  0  0
   30.4773   11.6145   -6.1990 O   0  0  0  0  0  0  0  0  0  0  0  0
   28.7381   12.6662   -7.2296 O   0  0  0  0  0  0  0  0  0  0  0  0
 14 15  1  0  0  0
 15 12  1  0  0  0
 12  6  1  0  0  0
  6  7  2  0  0  0
  7  8  1  0  0  0
  8  9  2  0  0  0
  9 10  1  0  0  0
 10 11  2  0  0  0
 10  1  1  0  0  0
  1  2  1  0  0  0
  2  3  2  0  0  0
  3  4  1  0  0  0
  4  5  2  0  0  0
  4 22  1  0  0  0
 22 23  1  0  0  0
 23 24  1  0  0  0
 22 25  1  0  0  0
 25 26  2  0  0  0
 25 27  1  0  0  0
 27 29  1  0  0  0
 29 30  1  0  0  0
 30 31  1  0  0  0
 31 32  1  0  0  0
 32 33  1  0  0  0
 33 34  1  0  0  0
 33 35  2  0  0  0
 15 16  1  0  0  0
 16 17  2  0  0  0
 17 18  1  0  0  0
 18 19  2  0  0  0
 19 20  1  0  0  0
 20 21  2  0  0  0
 11  6  1  0  0  0
  5  1  1  0  0  0
 24 22  1  0  0  0
 21 16  1  0  0  0
 12 13  1  0  0  0
 27 28  1  0  0  0
M  CHG 1  33   1
M  CHG 1  34  -1
M  END
> <minimizedAffinity>
-8.36112

> <CNNscore>
0.0822448060

> <CNNaffinity>
6.3782858849

> <CNN_VS>
0.5245808959

> <CNNaffinity_variance>
0.2232496291

$$$$
[H]c1nc(N([H])[C@@]([H])(c2c([H])c([H])c([H])c([H])c2[H])C([H])([H])[H])nc(-n2nc(C3(C(=O)N([H])C([H])([H])C([H])([H])C([H])([H])C([H])([H])[N+](=O)[O-])C([H])([H])C3([H])[H])nc2[H])c1[H]


 35 38  0  0  0  0  0  0  0  0999 V2000
   35.7896   14.7732  -11.3272 N   0  0  0  0  0  0  0  0  0  0  0  0
   36.0324   16.1077  -11.3421 C   0  0  0  0  0  0  0  0  0  0  0  0
   36.4170   16.4996  -10.1291 N   0  0  0  0  0  0  0  0  0  0  0  0
   36.4203   15.4095   -9.3341 C   0  0  0  0  0  0  0  0  0  0  0  0
   36.0343   14.3802  -10.0948 N   0  0  0  0  0  0  0  0  0  0  0  0
   35.8794   12.5318  -14.2521 C   0  0  0  0  0  0  0  0  0  0  0  0
   34.5932   12.5719  -14.6271 N   0  0  0  0  0  0  0  0  0  0  0  0
   33.6465   13.2935  -13.9915 C   0  0  0  0  0  0  0  0  0  0  0  0
   34.0428   14.0329  -12.8854 C   0  0  0  0  0  0  0  0  0  0  0  0
   35.3573   14.0134  -12.4733 C   0  0  0  0  0  0  0  0  0  0  0  0
   36.2315   13.2688  -13.1636 N   0  0  0  0  0  0  0  0  0  0  0  0
   36.8207   11.7581  -14.9575 N   0  0  0  0  0  0  0  0  0  0  0  0
   37.3697   11.0542  -14.4261 H   0  0  0  0  0  0  0  0  0  0  0  0
   36.4744   10.7884  -17.1926 C   0  0  0  0  0  0  0  0  0  0  0  0
   37.0293   11.9195  -16.3610 C   0  0  0  0  0  0  0  0  0  0  0  0
   38.5033   12.0334  -16.5833 C   0  0  0  0  0  0  0  0  0  0  0  0
   39.0236   11.3967  -17.6828 C   0  0  0  0  0  0  0  0  0  0  0  0
   40.3709   11.4606  -17.9555 C   0  0  0  0  0  0  0  0  0  0  0  0
   41.1720   12.1747  -17.1017 C   0  0  0  0  0  0  0  0  0  0  0  0
   40.6384   12.8048  -16.0082 C   0  0  0  0  0  0  0  0  0  0  0  0
   39.2728   12.7451  -15.7242 C   0  0  0  0  0  0  0  0  0  0  0  0
   36.8070   15.4925   -7.9036 C   0  0  0  0  0  0  0  0  0  0  0  0
   35.7484   16.1456   -7.0129 C   0  0  0  0  0  0  0  0  0  0  0  0
   37.0554   16.8130   -7.2731 C   0  0  0  0  0  0  0  0  0  0  0  0
   37.4421   14.2939   -7.2935 C   0  0  0  0  0  0  0  0  0  0  0  0
   36.7620   13.2310   -7.1569 O   0  0  0  0  0  0  0  0  0  0  0  0
   38.7925   14.3762   -6.8832 N   0  0  0  0  0  0  0  0  0  0  0  0
   39.3071   15.2656   -7.0190 H   0  0  0  0  0  0  0  0  0  0  0  0
   39.4654   13.2638   -6.2886 C   0  0  0  0  0  0  0  0  0  0  0  0
   40.2661   12.4692   -7.3017 C   0  0  0  0  0  0  0  0  0  0  0  0
   41.7460   12.5790   -7.0447 C   0  0  0  0  0  0  0  0  0  0  0  0
   42.0560   12.4729   -5.5642 C   0  0  0  0  0  0  0  0  0  0  0  0
   42.0463   11.1125   -5.1045 N   0  0  0  0  0  0  0  0  0  0  0  0
   42.9895   10.2431   -5.6134 O   0  0  0  0  0  0  0  0  0  0  0  0
   41.2122   10.6844   -4.2572 O   0  0  0  0  0  0  0  0  0  0  0  0
 14 15  1  0  0  0
 15 12  1  0  0  0
 12  6  1  0  0  0
  6  7  2  0  0  0
  7  8  1  0  0  0
  8  9  2  0  0  0
  9 10  1  0  0  0
 10 11  2  0  0  0
 10  1  1  0  0  0
  1  2  1  0  0  0
  2  3  2  0  0  0
  3  4  1  0  0  0
  4  5  2  0  0  0
  4 22  1  0  0  0
 22 23  1  0  0  0
 23 24  1  0  0  0
 22 25  1  0  0  0
 25 26  2  0  0  0
 25 27  1  0  0  0
 27 29  1  0  0  0
 29 30  1  0  0  0
 30 31  1  0  0  0
 31 32  1  0  0  0
 32 33  1  0  0  0
 33 34  1  0  0  0
 33 35  2  0  0  0
 15 16  1  0  0  0
 16 17  2  0  0  0
 17 18  1  0  0  0
 18 19  2  0  0  0
 19 20  1  0  0  0
 20 21  2  0  0  0
 11  6  1  0  0  0
  5  1  1  0  0  0
 24 22  1  0  0  0
 21 16  1  0  0  0
 12 13  1  0  0  0
 27 28  1  0  0  0
M  CHG 1  33   1
M  CHG 1  34  -1
M  END
> <minimizedAffinity>
-8.11415

> <CNNscore>
0.0790710971

> <CNNaffinity>
5.9576721191

> <CNN_VS>
0.4710796773

> <CNNaffinity_variance>
0.2453860343

$$$$
[H]c1c([H])c(N2C([H])([H])C([H])([H])N(C([H])([H])C([H])([H])C([H])([H])c3c([H])n([H])c4c([H])c([H])c(F)c([H])c34)C([H])([H])C2([H])[H])c([H])c(F)c1N1C([H])([H])C([H])([H])N([H])C([H])([H])C1([H])[H]


 34 38  0  0  0  0  0  0  0  0999 V2000
   35.6503   13.8176  -13.2929 N   0  0  0  0  0  0  0  0  0  0  0  0
   35.6016   14.3789  -14.6068 C   0  0  0  0  0  0  0  0  0  0  0  0
   35.7409   13.3441  -15.6959 C   0  0  0  0  0  0  0  0  0  0  0  0
   34.9463   12.1771  -15.5312 N   0  0  0  0  0  0  0  0  0  0  0  0
   34.4544   11.9141  -14.2206 C   0  0  0  0  0  0  0  0  0  0  0  0
   35.3710   12.4160  -13.1091 C   0  0  0  0  0  0  0  0  0  0  0  0
   36.7307   14.2926   -8.6575 F   0  0  0  0  0  0  0  0  0  0  0  0
   36.5026   14.9035   -9.8367 C   0  0  0  0  0  0  0  0  0  0  0  0
   36.2058   14.1055  -10.9152 C   0  0  0  0  0  0  0  0  0  0  0  0
   35.9633   14.6336  -12.1842 C   0  0  0  0  0  0  0  0  0  0  0  0
   36.0453   16.0067  -12.2650 C   0  0  0  0  0  0  0  0  0  0  0  0
   36.3419   16.8290  -11.1934 C   0  0  0  0  0  0  0  0  0  0  0  0
   36.5753   16.2647   -9.9532 C   0  0  0  0  0  0  0  0  0  0  0  0
   36.8540   17.1326   -8.8668 N   0  0  0  0  0  0  0  0  0  0  0  0
   38.2151   17.4210   -8.5190 C   0  0  0  0  0  0  0  0  0  0  0  0
   38.3479   17.6730   -7.0274 C   0  0  0  0  0  0  0  0  0  0  0  0
   37.5274   18.7427   -6.5765 N   0  0  0  0  0  0  0  0  0  0  0  0
   36.3246   18.9570   -7.3004 C   0  0  0  0  0  0  0  0  0  0  0  0
   35.8193   17.7726   -8.0876 C   0  0  0  0  0  0  0  0  0  0  0  0
   37.4653   18.7669   -5.5544 H   0  0  0  0  0  0  0  0  0  0  0  0
   35.4902   11.0223  -16.1738 C   0  0  0  0  0  0  0  0  0  0  0  0
   36.3779   11.4618  -17.3244 C   0  0  0  0  0  0  0  0  0  0  0  0
   37.5144   10.4826  -17.5271 C   0  0  0  0  0  0  0  0  0  0  0  0
   38.7869   11.2281  -17.5125 C   0  0  0  0  0  0  0  0  0  0  0  0
   39.7216   11.2152  -18.5163 C   0  0  0  0  0  0  0  0  0  0  0  0
   40.7441   12.0071  -18.1525 N   0  0  0  0  0  0  0  0  0  0  0  0
   40.5015   12.5355  -16.9401 C   0  0  0  0  0  0  0  0  0  0  0  0
   41.2131   13.3943  -16.1284 C   0  0  0  0  0  0  0  0  0  0  0  0
   40.6931   13.7663  -14.9076 C   0  0  0  0  0  0  0  0  0  0  0  0
   39.4583   13.2955  -14.4670 C   0  0  0  0  0  0  0  0  0  0  0  0
   38.9891   13.6911  -13.2566 F   0  0  0  0  0  0  0  0  0  0  0  0
   38.7668   12.4419  -15.2905 C   0  0  0  0  0  0  0  0  0  0  0  0
   39.2601   12.0480  -16.5224 C   0  0  0  0  0  0  0  0  0  0  0  0
   41.6143   12.1990  -18.7166 H   0  0  0  0  0  0  0  0  0  0  0  0
  7  8  1  0  0  0
  8  9  2  0  0  0
  9 10  1  0  0  0
 10  1  1  0  0  0
  1  2  1  0  0  0
  2  3  1  0  0  0
  3  4  1  0  0  0
  4 21  1  0  0  0
 21 22  1  0  0  0
 22 23  1  0  0  0
 23 24  1  0  0  0
 24 25  2  0  0  0
 25 26  1  0  0  0
 26 27  1  0  0  0
 27 28  2  0  0  0
 28 29  1  0  0  0
 29 30  2  0  0  0
 30 31  1  0  0  0
 30 32  1  0  0  0
 32 33  2  0  0  0
  4  5  1  0  0  0
  5  6  1  0  0  0
 10 11  2  0  0  0
 11 12  1  0  0  0
 12 13  2  0  0  0
 13 14  1  0  0  0
 14 15  1  0  0  0
 15 16  1  0  0  0
 16 17  1  0  0  0
 17 18  1  0  0  0
 18 19  1  0  0  0
 13  8  1  0  0  0
 19 14  1  0  0  0
  6  1  1  0  0  0
 33 24  1  0  0  0
 33 27  1  0  0  0
 26 34  1  0  0  0
 17 20  1  0  0  0
M  END
> <minimizedAffinity>
-8.76535

> <CNNscore>
0.3947726488

> <CNNaffinity>
7.1886610985

> <CNN_VS>
2.8378868103

> <CNNaffinity_variance>
0.3253541291

$$$$
[H]c1c([H])c(N2C([H])([H])C([H])([H])N(C([H])([H])C([H])([H])C([H])([H])c3c([H])n([H])c4c([H])c([H])c(F)c([H])c34)C([H])([H])C2([H])[H])c([H])c(F)c1N1C([H])([H])C([H])([H])N([H])C([H])([H])C1([H])[H]


 34 38  0  0  0  0  0  0  0  0999 V2000
   35.7540   14.7290  -12.6841 N   0  0  0  0  0  0  0  0  0  0  0  0
   36.6340   14.8567  -13.8036 C   0  0  0  0  0  0  0  0  0  0  0  0
   36.5401   13.6961  -14.7631 C   0  0  0  0  0  0  0  0  0  0  0  0
   35.2200   13.2932  -15.1029 N   0  0  0  0  0  0  0  0  0  0  0  0
   34.1759   13.7084  -14.2276 C   0  0  0  0  0  0  0  0  0  0  0  0
   34.6148   13.8512  -12.7735 C   0  0  0  0  0  0  0  0  0  0  0  0
   38.7268   17.2004   -9.8675 F   0  0  0  0  0  0  0  0  0  0  0  0
   37.4849   16.7115  -10.0528 C   0  0  0  0  0  0  0  0  0  0  0  0
   37.2497   16.0037  -11.2069 C   0  0  0  0  0  0  0  0  0  0  0  0
   35.9974   15.4635  -11.5034 C   0  0  0  0  0  0  0  0  0  0  0  0
   35.0269   15.6964  -10.5534 C   0  0  0  0  0  0  0  0  0  0  0  0
   35.2411   16.4051   -9.3854 C   0  0  0  0  0  0  0  0  0  0  0  0
   36.4971   16.9234   -9.1303 C   0  0  0  0  0  0  0  0  0  0  0  0
   36.6950   17.6257   -7.9142 N   0  0  0  0  0  0  0  0  0  0  0  0
   37.1318   16.9159   -6.7471 C   0  0  0  0  0  0  0  0  0  0  0  0
   36.5815   17.5610   -5.4872 C   0  0  0  0  0  0  0  0  0  0  0  0
   36.9614   18.9248   -5.3583 N   0  0  0  0  0  0  0  0  0  0  0  0
   37.1704   19.6337   -6.5710 C   0  0  0  0  0  0  0  0  0  0  0  0
   36.4965   19.0512   -7.7894 C   0  0  0  0  0  0  0  0  0  0  0  0
   36.4218   19.4004   -4.6291 H   0  0  0  0  0  0  0  0  0  0  0  0
   35.1246   11.9197  -15.4862 C   0  0  0  0  0  0  0  0  0  0  0  0
   35.6055   11.7655  -16.9179 C   0  0  0  0  0  0  0  0  0  0  0  0
   36.3747   10.4728  -17.0872 C   0  0  0  0  0  0  0  0  0  0  0  0
   37.6382   10.7650  -17.7899 C   0  0  0  0  0  0  0  0  0  0  0  0
   37.9096   10.4406  -19.0948 C   0  0  0  0  0  0  0  0  0  0  0  0
   39.1521   10.8609  -19.3854 N   0  0  0  0  0  0  0  0  0  0  0  0
   39.6975   11.4498  -18.3066 C   0  0  0  0  0  0  0  0  0  0  0  0
   40.9233   12.0380  -18.0746 C   0  0  0  0  0  0  0  0  0  0  0  0
   41.2006   12.5693  -16.8336 C   0  0  0  0  0  0  0  0  0  0  0  0
   40.2693   12.5286  -15.7984 C   0  0  0  0  0  0  0  0  0  0  0  0
   40.5900   13.0655  -14.5940 F   0  0  0  0  0  0  0  0  0  0  0  0
   39.0556   11.9387  -16.0509 C   0  0  0  0  0  0  0  0  0  0  0  0
   38.7447   11.3953  -17.2856 C   0  0  0  0  0  0  0  0  0  0  0  0
   39.6444   10.7550  -20.3121 H   0  0  0  0  0  0  0  0  0  0  0  0
  7  8  1  0  0  0
  8  9  2  0  0  0
  9 10  1  0  0  0
 10  1  1  0  0  0
  1  2  1  0  0  0
  2  3  1  0  0  0
  3  4  1  0  0  0
  4 21  1  0  0  0
 21 22  1  0  0  0
 22 23  1  0  0  0
 23 24  1  0  0  0
 24 25  2  0  0  0
 25 26  1  0  0  0
 26 27  1  0  0  0
 27 28  2  0  0  0
 28 29  1  0  0  0
 29 30  2  0  0  0
 30 31  1  0  0  0
 30 32  1  0  0  0
 32 33  2  0  0  0
  4  5  1  0  0  0
  5  6  1  0  0  0
 10 11  2  0  0  0
 11 12  1  0  0  0
 12 13  2  0  0  0
 13 14  1  0  0  0
 14 15  1  0  0  0
 15 16  1  0  0  0
 16 17  1  0  0  0
 17 18  1  0  0  0
 18 19  1  0  0  0
 13  8  1  0  0  0
 19 14  1  0  0  0
  6  1  1  0  0  0
 33 24  1  0  0  0
 33 27  1  0  0  0
 26 34  1  0  0  0
 17 20  1  0  0  0
M  END
> <minimizedAffinity>
-8.72777

> <CNNscore>
0.3749633729

> <CNNaffinity>
6.8014917374

> <CNN_VS>
2.5503103733

> <CNNaffinity_variance>
0.1295959949

$$$$
[H]c1c([H])c(N2C([H])([H])C([H])([H])N(C([H])([H])C([H])([H])C([H])([H])c3c([H])n([H])c4c([H])c([H])c(F)c([H])c34)C([H])([H])C2([H])[H])c([H])c(F)c1N1C([H])([H])C([H])([H])N([H])C([H])([H])C1([H])[H]


 34 38  0  0  0  0  0  0  0  0999 V2000
   35.8382   15.4651  -11.5254 N   0  0  0  0  0  0  0  0  0  0  0  0
   36.9981   16.2494  -11.2370 C   0  0  0  0  0  0  0  0  0  0  0  0
   38.2670   15.6531  -11.7944 C   0  0  0  0  0  0  0  0  0  0  0  0
   38.1876   15.2039  -13.1406 N   0  0  0  0  0  0  0  0  0  0  0  0
   36.8838   14.9718  -13.6649 C   0  0  0  0  0  0  0  0  0  0  0  0
   35.8714   14.5233  -12.6154 C   0  0  0  0  0  0  0  0  0  0  0  0
   31.0683   15.5445  -11.1769 F   0  0  0  0  0  0  0  0  0  0  0  0
   32.2532   15.6740  -10.5483 C   0  0  0  0  0  0  0  0  0  0  0  0
   33.3902   15.5163  -11.3036 C   0  0  0  0  0  0  0  0  0  0  0  0
   34.6678   15.6186  -10.7511 C   0  0  0  0  0  0  0  0  0  0  0  0
   34.6942   15.8879   -9.4000 C   0  0  0  0  0  0  0  0  0  0  0  0
   33.5633   16.0508   -8.6208 C   0  0  0  0  0  0  0  0  0  0  0  0
   32.3167   15.9414   -9.2081 C   0  0  0  0  0  0  0  0  0  0  0  0
   31.1743   16.1363   -8.3906 N   0  0  0  0  0  0  0  0  0  0  0  0
   30.3504   15.0153   -8.0424 C   0  0  0  0  0  0  0  0  0  0  0  0
   28.9034   15.4432   -7.8713 C   0  0  0  0  0  0  0  0  0  0  0  0
   28.7426   16.4503   -6.8810 N   0  0  0  0  0  0  0  0  0  0  0  0
   29.8433   17.3285   -6.6967 C   0  0  0  0  0  0  0  0  0  0  0  0
   30.7989   17.4268   -7.8607 C   0  0  0  0  0  0  0  0  0  0  0  0
   27.8112   16.8746   -6.9209 H   0  0  0  0  0  0  0  0  0  0  0  0
   39.1154   14.1614  -13.4489 C   0  0  0  0  0  0  0  0  0  0  0  0
   39.5163   14.2645  -14.9096 C   0  0  0  0  0  0  0  0  0  0  0  0
   40.5048   13.1765  -15.2707 C   0  0  0  0  0  0  0  0  0  0  0  0
   39.9368   12.3687  -16.3663 C   0  0  0  0  0  0  0  0  0  0  0  0
   40.6324   11.9215  -17.4607 C   0  0  0  0  0  0  0  0  0  0  0  0
   39.7904   11.2233  -18.2407 N   0  0  0  0  0  0  0  0  0  0  0  0
   38.5661   11.2030  -17.6851 C   0  0  0  0  0  0  0  0  0  0  0  0
   37.3679   10.6375  -18.0687 C   0  0  0  0  0  0  0  0  0  0  0  0
   36.2549   10.7919  -17.2710 C   0  0  0  0  0  0  0  0  0  0  0  0
   36.3067   11.5090  -16.0778 C   0  0  0  0  0  0  0  0  0  0  0  0
   35.1830   11.6330  -15.3270 F   0  0  0  0  0  0  0  0  0  0  0  0
   37.5091   12.0635  -15.7149 C   0  0  0  0  0  0  0  0  0  0  0  0
   38.6461   11.9278  -16.4928 C   0  0  0  0  0  0  0  0  0  0  0  0
   40.0319   10.7543  -19.1540 H   0  0  0  0  0  0  0  0  0  0  0  0
  7  8  1  0  0  0
  8  9  2  0  0  0
  9 10  1  0  0  0
 10  1  1  0  0  0
  1  2  1  0  0  0
  2  3  1  0  0  0
  3  4  1  0  0  0
  4 21  1  0  0  0
 21 22  1  0  0  0
 22 23  1  0  0  0
 23 24  1  0  0  0
 24 25  2  0  0  0
 25 26  1  0  0  0
 26 27  1  0  0  0
 27 28  2  0  0  0
 28 29  1  0  0  0
 29 30  2  0  0  0
 30 31  1  0  0  0
 30 32  1  0  0  0
 32 33  2  0  0  0
  4  5  1  0  0  0
  5  6  1  0  0  0
 10 11  2  0  0  0
 11 12  1  0  0  0
 12 13  2  0  0  0
 13 14  1  0  0  0
 14 15  1  0  0  0
 15 16  1  0  0  0
 16 17  1  0  0  0
 17 18  1  0  0  0
 18 19  1  0  0  0
 13  8  1  0  0  0
 19 14  1  0  0  0
  6  1  1  0  0  0
 33 24  1  0  0  0
 33 27  1  0  0  0
 26 34  1  0  0  0
 17 20  1  0  0  0
M  END
> <minimizedAffinity>
-9.22798

> <CNNscore>
0.2276255786

> <CNNaffinity>
6.5061187744

> <CNN_VS>
1.4809590578

> <CNNaffinity_variance>
0.1247559041

$$$$
[H]c1c([H])c(N2C([H])([H])C([H])([H])N(C([H])([H])C([H])([H])C([H])([H])c3c([H])n([H])c4c([H])c([H])c(F)c([H])c34)C([H])([H])C2([H])[H])c([H])c(F)c1N1C([H])([H])C([H])([H])N([H])C([H])([H])C1([H])[H]


 34 38  0  0  0  0  0  0  0  0999 V2000
   35.3252   15.6156  -10.9592 N   0  0  0  0  0  0  0  0  0  0  0  0
   36.4973   16.4176  -10.7949 C   0  0  0  0  0  0  0  0  0  0  0  0
   37.7344   15.7806  -11.3781 C   0  0  0  0  0  0  0  0  0  0  0  0
   37.5805   15.2343  -12.6813 N   0  0  0  0  0  0  0  0  0  0  0  0
   36.2499   14.9661  -13.1127 C   0  0  0  0  0  0  0  0  0  0  0  0
   35.2996   14.5967  -11.9777 C   0  0  0  0  0  0  0  0  0  0  0  0
   30.5828   15.7000  -10.3412 F   0  0  0  0  0  0  0  0  0  0  0  0
   31.8007   15.8867   -9.7955 C   0  0  0  0  0  0  0  0  0  0  0  0
   32.8937   15.6729  -10.6003 C   0  0  0  0  0  0  0  0  0  0  0  0
   34.2000   15.8267  -10.1333 C   0  0  0  0  0  0  0  0  0  0  0  0
   34.3016   16.2066   -8.8127 C   0  0  0  0  0  0  0  0  0  0  0  0
   33.2160   16.4275   -7.9850 C   0  0  0  0  0  0  0  0  0  0  0  0
   31.9387   16.2640   -8.4877 C   0  0  0  0  0  0  0  0  0  0  0  0
   30.8435   16.5200   -7.6238 N   0  0  0  0  0  0  0  0  0  0  0  0
   30.3926   17.8674   -7.4287 C   0  0  0  0  0  0  0  0  0  0  0  0
   29.8228   18.0475   -6.0326 C   0  0  0  0  0  0  0  0  0  0  0  0
   28.7429   17.1634   -5.7625 N   0  0  0  0  0  0  0  0  0  0  0  0
   28.7719   15.9149   -6.4388 C   0  0  0  0  0  0  0  0  0  0  0  0
   30.1285   15.4732   -6.9310 C   0  0  0  0  0  0  0  0  0  0  0  0
   28.5080   17.1466   -4.7657 H   0  0  0  0  0  0  0  0  0  0  0  0
   38.4925   14.1710  -12.9646 C   0  0  0  0  0  0  0  0  0  0  0  0
   39.2040   14.4581  -14.2746 C   0  0  0  0  0  0  0  0  0  0  0  0
   40.5137   13.7028  -14.3484 C   0  0  0  0  0  0  0  0  0  0  0  0
   40.6022   13.0404  -15.6632 C   0  0  0  0  0  0  0  0  0  0  0  0
   41.7068   13.0432  -16.4765 C   0  0  0  0  0  0  0  0  0  0  0  0
   41.4171   12.3427  -17.5857 N   0  0  0  0  0  0  0  0  0  0  0  0
   40.1551   11.8837  -17.5177 C   0  0  0  0  0  0  0  0  0  0  0  0
   39.3814   11.1278  -18.3736 C   0  0  0  0  0  0  0  0  0  0  0  0
   38.0883   10.8079  -18.0207 C   0  0  0  0  0  0  0  0  0  0  0  0
   37.5363   11.2299  -16.8133 C   0  0  0  0  0  0  0  0  0  0  0  0
   36.2579   10.8890  -16.5112 F   0  0  0  0  0  0  0  0  0  0  0  0
   38.3238   11.9812  -15.9763 C   0  0  0  0  0  0  0  0  0  0  0  0
   39.6262   12.3205  -16.3001 C   0  0  0  0  0  0  0  0  0  0  0  0
   42.0659   12.1674  -18.3985 H   0  0  0  0  0  0  0  0  0  0  0  0
  7  8  1  0  0  0
  8  9  2  0  0  0
  9 10  1  0  0  0
 10  1  1  0  0  0
  1  2  1  0  0  0
  2  3  1  0  0  0
  3  4  1  0  0  0
  4 21  1  0  0  0
 21 22  1  0  0  0
 22 23  1  0  0  0
 23 24  1  0  0  0
 24 25  2  0  0  0
 25 26  1  0  0  0
 26 27  1  0  0  0
 27 28  2  0  0  0
 28 29  1  0  0  0
 29 30  2  0  0  0
 30 31  1  0  0  0
 30 32  1  0  0  0
 32 33  2  0  0  0
  4  5  1  0  0  0
  5  6  1  0  0  0
 10 11  2  0  0  0
 11 12  1  0  0  0
 12 13  2  0  0  0
 13 14  1  0  0  0
 14 15  1  0  0  0
 15 16  1  0  0  0
 16 17  1  0  0  0
 17 18  1  0  0  0
 18 19  1  0  0  0
 13  8  1  0  0  0
 19 14  1  0  0  0
  6  1  1  0  0  0
 33 24  1  0  0  0
 33 27  1  0  0  0
 26 34  1  0  0  0
 17 20  1  0  0  0
M  END
> <minimizedAffinity>
-9.18715

> <CNNscore>
0.2253854424

> <CNNaffinity>
6.2389936447

> <CNN_VS>
1.4061783552

> <CNNaffinity_variance>
0.0849351510

$$$$
[H]c1c([H])c(N2C([H])([H])C([H])([H])N(C([H])([H])C([H])([H])C([H])([H])c3c([H])n([H])c4c([H])c([H])c(F)c([H])c34)C([H])([H])C2([H])[H])c([H])c(F)c1N1C([H])([H])C([H])([H])N([H])C([H])([H])C1([H])[H]


 34 38  0  0  0  0  0  0  0  0999 V2000
   37.6540   15.2645  -10.4277 N   0  0  0  0  0  0  0  0  0  0  0  0
   37.9613   15.7627  -11.7320 C   0  0  0  0  0  0  0  0  0  0  0  0
   37.2024   15.0554  -12.8275 C   0  0  0  0  0  0  0  0  0  0  0  0
   35.8134   14.8739  -12.5856 N   0  0  0  0  0  0  0  0  0  0  0  0
   35.3775   14.9778  -11.2337 C   0  0  0  0  0  0  0  0  0  0  0  0
   36.4263   14.5408  -10.2155 C   0  0  0  0  0  0  0  0  0  0  0  0
   38.6402   15.1285   -5.7492 F   0  0  0  0  0  0  0  0  0  0  0  0
   39.0673   15.4379   -6.9892 C   0  0  0  0  0  0  0  0  0  0  0  0
   38.2002   15.2127   -8.0311 C   0  0  0  0  0  0  0  0  0  0  0  0
   38.5449   15.4872   -9.3555 C   0  0  0  0  0  0  0  0  0  0  0  0
   39.8131   15.9971   -9.5296 C   0  0  0  0  0  0  0  0  0  0  0  0
   40.7017   16.2321   -8.4964 C   0  0  0  0  0  0  0  0  0  0  0  0
   40.3199   15.9462   -7.1989 C   0  0  0  0  0  0  0  0  0  0  0  0
   41.2421   16.2189   -6.1564 N   0  0  0  0  0  0  0  0  0  0  0  0
   41.2089   17.4901   -5.4931 C   0  0  0  0  0  0  0  0  0  0  0  0
   42.5974   17.8901   -5.0262 C   0  0  0  0  0  0  0  0  0  0  0  0
   43.1774   16.9345   -4.1480 N   0  0  0  0  0  0  0  0  0  0  0  0
   42.7760   15.5855   -4.3377 C   0  0  0  0  0  0  0  0  0  0  0  0
   42.2203   15.2578   -5.7021 C   0  0  0  0  0  0  0  0  0  0  0  0
   44.1775   17.1066   -4.0090 H   0  0  0  0  0  0  0  0  0  0  0  0
   35.2570   13.7525  -13.2751 C   0  0  0  0  0  0  0  0  0  0  0  0
   35.9513   13.5951  -14.6160 C   0  0  0  0  0  0  0  0  0  0  0  0
   36.5371   12.2062  -14.7550 C   0  0  0  0  0  0  0  0  0  0  0  0
   37.9105   12.3245  -15.2796 C   0  0  0  0  0  0  0  0  0  0  0  0
   38.9575   12.9219  -14.6250 C   0  0  0  0  0  0  0  0  0  0  0  0
   40.0468   12.8411  -15.4072 N   0  0  0  0  0  0  0  0  0  0  0  0
   39.7388   12.2078  -16.5526 C   0  0  0  0  0  0  0  0  0  0  0  0
   40.4754   11.8713  -17.6692 C   0  0  0  0  0  0  0  0  0  0  0  0
   39.8674   11.2065  -18.7121 C   0  0  0  0  0  0  0  0  0  0  0  0
   38.5184   10.8618  -18.6694 C   0  0  0  0  0  0  0  0  0  0  0  0
   37.9655   10.2074  -19.7220 F   0  0  0  0  0  0  0  0  0  0  0  0
   37.8039   11.2062  -17.5487 C   0  0  0  0  0  0  0  0  0  0  0  0
   38.3834   11.8741  -16.4837 C   0  0  0  0  0  0  0  0  0  0  0  0
   41.0072   13.2115  -15.1774 H   0  0  0  0  0  0  0  0  0  0  0  0
  7  8  1  0  0  0
  8  9  2  0  0  0
  9 10  1  0  0  0
 10  1  1  0  0  0
  1  2  1  0  0  0
  2  3  1  0  0  0
  3  4  1  0  0  0
  4 21  1  0  0  0
 21 22  1  0  0  0
 22 23  1  0  0  0
 23 24  1  0  0  0
 24 25  2  0  0  0
 25 26  1  0  0  0
 26 27  1  0  0  0
 27 28  2  0  0  0
 28 29  1  0  0  0
 29 30  2  0  0  0
 30 31  1  0  0  0
 30 32  1  0  0  0
 32 33  2  0  0  0
  4  5  1  0  0  0
  5  6  1  0  0  0
 10 11  2  0  0  0
 11 12  1  0  0  0
 12 13  2  0  0  0
 13 14  1  0  0  0
 14 15  1  0  0  0
 15 16  1  0  0  0
 16 17  1  0  0  0
 17 18  1  0  0  0
 18 19  1  0  0  0
 13  8  1  0  0  0
 19 14  1  0  0  0
  6  1  1  0  0  0
 33 24  1  0  0  0
 33 27  1  0  0  0
 26 34  1  0  0  0
 17 20  1  0  0  0
M  END
> <minimizedAffinity>
-7.81058

> <CNNscore>
0.1859109104

> <CNNaffinity>
6.1566157341

> <CNN_VS>
1.1445820332

> <CNNaffinity_variance>
0.1789576560

$$$$
[H]c1c([H])c(N2C([H])([H])C([H])([H])N(C([H])([H])C([H])([H])C([H])([H])c3c([H])n([H])c4c([H])c([H])c(F)c([H])c34)C([H])([H])C2([H])[H])c([H])c(F)c1N1C([H])([H])C([H])([H])N([H])C([H])([H])C1([H])[H]


 34 38  0  0  0  0  0  0  0  0999 V2000
   37.2653   15.0102  -11.2188 N   0  0  0  0  0  0  0  0  0  0  0  0
   37.7893   15.3531  -12.5040 C   0  0  0  0  0  0  0  0  0  0  0  0
   37.1805   14.5458  -13.6238 C   0  0  0  0  0  0  0  0  0  0  0  0
   35.7647   14.4239  -13.5856 N   0  0  0  0  0  0  0  0  0  0  0  0
   35.1304   14.6874  -12.3379 C   0  0  0  0  0  0  0  0  0  0  0  0
   35.9917   14.3426  -11.1268 C   0  0  0  0  0  0  0  0  0  0  0  0
   37.5425   15.2933   -6.4520 F   0  0  0  0  0  0  0  0  0  0  0  0
   38.1523   15.4932   -7.6368 C   0  0  0  0  0  0  0  0  0  0  0  0
   37.4480   15.1732   -8.7724 C   0  0  0  0  0  0  0  0  0  0  0  0
   37.9887   15.3304  -10.0496 C   0  0  0  0  0  0  0  0  0  0  0  0
   39.2734   15.8277  -10.0769 C   0  0  0  0  0  0  0  0  0  0  0  0
   40.0004   16.1568   -8.9475 C   0  0  0  0  0  0  0  0  0  0  0  0
   39.4270   15.9857   -7.7013 C   0  0  0  0  0  0  0  0  0  0  0  0
   40.1862   16.3532   -6.5612 N   0  0  0  0  0  0  0  0  0  0  0  0
   39.8670   17.5593   -5.8538 C   0  0  0  0  0  0  0  0  0  0  0  0
   41.1135   18.1657   -5.2337 C   0  0  0  0  0  0  0  0  0  0  0  0
   41.7706   17.2758   -4.3409 N   0  0  0  0  0  0  0  0  0  0  0  0
   41.6343   15.8909   -4.6243 C   0  0  0  0  0  0  0  0  0  0  0  0
   41.2735   15.5511   -6.0499 C   0  0  0  0  0  0  0  0  0  0  0  0
   42.7071   17.6098   -4.0950 H   0  0  0  0  0  0  0  0  0  0  0  0
   35.2769   13.2457  -14.2308 C   0  0  0  0  0  0  0  0  0  0  0  0
   36.0944   12.9867  -15.4837 C   0  0  0  0  0  0  0  0  0  0  0  0
   36.2596   11.5002  -15.7165 C   0  0  0  0  0  0  0  0  0  0  0  0
   37.2709   11.2979  -16.7708 C   0  0  0  0  0  0  0  0  0  0  0  0
   37.0493   10.6641  -17.9669 C   0  0  0  0  0  0  0  0  0  0  0  0
   38.1960   10.6687  -18.6669 N   0  0  0  0  0  0  0  0  0  0  0  0
   39.1581   11.2878  -17.9605 C   0  0  0  0  0  0  0  0  0  0  0  0
   40.4867   11.5574  -18.2152 C   0  0  0  0  0  0  0  0  0  0  0  0
   41.2392   12.2260  -17.2739 C   0  0  0  0  0  0  0  0  0  0  0  0
   40.6906   12.6409  -16.0625 C   0  0  0  0  0  0  0  0  0  0  0  0
   41.4731   13.2959  -15.1678 F   0  0  0  0  0  0  0  0  0  0  0  0
   39.3666   12.3623  -15.8295 C   0  0  0  0  0  0  0  0  0  0  0  0
   38.5825   11.6926  -16.7530 C   0  0  0  0  0  0  0  0  0  0  0  0
   38.3416   10.2552  -19.6262 H   0  0  0  0  0  0  0  0  0  0  0  0
  7  8  1  0  0  0
  8  9  2  0  0  0
  9 10  1  0  0  0
 10  1  1  0  0  0
  1  2  1  0  0  0
  2  3  1  0  0  0
  3  4  1  0  0  0
  4 21  1  0  0  0
 21 22  1  0  0  0
 22 23  1  0  0  0
 23 24  1  0  0  0
 24 25  2  0  0  0
 25 26  1  0  0  0
 26 27  1  0  0  0
 27 28  2  0  0  0
 28 29  1  0  0  0
 29 30  2  0  0  0
 30 31  1  0  0  0
 30 32  1  0  0  0
 32 33  2  0  0  0
  4  5  1  0  0  0
  5  6  1  0  0  0
 10 11  2  0  0  0
 11 12  1  0  0  0
 12 13  2  0  0  0
 13 14  1  0  0  0
 14 15  1  0  0  0
 15 16  1  0  0  0
 16 17  1  0  0  0
 17 18  1  0  0  0
 18 19  1  0  0  0
 13  8  1  0  0  0
 19 14  1  0  0  0
  6  1  1  0  0  0
 33 24  1  0  0  0
 33 27  1  0  0  0
 26 34  1  0  0  0
 17 20  1  0  0  0
M  END
> <minimizedAffinity>
-8.47087

> <CNNscore>
0.1735895723

> <CNNaffinity>
6.2111296654

> <CNN_VS>
1.0781873465

> <CNNaffinity_variance>
0.1577121764

$$$$
[H]c1c([H])c(N2C([H])([H])C([H])([H])N(C([H])([H])C([H])([H])C([H])([H])c3c([H])n([H])c4c([H])c([H])c(F)c([H])c34)C([H])([H])C2([H])[H])c([H])c(F)c1N1C([H])([H])C([H])([H])N([H])C([H])([H])C1([H])[H]


 34 38  0  0  0  0  0  0  0  0999 V2000
   36.1598   15.7167  -11.0270 N   0  0  0  0  0  0  0  0  0  0  0  0
   36.0898   14.3058  -10.8070 C   0  0  0  0  0  0  0  0  0  0  0  0
   35.6208   13.5422  -12.0208 C   0  0  0  0  0  0  0  0  0  0  0  0
   36.2381   13.9106  -13.2471 N   0  0  0  0  0  0  0  0  0  0  0  0
   36.8815   15.1807  -13.2866 C   0  0  0  0  0  0  0  0  0  0  0  0
   36.2407   16.2218  -12.3740 C   0  0  0  0  0  0  0  0  0  0  0  0
   38.1295   19.3508   -8.6201 F   0  0  0  0  0  0  0  0  0  0  0  0
   37.1390   18.4396   -8.6865 C   0  0  0  0  0  0  0  0  0  0  0  0
   37.1412   17.5804   -9.7589 C   0  0  0  0  0  0  0  0  0  0  0  0
   36.1564   16.6063   -9.9309 C   0  0  0  0  0  0  0  0  0  0  0  0
   35.1922   16.5781   -8.9469 C   0  0  0  0  0  0  0  0  0  0  0  0
   35.1705   17.4322   -7.8595 C   0  0  0  0  0  0  0  0  0  0  0  0
   36.1654   18.3828   -7.7271 C   0  0  0  0  0  0  0  0  0  0  0  0
   36.1320   19.2300   -6.5902 N   0  0  0  0  0  0  0  0  0  0  0  0
   35.2113   20.3288   -6.5500 C   0  0  0  0  0  0  0  0  0  0  0  0
   35.7821   21.4802   -5.7408 C   0  0  0  0  0  0  0  0  0  0  0  0
   36.1030   21.1073   -4.4071 N   0  0  0  0  0  0  0  0  0  0  0  0
   36.4790   19.7522   -4.2092 C   0  0  0  0  0  0  0  0  0  0  0  0
   36.9784   19.0298   -5.4367 C   0  0  0  0  0  0  0  0  0  0  0  0
   36.6725   21.8202   -3.9417 H   0  0  0  0  0  0  0  0  0  0  0  0
   35.4255   13.6519  -14.3940 C   0  0  0  0  0  0  0  0  0  0  0  0
   36.0864   12.5813  -15.2438 C   0  0  0  0  0  0  0  0  0  0  0  0
   37.2481   11.9531  -14.5042 C   0  0  0  0  0  0  0  0  0  0  0  0
   38.4878   12.2261  -15.2553 C   0  0  0  0  0  0  0  0  0  0  0  0
   39.5587   12.9393  -14.7799 C   0  0  0  0  0  0  0  0  0  0  0  0
   40.4981   12.9818  -15.7395 N   0  0  0  0  0  0  0  0  0  0  0  0
   40.0691   12.3163  -16.8263 C   0  0  0  0  0  0  0  0  0  0  0  0
   40.6341   12.0645  -18.0592 C   0  0  0  0  0  0  0  0  0  0  0  0
   39.9329   11.3338  -18.9938 C   0  0  0  0  0  0  0  0  0  0  0  0
   38.6589   10.8381  -18.7257 C   0  0  0  0  0  0  0  0  0  0  0  0
   38.0089   10.1241  -19.6793 F   0  0  0  0  0  0  0  0  0  0  0  0
   38.1155   11.1004  -17.4925 C   0  0  0  0  0  0  0  0  0  0  0  0
   38.7922   11.8310  -16.5310 C   0  0  0  0  0  0  0  0  0  0  0  0
   41.4361   13.4592  -15.6718 H   0  0  0  0  0  0  0  0  0  0  0  0
  7  8  1  0  0  0
  8  9  2  0  0  0
  9 10  1  0  0  0
 10  1  1  0  0  0
  1  2  1  0  0  0
  2  3  1  0  0  0
  3  4  1  0  0  0
  4 21  1  0  0  0
 21 22  1  0  0  0
 22 23  1  0  0  0
 23 24  1  0  0  0
 24 25  2  0  0  0
 25 26  1  0  0  0
 26 27  1  0  0  0
 27 28  2  0  0  0
 28 29  1  0  0  0
 29 30  2  0  0  0
 30 31  1  0  0  0
 30 32  1  0  0  0
 32 33  2  0  0  0
  4  5  1  0  0  0
  5  6  1  0  0  0
 10 11  2  0  0  0
 11 12  1  0  0  0
 12 13  2  0  0  0
 13 14  1  0  0  0
 14 15  1  0  0  0
 15 16  1  0  0  0
 16 17  1  0  0  0
 17 18  1  0  0  0
 18 19  1  0  0  0
 13  8  1  0  0  0
 19 14  1  0  0  0
  6  1  1  0  0  0
 33 24  1  0  0  0
 33 27  1  0  0  0
 26 34  1  0  0  0
 17 20  1  0  0  0
M  END
> <minimizedAffinity>
-8.26348

> <CNNscore>
0.1691886634

> <CNNaffinity>
6.3237991333

> <CNN_VS>
1.0699151754

> <CNNaffinity_variance>
0.2181452215

$$$$
[H]c1c([H])c(N2C([H])([H])C([H])([H])N(C([H])([H])C([H])([H])C([H])([H])c3c([H])n([H])c4c([H])c([H])c(F)c([H])c34)C([H])([H])C2([H])[H])c([H])c(F)c1N1C([H])([H])C([H])([H])N([H])C([H])([H])C1([H])[H]


 34 38  0  0  0  0  0  0  0  0999 V2000
   34.4170   15.1989  -10.9821 N   0  0  0  0  0  0  0  0  0  0  0  0
   33.4490   14.8117  -11.9603 C   0  0  0  0  0  0  0  0  0  0  0  0
   34.0455   14.6045  -13.3306 C   0  0  0  0  0  0  0  0  0  0  0  0
   35.2440   13.8410  -13.3630 N   0  0  0  0  0  0  0  0  0  0  0  0
   35.9622   13.7198  -12.1391 C   0  0  0  0  0  0  0  0  0  0  0  0
   35.8121   14.9264  -11.2176 C   0  0  0  0  0  0  0  0  0  0  0  0
   30.9450   16.6076   -8.0088 F   0  0  0  0  0  0  0  0  0  0  0  0
   32.2660   16.5710   -8.2726 C   0  0  0  0  0  0  0  0  0  0  0  0
   32.6627   15.9421   -9.4282 C   0  0  0  0  0  0  0  0  0  0  0  0
   34.0061   15.8373   -9.7919 C   0  0  0  0  0  0  0  0  0  0  0  0
   34.8920   16.4105   -8.9058 C   0  0  0  0  0  0  0  0  0  0  0  0
   34.5154   17.0484   -7.7380 C   0  0  0  0  0  0  0  0  0  0  0  0
   33.1736   17.1300   -7.4153 C   0  0  0  0  0  0  0  0  0  0  0  0
   32.8139   17.8102   -6.2239 N   0  0  0  0  0  0  0  0  0  0  0  0
   32.0787   17.1184   -5.2053 C   0  0  0  0  0  0  0  0  0  0  0  0
   31.1734   18.0759   -4.4504 C   0  0  0  0  0  0  0  0  0  0  0  0
   31.8884   19.1462   -3.8470 N   0  0  0  0  0  0  0  0  0  0  0  0
   33.0794   19.5528   -4.5049 C   0  0  0  0  0  0  0  0  0  0  0  0
   33.1736   19.1854   -5.9657 C   0  0  0  0  0  0  0  0  0  0  0  0
   31.2590   19.8874   -3.5251 H   0  0  0  0  0  0  0  0  0  0  0  0
   36.0802   14.1409  -14.4826 C   0  0  0  0  0  0  0  0  0  0  0  0
   35.7774   13.1677  -15.6079 C   0  0  0  0  0  0  0  0  0  0  0  0
   36.4152   11.8219  -15.3370 C   0  0  0  0  0  0  0  0  0  0  0  0
   37.1839   11.4165  -16.5287 C   0  0  0  0  0  0  0  0  0  0  0  0
   36.6814   10.7059  -17.5889 C   0  0  0  0  0  0  0  0  0  0  0  0
   37.6688   10.5223  -18.4812 N   0  0  0  0  0  0  0  0  0  0  0  0
   38.8002   11.0935  -18.0321 C   0  0  0  0  0  0  0  0  0  0  0  0
   40.0745   11.1923  -18.5508 C   0  0  0  0  0  0  0  0  0  0  0  0
   41.0504   11.8563  -17.8396 C   0  0  0  0  0  0  0  0  0  0  0  0
   40.7833   12.4357  -16.6012 C   0  0  0  0  0  0  0  0  0  0  0  0
   41.7784   13.0790  -15.9395 F   0  0  0  0  0  0  0  0  0  0  0  0
   39.5086   12.3256  -16.1036 C   0  0  0  0  0  0  0  0  0  0  0  0
   38.5050   11.6655  -16.7916 C   0  0  0  0  0  0  0  0  0  0  0  0
   37.5903   10.0110  -19.4003 H   0  0  0  0  0  0  0  0  0  0  0  0
  7  8  1  0  0  0
  8  9  2  0  0  0
  9 10  1  0  0  0
 10  1  1  0  0  0
  1  2  1  0  0  0
  2  3  1  0  0  0
  3  4  1  0  0  0
  4 21  1  0  0  0
 21 22  1  0  0  0
 22 23  1  0  0  0
 23 24  1  0  0  0
 24 25  2  0  0  0
 25 26  1  0  0  0
 26 27  1  0  0  0
 27 28  2  0  0  0
 28 29  1  0  0  0
 29 30  2  0  0  0
 30 31  1  0  0  0
 30 32  1  0  0  0
 32 33  2  0  0  0
  4  5  1  0  0  0
  5  6  1  0  0  0
 10 11  2  0  0  0
 11 12  1  0  0  0
 12 13  2  0  0  0
 13 14  1  0  0  0
 14 15  1  0  0  0
 15 16  1  0  0  0
 16 17  1  0  0  0
 17 18  1  0  0  0
 18 19  1  0  0  0
 13  8  1  0  0  0
 19 14  1  0  0  0
  6  1  1  0  0  0
 33 24  1  0  0  0
 33 27  1  0  0  0
 26 34  1  0  0  0
 17 20  1  0  0  0
M  END
> <minimizedAffinity>
-8.73441

> <CNNscore>
0.1673006415

> <CNNaffinity>
6.1009068489

> <CNN_VS>
1.0206856728

> <CNNaffinity_variance>
0.1432571262

$$$$
[H]c1c([H])c(N2C([H])([H])C([H])([H])N(C([H])([H])C([H])([H])C([H])([H])c3c([H])n([H])c4c([H])c([H])c(F)c([H])c34)C([H])([H])C2([H])[H])c([H])c(F)c1N1C([H])([H])C([H])([H])N([H])C([H])([H])C1([H])[H]


 34 38  0  0  0  0  0  0  0  0999 V2000
   39.2173   15.4929  -11.8848 N   0  0  0  0  0  0  0  0  0  0  0  0
   38.9322   14.9688  -13.1840 C   0  0  0  0  0  0  0  0  0  0  0  0
   37.5943   14.2754  -13.2598 C   0  0  0  0  0  0  0  0  0  0  0  0
   36.5111   14.9771  -12.6642 N   0  0  0  0  0  0  0  0  0  0  0  0
   36.8436   15.9981  -11.7285 C   0  0  0  0  0  0  0  0  0  0  0  0
   38.1360   15.7315  -10.9628 C   0  0  0  0  0  0  0  0  0  0  0  0
   43.7658   16.3739  -13.0741 F   0  0  0  0  0  0  0  0  0  0  0  0
   42.8617   16.2195  -12.0869 C   0  0  0  0  0  0  0  0  0  0  0  0
   41.5656   15.9475  -12.4534 C   0  0  0  0  0  0  0  0  0  0  0  0
   40.5483   15.7802  -11.5125 C   0  0  0  0  0  0  0  0  0  0  0  0
   40.9472   15.9091  -10.1998 C   0  0  0  0  0  0  0  0  0  0  0  0
   42.2451   16.1820   -9.8083 C   0  0  0  0  0  0  0  0  0  0  0  0
   43.2226   16.3404  -10.7729 C   0  0  0  0  0  0  0  0  0  0  0  0
   44.5496   16.5961  -10.3427 N   0  0  0  0  0  0  0  0  0  0  0  0
   45.2341   17.7671  -10.8085 C   0  0  0  0  0  0  0  0  0  0  0  0
   46.7284   17.5143  -10.9058 C   0  0  0  0  0  0  0  0  0  0  0  0
   47.2995   17.1172   -9.6661 N   0  0  0  0  0  0  0  0  0  0  0  0
   46.4439   16.4091   -8.7810 C   0  0  0  0  0  0  0  0  0  0  0  0
   45.2573   15.7340   -9.4245 C   0  0  0  0  0  0  0  0  0  0  0  0
   48.2486   16.7516   -9.7868 H   0  0  0  0  0  0  0  0  0  0  0  0
   35.4555   14.1230  -12.2185 C   0  0  0  0  0  0  0  0  0  0  0  0
   35.3858   12.9026  -13.1190 C   0  0  0  0  0  0  0  0  0  0  0  0
   34.4209   13.1358  -14.2618 C   0  0  0  0  0  0  0  0  0  0  0  0
   34.6981   12.1479  -15.3214 C   0  0  0  0  0  0  0  0  0  0  0  0
   33.7694   11.3071  -15.8801 C   0  0  0  0  0  0  0  0  0  0  0  0
   34.3846   10.5529  -16.8062 N   0  0  0  0  0  0  0  0  0  0  0  0
   35.6877   10.8789  -16.8665 C   0  0  0  0  0  0  0  0  0  0  0  0
   36.7388   10.4171  -17.6310 C   0  0  0  0  0  0  0  0  0  0  0  0
   37.9943   10.9598  -17.4626 C   0  0  0  0  0  0  0  0  0  0  0  0
   38.2333   11.9704  -16.5341 C   0  0  0  0  0  0  0  0  0  0  0  0
   39.4876   12.4723  -16.4054 F   0  0  0  0  0  0  0  0  0  0  0  0
   37.1732   12.4152  -15.7837 C   0  0  0  0  0  0  0  0  0  0  0  0
   35.8996   11.8920  -15.9273 C   0  0  0  0  0  0  0  0  0  0  0  0
   33.9332    9.8119  -17.4058 H   0  0  0  0  0  0  0  0  0  0  0  0
  7  8  1  0  0  0
  8  9  2  0  0  0
  9 10  1  0  0  0
 10  1  1  0  0  0
  1  2  1  0  0  0
  2  3  1  0  0  0
  3  4  1  0  0  0
  4 21  1  0  0  0
 21 22  1  0  0  0
 22 23  1  0  0  0
 23 24  1  0  0  0
 24 25  2  0  0  0
 25 26  1  0  0  0
 26 27  1  0  0  0
 27 28  2  0  0  0
 28 29  1  0  0  0
 29 30  2  0  0  0
 30 31  1  0  0  0
 30 32  1  0  0  0
 32 33  2  0  0  0
  4  5  1  0  0  0
  5  6  1  0  0  0
 10 11  2  0  0  0
 11 12  1  0  0  0
 12 13  2  0  0  0
 13 14  1  0  0  0
 14 15  1  0  0  0
 15 16  1  0  0  0
 16 17  1  0  0  0
 17 18  1  0  0  0
 18 19  1  0  0  0
 13  8  1  0  0  0
 19 14  1  0  0  0
  6  1  1  0  0  0
 33 24  1  0  0  0
 33 27  1  0  0  0
 26 34  1  0  0  0
 17 20  1  0  0  0
M  END
> <minimizedAffinity>
-8.39673

> <CNNscore>
0.1613640487

> <CNNaffinity>
6.2104454041

> <CNN_VS>
1.0021426678

> <CNNaffinity_variance>
0.1151963845

$$$$
[H]OC(=O)[C@@]([H])(N([H])C(=O)[C@@]([H])(N([H])C(=O)C([H])([H])c1c([H])c([H])c(F)c(F)c1[H])C([H])([H])C([H])([H])C([H])([H])C([H])([H])[H])C([H])([H])c1c([H])c([H])c(-c2c([H])c([H])c([H])c([H])c2[H])c([H])c1[H]


 40 42  0  0  0  0  0  0  0  0999 V2000
   37.3926   15.1641  -11.7514 C   0  0  0  0  0  0  0  0  0  0  0  0
   36.7672   14.4730  -10.9041 O   0  0  0  0  0  0  0  0  0  0  0  0
   38.3026   16.1983  -11.4628 N   0  0  0  0  0  0  0  0  0  0  0  0
   38.7827   16.6982  -12.2195 H   0  0  0  0  0  0  0  0  0  0  0  0
   37.1321   14.8352  -13.1876 C   0  0  0  0  0  0  0  0  0  0  0  0
   38.1275   13.8196  -13.5667 N   0  0  0  0  0  0  0  0  0  0  0  0
   39.3216   14.1559  -14.2263 C   0  0  0  0  0  0  0  0  0  0  0  0
   39.5171   15.3902  -14.4893 O   0  0  0  0  0  0  0  0  0  0  0  0
   37.8856   12.8378  -13.3124 H   0  0  0  0  0  0  0  0  0  0  0  0
   40.3348   13.1596  -14.6169 C   0  0  0  0  0  0  0  0  0  0  0  0
   40.0224   12.5078  -15.9064 C   0  0  0  0  0  0  0  0  0  0  0  0
   40.8568   12.5008  -17.0029 C   0  0  0  0  0  0  0  0  0  0  0  0
   40.5327   11.8870  -18.1790 C   0  0  0  0  0  0  0  0  0  0  0  0
   39.3177   11.2386  -18.2933 C   0  0  0  0  0  0  0  0  0  0  0  0
   38.9649   10.6162  -19.4563 F   0  0  0  0  0  0  0  0  0  0  0  0
   38.4803   11.2424  -17.2005 C   0  0  0  0  0  0  0  0  0  0  0  0
   37.2897   10.6071  -17.3112 F   0  0  0  0  0  0  0  0  0  0  0  0
   38.8044   11.8628  -16.0069 C   0  0  0  0  0  0  0  0  0  0  0  0
   35.7994   14.1455  -13.3724 C   0  0  0  0  0  0  0  0  0  0  0  0
   35.8785   12.7008  -13.7582 C   0  0  0  0  0  0  0  0  0  0  0  0
   33.9175   11.8032  -15.0286 C   0  0  0  0  0  0  0  0  0  0  0  0
   35.1880   12.6091  -15.1371 C   0  0  0  0  0  0  0  0  0  0  0  0
   38.6100   16.5819  -10.0878 C   0  0  0  0  0  0  0  0  0  0  0  0
   37.8275   17.7678   -9.7426 C   0  0  0  0  0  0  0  0  0  0  0  0
   37.5523   18.7448  -10.6793 O   0  0  0  0  0  0  0  0  0  0  0  0
   37.3601   17.9818   -8.5826 O   0  0  0  0  0  0  0  0  0  0  0  0
   37.5618   19.7281  -10.5004 H   0  0  0  0  0  0  0  0  0  0  0  0
   40.0961   16.7223  -10.0080 C   0  0  0  0  0  0  0  0  0  0  0  0
   40.6855   15.7741   -9.0465 C   0  0  0  0  0  0  0  0  0  0  0  0
   42.0402   15.6534   -8.8326 C   0  0  0  0  0  0  0  0  0  0  0  0
   42.5666   14.7488   -7.9176 C   0  0  0  0  0  0  0  0  0  0  0  0
   41.7172   13.9454   -7.1987 C   0  0  0  0  0  0  0  0  0  0  0  0
   40.3625   14.0334   -7.3806 C   0  0  0  0  0  0  0  0  0  0  0  0
   39.8622   14.9527   -8.3081 C   0  0  0  0  0  0  0  0  0  0  0  0
   42.2623   13.0062   -6.2482 C   0  0  0  0  0  0  0  0  0  0  0  0
   41.7260   11.7446   -6.1578 C   0  0  0  0  0  0  0  0  0  0  0  0
   42.2740   10.8546   -5.2258 C   0  0  0  0  0  0  0  0  0  0  0  0
   43.3378   11.2720   -4.4251 C   0  0  0  0  0  0  0  0  0  0  0  0
   43.8767   12.5355   -4.5139 C   0  0  0  0  0  0  0  0  0  0  0  0
   43.3112   13.3895   -5.4453 C   0  0  0  0  0  0  0  0  0  0  0  0
 21 22  1  0  0  0
 22 20  1  0  0  0
 20 19  1  0  0  0
 19  5  1  0  0  0
  5  6  1  0  0  0
  6  7  1  0  0  0
  7  8  2  0  0  0
  7 10  1  0  0  0
 10 11  1  0  0  0
 11 12  2  0  0  0
 12 13  1  0  0  0
 13 14  2  0  0  0
 14 15  1  0  0  0
 14 16  1  0  0  0
 16 17  1  0  0  0
 16 18  2  0  0  0
  5  1  1  0  0  0
  1  2  2  0  0  0
  1  3  1  0  0  0
  3 23  1  0  0  0
 23 28  1  0  0  0
 28 29  1  0  0  0
 29 30  2  0  0  0
 30 31  1  0  0  0
 31 32  2  0  0  0
 32 33  1  0  0  0
 33 34  2  0  0  0
 32 35  1  0  0  0
 35 36  2  0  0  0
 36 37  1  0  0  0
 37 38  2  0  0  0
 38 39  1  0  0  0
 39 40  2  0  0  0
 23 24  1  0  0  0
 24 25  1  0  0  0
 24 26  2  0  0  0
 18 11  1  0  0  0
 34 29  1  0  0  0
 40 35  1  0  0  0
  6  9  1  0  0  0
  3  4  1  0  0  0
 25 27  1  0  0  0
M  END
> <minimizedAffinity>
-8.56406

> <CNNscore>
0.5195194483

> <CNNaffinity>
6.8787269592

> <CNN_VS>
3.5736324787

> <CNNaffinity_variance>
0.2162461728

$$$$
[H]OC(=O)[C@@]([H])(N([H])C(=O)[C@@]([H])(N([H])C(=O)C([H])([H])c1c([H])c([H])c(F)c(F)c1[H])C([H])([H])C([H])([H])C([H])([H])C([H])([H])[H])C([H])([H])c1c([H])c([H])c(-c2c([H])c([H])c([H])c([H])c2[H])c([H])c1[H]


 40 42  0  0  0  0  0  0  0  0999 V2000
   37.4662   14.8482  -12.3102 C   0  0  0  0  0  0  0  0  0  0  0  0
   36.9060   14.0688  -11.4945 O   0  0  0  0  0  0  0  0  0  0  0  0
   38.3639   15.8810  -11.9811 N   0  0  0  0  0  0  0  0  0  0  0  0
   38.7889   16.4579  -12.7157 H   0  0  0  0  0  0  0  0  0  0  0  0
   37.1356   14.6353  -13.7539 C   0  0  0  0  0  0  0  0  0  0  0  0
   38.0214   13.5594  -14.2270 N   0  0  0  0  0  0  0  0  0  0  0  0
   39.2848   13.8239  -14.7819 C   0  0  0  0  0  0  0  0  0  0  0  0
   39.6439   15.0467  -14.8629 O   0  0  0  0  0  0  0  0  0  0  0  0
   37.6474   12.5919  -14.1216 H   0  0  0  0  0  0  0  0  0  0  0  0
   40.1912   12.7662  -15.2630 C   0  0  0  0  0  0  0  0  0  0  0  0
   39.7206   12.1426  -16.5179 C   0  0  0  0  0  0  0  0  0  0  0  0
   40.4077   12.1704  -17.7120 C   0  0  0  0  0  0  0  0  0  0  0  0
   39.9397   11.5820  -18.8520 C   0  0  0  0  0  0  0  0  0  0  0  0
   38.7244   10.9246  -18.8263 C   0  0  0  0  0  0  0  0  0  0  0  0
   38.2297   10.3270  -19.9499 F   0  0  0  0  0  0  0  0  0  0  0  0
   38.0339   10.8938  -17.6356 C   0  0  0  0  0  0  0  0  0  0  0  0
   36.8432   10.2497  -17.6091 F   0  0  0  0  0  0  0  0  0  0  0  0
   38.5041   11.4884  -16.4780 C   0  0  0  0  0  0  0  0  0  0  0  0
   35.7400   14.0824  -13.9343 C   0  0  0  0  0  0  0  0  0  0  0  0
   35.6057   13.0240  -14.9849 C   0  0  0  0  0  0  0  0  0  0  0  0
   33.9578   11.3075  -15.7619 C   0  0  0  0  0  0  0  0  0  0  0  0
   34.1750   12.4651  -14.8193 C   0  0  0  0  0  0  0  0  0  0  0  0
   38.7365   16.1549  -10.5961 C   0  0  0  0  0  0  0  0  0  0  0  0
   37.6080   16.7947   -9.9216 C   0  0  0  0  0  0  0  0  0  0  0  0
   37.0077   17.9252  -10.4406 O   0  0  0  0  0  0  0  0  0  0  0  0
   37.1138   16.3696   -8.8331 O   0  0  0  0  0  0  0  0  0  0  0  0
   36.6906   18.7041   -9.9005 H   0  0  0  0  0  0  0  0  0  0  0  0
   40.0092   16.9375  -10.6452 C   0  0  0  0  0  0  0  0  0  0  0  0
   41.1661   16.0830  -10.9654 C   0  0  0  0  0  0  0  0  0  0  0  0
   41.9532   15.4814  -10.0093 C   0  0  0  0  0  0  0  0  0  0  0  0
   43.0389   14.6798  -10.3428 C   0  0  0  0  0  0  0  0  0  0  0  0
   43.3449   14.4747  -11.6650 C   0  0  0  0  0  0  0  0  0  0  0  0
   42.5876   15.0546  -12.6481 C   0  0  0  0  0  0  0  0  0  0  0  0
   41.5015   15.8559  -12.2821 C   0  0  0  0  0  0  0  0  0  0  0  0
   44.4715   13.6425  -12.0126 C   0  0  0  0  0  0  0  0  0  0  0  0
   45.2212   13.0657  -11.0164 C   0  0  0  0  0  0  0  0  0  0  0  0
   46.3094   12.2641  -11.3830 C   0  0  0  0  0  0  0  0  0  0  0  0
   46.5964   12.0774  -12.7357 C   0  0  0  0  0  0  0  0  0  0  0  0
   45.8465   12.6544  -13.7354 C   0  0  0  0  0  0  0  0  0  0  0  0
   44.7785   13.4404  -13.3380 C   0  0  0  0  0  0  0  0  0  0  0  0
 21 22  1  0  0  0
 22 20  1  0  0  0
 20 19  1  0  0  0
 19  5  1  0  0  0
  5  6  1  0  0  0
  6  7  1  0  0  0
  7  8  2  0  0  0
  7 10  1  0  0  0
 10 11  1  0  0  0
 11 12  2  0  0  0
 12 13  1  0  0  0
 13 14  2  0  0  0
 14 15  1  0  0  0
 14 16  1  0  0  0
 16 17  1  0  0  0
 16 18  2  0  0  0
  5  1  1  0  0  0
  1  2  2  0  0  0
  1  3  1  0  0  0
  3 23  1  0  0  0
 23 28  1  0  0  0
 28 29  1  0  0  0
 29 30  2  0  0  0
 30 31  1  0  0  0
 31 32  2  0  0  0
 32 33  1  0  0  0
 33 34  2  0  0  0
 32 35  1  0  0  0
 35 36  2  0  0  0
 36 37  1  0  0  0
 37 38  2  0  0  0
 38 39  1  0  0  0
 39 40  2  0  0  0
 23 24  1  0  0  0
 24 25  1  0  0  0
 24 26  2  0  0  0
 18 11  1  0  0  0
 34 29  1  0  0  0
 40 35  1  0  0  0
  6  9  1  0  0  0
  3  4  1  0  0  0
 25 27  1  0  0  0
M  END
> <minimizedAffinity>
-8.40953

> <CNNscore>
0.4118390083

> <CNNaffinity>
7.0000677109

> <CNN_VS>
2.8829009533

> <CNNaffinity_variance>
0.1606168300

$$$$
[H]OC(=O)[C@@]([H])(N([H])C(=O)[C@@]([H])(N([H])C(=O)C([H])([H])c1c([H])c([H])c(F)c(F)c1[H])C([H])([H])C([H])([H])C([H])([H])C([H])([H])[H])C([H])([H])c1c([H])c([H])c(-c2c([H])c([H])c([H])c([H])c2[H])c([H])c1[H]


 40 42  0  0  0  0  0  0  0  0999 V2000
   36.8136   15.0217  -11.4233 C   0  0  0  0  0  0  0  0  0  0  0  0
   36.2350   14.2174  -10.6457 O   0  0  0  0  0  0  0  0  0  0  0  0
   37.6541   16.0826  -11.0371 N   0  0  0  0  0  0  0  0  0  0  0  0
   38.1003   16.6794  -11.7427 H   0  0  0  0  0  0  0  0  0  0  0  0
   36.5747   14.8083  -12.8849 C   0  0  0  0  0  0  0  0  0  0  0  0
   37.4772   13.7214  -13.2973 N   0  0  0  0  0  0  0  0  0  0  0  0
   38.5747   13.9452  -14.1456 C   0  0  0  0  0  0  0  0  0  0  0  0
   38.7656   15.1406  -14.5522 O   0  0  0  0  0  0  0  0  0  0  0  0
   37.2462   12.7783  -12.9174 H   0  0  0  0  0  0  0  0  0  0  0  0
   39.4937   12.8757  -14.5737 C   0  0  0  0  0  0  0  0  0  0  0  0
   39.0305   12.1846  -15.7956 C   0  0  0  0  0  0  0  0  0  0  0  0
   37.7461   11.7290  -15.9986 C   0  0  0  0  0  0  0  0  0  0  0  0
   37.3554   11.0938  -17.1427 C   0  0  0  0  0  0  0  0  0  0  0  0
   38.2757   10.8897  -18.1533 C   0  0  0  0  0  0  0  0  0  0  0  0
   37.9155   10.2574  -19.3086 F   0  0  0  0  0  0  0  0  0  0  0  0
   39.5605   11.3431  -17.9555 C   0  0  0  0  0  0  0  0  0  0  0  0
   40.4630   11.1441  -18.9451 F   0  0  0  0  0  0  0  0  0  0  0  0
   39.9609   11.9874  -16.7982 C   0  0  0  0  0  0  0  0  0  0  0  0
   35.1876   14.2703  -13.1539 C   0  0  0  0  0  0  0  0  0  0  0  0
   35.1355   12.8462  -13.6136 C   0  0  0  0  0  0  0  0  0  0  0  0
   33.9115   11.6363  -15.4311 C   0  0  0  0  0  0  0  0  0  0  0  0
   33.8018   12.7149  -14.3822 C   0  0  0  0  0  0  0  0  0  0  0  0
   37.9362   16.3590   -9.6313 C   0  0  0  0  0  0  0  0  0  0  0  0
   38.1223   17.7992   -9.4616 C   0  0  0  0  0  0  0  0  0  0  0  0
   38.0829   18.6608  -10.5403 O   0  0  0  0  0  0  0  0  0  0  0  0
   38.3336   18.3476   -8.3371 O   0  0  0  0  0  0  0  0  0  0  0  0
   38.6892   19.4450  -10.6689 H   0  0  0  0  0  0  0  0  0  0  0  0
   39.0934   15.4921   -9.2517 C   0  0  0  0  0  0  0  0  0  0  0  0
   40.2784   15.7641  -10.0841 C   0  0  0  0  0  0  0  0  0  0  0  0
   41.5411   15.9526   -9.5686 C   0  0  0  0  0  0  0  0  0  0  0  0
   42.6405   16.2075  -10.3802 C   0  0  0  0  0  0  0  0  0  0  0  0
   42.4730   16.2754  -11.7409 C   0  0  0  0  0  0  0  0  0  0  0  0
   41.2336   16.0937  -12.2950 C   0  0  0  0  0  0  0  0  0  0  0  0
   40.1464   15.8389  -11.4532 C   0  0  0  0  0  0  0  0  0  0  0  0
   43.6136   16.5396  -12.5846 C   0  0  0  0  0  0  0  0  0  0  0  0
   44.2052   15.5054  -13.2685 C   0  0  0  0  0  0  0  0  0  0  0  0
   45.3111   15.7908  -14.0788 C   0  0  0  0  0  0  0  0  0  0  0  0
   45.7740   17.1042  -14.1662 C   0  0  0  0  0  0  0  0  0  0  0  0
   45.1829   18.1420  -13.4819 C   0  0  0  0  0  0  0  0  0  0  0  0
   44.0923   17.8248  -12.6904 C   0  0  0  0  0  0  0  0  0  0  0  0
 21 22  1  0  0  0
 22 20  1  0  0  0
 20 19  1  0  0  0
 19  5  1  0  0  0
  5  6  1  0  0  0
  6  7  1  0  0  0
  7  8  2  0  0  0
  7 10  1  0  0  0
 10 11  1  0  0  0
 11 12  2  0  0  0
 12 13  1  0  0  0
 13 14  2  0  0  0
 14 15  1  0  0  0
 14 16  1  0  0  0
 16 17  1  0  0  0
 16 18  2  0  0  0
  5  1  1  0  0  0
  1  2  2  0  0  0
  1  3  1  0  0  0
  3 23  1  0  0  0
 23 28  1  0  0  0
 28 29  1  0  0  0
 29 30  2  0  0  0
 30 31  1  0  0  0
 31 32  2  0  0  0
 32 33  1  0  0  0
 33 34  2  0  0  0
 32 35  1  0  0  0
 35 36  2  0  0  0
 36 37  1  0  0  0
 37 38  2  0  0  0
 38 39  1  0  0  0
 39 40  2  0  0  0
 23 24  1  0  0  0
 24 25  1  0  0  0
 24 26  2  0  0  0
 18 11  1  0  0  0
 34 29  1  0  0  0
 40 35  1  0  0  0
  6  9  1  0  0  0
  3  4  1  0  0  0
 25 27  1  0  0  0
M  END
> <minimizedAffinity>
-8.45038

> <CNNscore>
0.3316193223

> <CNNaffinity>
6.7645187378

> <CNN_VS>
2.2432451248

> <CNNaffinity_variance>
0.3539554775

$$$$
[H]OC(=O)[C@@]([H])(N([H])C(=O)[C@@]([H])(N([H])C(=O)C([H])([H])c1c([H])c([H])c(F)c(F)c1[H])C([H])([H])C([H])([H])C([H])([H])C([H])([H])[H])C([H])([H])c1c([H])c([H])c(-c2c([H])c([H])c([H])c([H])c2[H])c([H])c1[H]


 40 42  0  0  0  0  0  0  0  0999 V2000
   35.6599   14.6631  -12.9060 C   0  0  0  0  0  0  0  0  0  0  0  0
   34.5370   14.7754  -12.3464 O   0  0  0  0  0  0  0  0  0  0  0  0
   36.8963   15.0580  -12.3617 N   0  0  0  0  0  0  0  0  0  0  0  0
   37.7678   14.9110  -12.8833 H   0  0  0  0  0  0  0  0  0  0  0  0
   35.6547   14.0477  -14.2699 C   0  0  0  0  0  0  0  0  0  0  0  0
   37.0636   13.9457  -14.6832 N   0  0  0  0  0  0  0  0  0  0  0  0
   37.9707   13.0909  -14.0348 C   0  0  0  0  0  0  0  0  0  0  0  0
   37.5253   12.3952  -13.0611 O   0  0  0  0  0  0  0  0  0  0  0  0
   37.3397   14.5494  -15.4873 H   0  0  0  0  0  0  0  0  0  0  0  0
   39.3858   12.9695  -14.4281 C   0  0  0  0  0  0  0  0  0  0  0  0
   39.5515   12.4092  -15.7860 C   0  0  0  0  0  0  0  0  0  0  0  0
   40.5949   12.7084  -16.6348 C   0  0  0  0  0  0  0  0  0  0  0  0
   40.7138   12.1700  -17.8841 C   0  0  0  0  0  0  0  0  0  0  0  0
   39.7544   11.2832  -18.3347 C   0  0  0  0  0  0  0  0  0  0  0  0
   39.8454   10.7287  -19.5791 F   0  0  0  0  0  0  0  0  0  0  0  0
   38.7098   10.9807  -17.4905 C   0  0  0  0  0  0  0  0  0  0  0  0
   37.7694   10.1118  -17.9306 F   0  0  0  0  0  0  0  0  0  0  0  0
   38.5852   11.5237  -16.2238 C   0  0  0  0  0  0  0  0  0  0  0  0
   35.1658   12.6174  -14.2382 C   0  0  0  0  0  0  0  0  0  0  0  0
   35.1030   11.9366  -15.5704 C   0  0  0  0  0  0  0  0  0  0  0  0
   33.4171   10.7764  -17.0116 C   0  0  0  0  0  0  0  0  0  0  0  0
   33.7204   11.2487  -15.6114 C   0  0  0  0  0  0  0  0  0  0  0  0
   36.9868   15.6681  -11.0382 C   0  0  0  0  0  0  0  0  0  0  0  0
   38.3496   16.1578  -10.8364 C   0  0  0  0  0  0  0  0  0  0  0  0
   39.4461   15.3608  -11.1014 O   0  0  0  0  0  0  0  0  0  0  0  0
   38.6163   17.3220  -10.4083 O   0  0  0  0  0  0  0  0  0  0  0  0
   40.2732   15.3207  -10.5416 H   0  0  0  0  0  0  0  0  0  0  0  0
   36.4997   14.6440  -10.0642 C   0  0  0  0  0  0  0  0  0  0  0  0
   35.7662   15.2583   -8.9437 C   0  0  0  0  0  0  0  0  0  0  0  0
   35.2735   16.5437   -8.9726 C   0  0  0  0  0  0  0  0  0  0  0  0
   34.5846   17.0958   -7.8988 C   0  0  0  0  0  0  0  0  0  0  0  0
   34.3833   16.3440   -6.7683 C   0  0  0  0  0  0  0  0  0  0  0  0
   34.8568   15.0606   -6.6979 C   0  0  0  0  0  0  0  0  0  0  0  0
   35.5462   14.5322   -7.7939 C   0  0  0  0  0  0  0  0  0  0  0  0
   33.6680   16.9158   -5.6530 C   0  0  0  0  0  0  0  0  0  0  0  0
   34.3606   17.3122   -4.5347 C   0  0  0  0  0  0  0  0  0  0  0  0
   33.6405   17.8625   -3.4672 C   0  0  0  0  0  0  0  0  0  0  0  0
   32.2549   17.9904   -3.5706 C   0  0  0  0  0  0  0  0  0  0  0  0
   31.5589   17.5939   -4.6900 C   0  0  0  0  0  0  0  0  0  0  0  0
   32.3015   17.0542   -5.7263 C   0  0  0  0  0  0  0  0  0  0  0  0
 21 22  1  0  0  0
 22 20  1  0  0  0
 20 19  1  0  0  0
 19  5  1  0  0  0
  5  6  1  0  0  0
  6  7  1  0  0  0
  7  8  2  0  0  0
  7 10  1  0  0  0
 10 11  1  0  0  0
 11 12  2  0  0  0
 12 13  1  0  0  0
 13 14  2  0  0  0
 14 15  1  0  0  0
 14 16  1  0  0  0
 16 17  1  0  0  0
 16 18  2  0  0  0
  5  1  1  0  0  0
  1  2  2  0  0  0
  1  3  1  0  0  0
  3 23  1  0  0  0
 23 28  1  0  0  0
 28 29  1  0  0  0
 29 30  2  0  0  0
 30 31  1  0  0  0
 31 32  2  0  0  0
 32 33  1  0  0  0
 33 34  2  0  0  0
 32 35  1  0  0  0
 35 36  2  0  0  0
 36 37  1  0  0  0
 37 38  2  0  0  0
 38 39  1  0  0  0
 39 40  2  0  0  0
 23 24  1  0  0  0
 24 25  1  0  0  0
 24 26  2  0  0  0
 18 11  1  0  0  0
 34 29  1  0  0  0
 40 35  1  0  0  0
  6  9  1  0  0  0
  3  4  1  0  0  0
 25 27  1  0  0  0
M  END
> <minimizedAffinity>
-8.48169

> <CNNscore>
0.2949129641

> <CNNaffinity>
6.5680694580

> <CNN_VS>
1.9370088577

> <CNNaffinity_variance>
0.2995010018

$$$$
[H]OC(=O)[C@@]([H])(N([H])C(=O)[C@@]([H])(N([H])C(=O)C([H])([H])c1c([H])c([H])c(F)c(F)c1[H])C([H])([H])C([H])([H])C([H])([H])C([H])([H])[H])C([H])([H])c1c([H])c([H])c(-c2c([H])c([H])c([H])c([H])c2[H])c([H])c1[H]


 40 42  0  0  0  0  0  0  0  0999 V2000
   37.1091   15.4328  -11.9391 C   0  0  0  0  0  0  0  0  0  0  0  0
   36.4785   16.4832  -11.6462 O   0  0  0  0  0  0  0  0  0  0  0  0
   37.9892   14.7351  -11.0908 N   0  0  0  0  0  0  0  0  0  0  0  0
   38.4476   13.8735  -11.4079 H   0  0  0  0  0  0  0  0  0  0  0  0
   36.8833   14.8945  -13.3168 C   0  0  0  0  0  0  0  0  0  0  0  0
   37.8944   13.8448  -13.5217 N   0  0  0  0  0  0  0  0  0  0  0  0
   39.0538   14.0651  -14.2840 C   0  0  0  0  0  0  0  0  0  0  0  0
   39.2031   15.2235  -14.8004 O   0  0  0  0  0  0  0  0  0  0  0  0
   37.6908   12.9307  -13.0632 H   0  0  0  0  0  0  0  0  0  0  0  0
   40.0816   13.0323  -14.5048 C   0  0  0  0  0  0  0  0  0  0  0  0
   40.0102   12.4404  -15.8575 C   0  0  0  0  0  0  0  0  0  0  0  0
   40.9663   12.6050  -16.8359 C   0  0  0  0  0  0  0  0  0  0  0  0
   40.8649   12.0415  -18.0758 C   0  0  0  0  0  0  0  0  0  0  0  0
   39.7610   11.2682  -18.3811 C   0  0  0  0  0  0  0  0  0  0  0  0
   39.6309   10.6920  -19.6122 F   0  0  0  0  0  0  0  0  0  0  0  0
   38.8028   11.1004  -17.4069 C   0  0  0  0  0  0  0  0  0  0  0  0
   37.7210   10.3426  -17.7048 F   0  0  0  0  0  0  0  0  0  0  0  0
   38.9013   11.6692  -16.1493 C   0  0  0  0  0  0  0  0  0  0  0  0
   35.5602   14.1713  -13.4267 C   0  0  0  0  0  0  0  0  0  0  0  0
   35.6499   12.6766  -13.4267 C   0  0  0  0  0  0  0  0  0  0  0  0
   35.2254   11.8582  -15.7538 C   0  0  0  0  0  0  0  0  0  0  0  0
   34.5793   12.2043  -14.4353 C   0  0  0  0  0  0  0  0  0  0  0  0
   38.2650   15.1958   -9.7329 C   0  0  0  0  0  0  0  0  0  0  0  0
   37.0170   15.1935   -8.9712 C   0  0  0  0  0  0  0  0  0  0  0  0
   36.0410   14.2419   -9.1938 O   0  0  0  0  0  0  0  0  0  0  0  0
   36.7453   16.0493   -8.0747 O   0  0  0  0  0  0  0  0  0  0  0  0
   35.0578   14.4214   -9.2019 H   0  0  0  0  0  0  0  0  0  0  0  0
   38.9588   16.5134   -9.8639 C   0  0  0  0  0  0  0  0  0  0  0  0
   40.2859   16.3744  -10.4888 C   0  0  0  0  0  0  0  0  0  0  0  0
   40.5047   16.5003  -11.8423 C   0  0  0  0  0  0  0  0  0  0  0  0
   41.7695   16.3639  -12.4027 C   0  0  0  0  0  0  0  0  0  0  0  0
   42.8420   16.0951  -11.5894 C   0  0  0  0  0  0  0  0  0  0  0  0
   42.6684   15.9621  -10.2372 C   0  0  0  0  0  0  0  0  0  0  0  0
   41.3842   16.1046   -9.7023 C   0  0  0  0  0  0  0  0  0  0  0  0
   44.1557   15.9535  -12.1698 C   0  0  0  0  0  0  0  0  0  0  0  0
   44.6516   16.9492  -12.9760 C   0  0  0  0  0  0  0  0  0  0  0  0
   45.9286   16.7844  -13.5266 C   0  0  0  0  0  0  0  0  0  0  0  0
   46.6516   15.6253  -13.2424 C   0  0  0  0  0  0  0  0  0  0  0  0
   46.1567   14.6264  -12.4350 C   0  0  0  0  0  0  0  0  0  0  0  0
   44.8917   14.8216  -11.9074 C   0  0  0  0  0  0  0  0  0  0  0  0
 21 22  1  0  0  0
 22 20  1  0  0  0
 20 19  1  0  0  0
 19  5  1  0  0  0
  5  6  1  0  0  0
  6  7  1  0  0  0
  7  8  2  0  0  0
  7 10  1  0  0  0
 10 11  1  0  0  0
 11 12  2  0  0  0
 12 13  1  0  0  0
 13 14  2  0  0  0
 14 15  1  0  0  0
 14 16  1  0  0  0
 16 17  1  0  0  0
 16 18  2  0  0  0
  5  1  1  0  0  0
  1  2  2  0  0  0
  1  3  1  0  0  0
  3 23  1  0  0  0
 23 28  1  0  0  0
 28 29  1  0  0  0
 29 30  2  0  0  0
 30 31  1  0  0  0
 31 32  2  0  0  0
 32 33  1  0  0  0
 33 34  2  0  0  0
 32 35  1  0  0  0
 35 36  2  0  0  0
 36 37  1  0  0  0
 37 38  2  0  0  0
 38 39  1  0  0  0
 39 40  2  0  0  0
 23 24  1  0  0  0
 24 25  1  0  0  0
 24 26  2  0  0  0
 18 11  1  0  0  0
 34 29  1  0  0  0
 40 35  1  0  0  0
  6  9  1  0  0  0
  3  4  1  0  0  0
 25 27  1  0  0  0
M  END
> <minimizedAffinity>
-8.55110

> <CNNscore>
0.2585644424

> <CNNaffinity>
6.6625947952

> <CNN_VS>
1.7227101326

> <CNNaffinity_variance>
0.2554276884

$$$$
[H]OC(=O)[C@@]([H])(N([H])C(=O)[C@@]([H])(N([H])C(=O)C([H])([H])c1c([H])c([H])c(F)c(F)c1[H])C([H])([H])C([H])([H])C([H])([H])C([H])([H])[H])C([H])([H])c1c([H])c([H])c(-c2c([H])c([H])c([H])c([H])c2[H])c([H])c1[H]


 40 42  0  0  0  0  0  0  0  0999 V2000
   36.9917   13.3251  -13.5381 C   0  0  0  0  0  0  0  0  0  0  0  0
   37.0018   12.3448  -12.7472 O   0  0  0  0  0  0  0  0  0  0  0  0
   36.2276   14.4976  -13.3892 N   0  0  0  0  0  0  0  0  0  0  0  0
   36.2962   15.2569  -14.0762 H   0  0  0  0  0  0  0  0  0  0  0  0
   37.8834   13.2123  -14.7343 C   0  0  0  0  0  0  0  0  0  0  0  0
   39.2535   13.0663  -14.2169 N   0  0  0  0  0  0  0  0  0  0  0  0
   40.1506   14.1464  -14.1671 C   0  0  0  0  0  0  0  0  0  0  0  0
   39.7313   15.2753  -14.5918 O   0  0  0  0  0  0  0  0  0  0  0  0
   39.5101   12.1096  -13.8911 H   0  0  0  0  0  0  0  0  0  0  0  0
   41.5270   14.0279  -13.6540 C   0  0  0  0  0  0  0  0  0  0  0  0
   42.4554   13.4481  -14.6476 C   0  0  0  0  0  0  0  0  0  0  0  0
   43.8290   13.4699  -14.5422 C   0  0  0  0  0  0  0  0  0  0  0  0
   44.6549   12.9229  -15.4823 C   0  0  0  0  0  0  0  0  0  0  0  0
   44.1066   12.3160  -16.5962 C   0  0  0  0  0  0  0  0  0  0  0  0
   44.9061   11.7607  -17.5536 F   0  0  0  0  0  0  0  0  0  0  0  0
   42.7345   12.2914  -16.7064 C   0  0  0  0  0  0  0  0  0  0  0  0
   42.1960   11.6967  -17.7971 F   0  0  0  0  0  0  0  0  0  0  0  0
   41.8937   12.8440  -15.7563 C   0  0  0  0  0  0  0  0  0  0  0  0
   37.6319   11.9351  -15.5032 C   0  0  0  0  0  0  0  0  0  0  0  0
   38.8021   11.4205  -16.2829 C   0  0  0  0  0  0  0  0  0  0  0  0
   36.7095   10.8405  -17.5279 C   0  0  0  0  0  0  0  0  0  0  0  0
   38.2128   10.9239  -17.6218 C   0  0  0  0  0  0  0  0  0  0  0  0
   35.3316   14.6845  -12.2515 C   0  0  0  0  0  0  0  0  0  0  0  0
   33.9521   14.5106  -12.7036 C   0  0  0  0  0  0  0  0  0  0  0  0
   32.9975   15.4857  -12.4900 O   0  0  0  0  0  0  0  0  0  0  0  0
   33.5413   13.4725  -13.3066 O   0  0  0  0  0  0  0  0  0  0  0  0
   32.0490   15.3105  -12.2280 H   0  0  0  0  0  0  0  0  0  0  0  0
   35.6714   16.0133  -11.6569 C   0  0  0  0  0  0  0  0  0  0  0  0
   36.0401   15.8994  -10.2349 C   0  0  0  0  0  0  0  0  0  0  0  0
   35.8095   16.8920   -9.3090 C   0  0  0  0  0  0  0  0  0  0  0  0
   36.1689   16.7549   -7.9731 C   0  0  0  0  0  0  0  0  0  0  0  0
   36.7737   15.5967   -7.5528 C   0  0  0  0  0  0  0  0  0  0  0  0
   37.0214   14.5841   -8.4413 C   0  0  0  0  0  0  0  0  0  0  0  0
   36.6486   14.7508   -9.7789 C   0  0  0  0  0  0  0  0  0  0  0  0
   37.1470   15.4530   -6.1663 C   0  0  0  0  0  0  0  0  0  0  0  0
   38.1911   16.1919   -5.6651 C   0  0  0  0  0  0  0  0  0  0  0  0
   38.5321   16.0311   -4.3164 C   0  0  0  0  0  0  0  0  0  0  0  0
   37.8082   15.1341   -3.5302 C   0  0  0  0  0  0  0  0  0  0  0  0
   36.7618   14.3926   -4.0302 C   0  0  0  0  0  0  0  0  0  0  0  0
   36.4514   14.5760   -5.3668 C   0  0  0  0  0  0  0  0  0  0  0  0
 21 22  1  0  0  0
 22 20  1  0  0  0
 20 19  1  0  0  0
 19  5  1  0  0  0
  5  6  1  0  0  0
  6  7  1  0  0  0
  7  8  2  0  0  0
  7 10  1  0  0  0
 10 11  1  0  0  0
 11 12  2  0  0  0
 12 13  1  0  0  0
 13 14  2  0  0  0
 14 15  1  0  0  0
 14 16  1  0  0  0
 16 17  1  0  0  0
 16 18  2  0  0  0
  5  1  1  0  0  0
  1  2  2  0  0  0
  1  3  1  0  0  0
  3 23  1  0  0  0
 23 28  1  0  0  0
 28 29  1  0  0  0
 29 30  2  0  0  0
 30 31  1  0  0  0
 31 32  2  0  0  0
 32 33  1  0  0  0
 33 34  2  0  0  0
 32 35  1  0  0  0
 35 36  2  0  0  0
 36 37  1  0  0  0
 37 38  2  0  0  0
 38 39  1  0  0  0
 39 40  2  0  0  0
 23 24  1  0  0  0
 24 25  1  0  0  0
 24 26  2  0  0  0
 18 11  1  0  0  0
 34 29  1  0  0  0
 40 35  1  0  0  0
  6  9  1  0  0  0
  3  4  1  0  0  0
 25 27  1  0  0  0
M  END
> <minimizedAffinity>
-8.50755

> <CNNscore>
0.2532722950

> <CNNaffinity>
6.1987476349

> <CNN_VS>
1.5699710846

> <CNNaffinity_variance>
0.4135838449

$$$$
[H]OC(=O)[C@@]([H])(N([H])C(=O)[C@@]([H])(N([H])C(=O)C([H])([H])c1c([H])c([H])c(F)c(F)c1[H])C([H])([H])C([H])([H])C([H])([H])C([H])([H])[H])C([H])([H])c1c([H])c([H])c(-c2c([H])c([H])c([H])c([H])c2[H])c([H])c1[H]


 40 42  0  0  0  0  0  0  0  0999 V2000
   36.9419   13.2104  -13.7222 C   0  0  0  0  0  0  0  0  0  0  0  0
   37.0362   12.2507  -12.9119 O   0  0  0  0  0  0  0  0  0  0  0  0
   36.0678   14.3072  -13.6043 N   0  0  0  0  0  0  0  0  0  0  0  0
   36.0717   15.0564  -14.3055 H   0  0  0  0  0  0  0  0  0  0  0  0
   37.8542   13.1608  -14.9072 C   0  0  0  0  0  0  0  0  0  0  0  0
   39.2179   13.0136  -14.3736 N   0  0  0  0  0  0  0  0  0  0  0  0
   40.0860   14.1094  -14.2335 C   0  0  0  0  0  0  0  0  0  0  0  0
   39.6455   15.2539  -14.5895 O   0  0  0  0  0  0  0  0  0  0  0  0
   39.4931   12.0436  -14.1079 H   0  0  0  0  0  0  0  0  0  0  0  0
   41.4554   13.9901  -13.7022 C   0  0  0  0  0  0  0  0  0  0  0  0
   42.4019   13.4340  -14.6922 C   0  0  0  0  0  0  0  0  0  0  0  0
   42.0329   12.8069  -15.8623 C   0  0  0  0  0  0  0  0  0  0  0  0
   42.9380   12.3051  -16.7534 C   0  0  0  0  0  0  0  0  0  0  0  0
   44.2889   12.4220  -16.4868 C   0  0  0  0  0  0  0  0  0  0  0  0
   45.2179   11.9298  -17.3579 F   0  0  0  0  0  0  0  0  0  0  0  0
   44.6630   13.0479  -15.3189 C   0  0  0  0  0  0  0  0  0  0  0  0
   45.9863   13.1635  -15.0567 F   0  0  0  0  0  0  0  0  0  0  0  0
   43.7496   13.5581  -14.4132 C   0  0  0  0  0  0  0  0  0  0  0  0
   37.6347   11.9132  -15.7325 C   0  0  0  0  0  0  0  0  0  0  0  0
   38.8733   11.3158  -16.3248 C   0  0  0  0  0  0  0  0  0  0  0  0
   37.0081   10.6444  -17.8531 C   0  0  0  0  0  0  0  0  0  0  0  0
   38.4875   10.9275  -17.7695 C   0  0  0  0  0  0  0  0  0  0  0  0
   35.1448   14.4290  -12.4793 C   0  0  0  0  0  0  0  0  0  0  0  0
   33.7742   14.3671  -12.9845 C   0  0  0  0  0  0  0  0  0  0  0  0
   32.8677   15.3772  -12.7286 O   0  0  0  0  0  0  0  0  0  0  0  0
   33.3281   13.4003  -13.6746 O   0  0  0  0  0  0  0  0  0  0  0  0
   31.9026   15.2380  -12.5090 H   0  0  0  0  0  0  0  0  0  0  0  0
   35.5263   15.6769  -11.7500 C   0  0  0  0  0  0  0  0  0  0  0  0
   36.4505   15.4001  -10.6362 C   0  0  0  0  0  0  0  0  0  0  0  0
   36.0431   14.9109   -9.4154 C   0  0  0  0  0  0  0  0  0  0  0  0
   36.9397   14.6594   -8.3832 C   0  0  0  0  0  0  0  0  0  0  0  0
   38.2765   14.9029   -8.5767 C   0  0  0  0  0  0  0  0  0  0  0  0
   38.7243   15.3897   -9.7763 C   0  0  0  0  0  0  0  0  0  0  0  0
   37.7988   15.6330  -10.7960 C   0  0  0  0  0  0  0  0  0  0  0  0
   39.2084   14.6419   -7.5062 C   0  0  0  0  0  0  0  0  0  0  0  0
   38.8243   14.8586   -6.2051 C   0  0  0  0  0  0  0  0  0  0  0  0
   39.7496   14.5981   -5.1868 C   0  0  0  0  0  0  0  0  0  0  0  0
   41.0211   14.1308   -5.5211 C   0  0  0  0  0  0  0  0  0  0  0  0
   41.4081   13.9130   -6.8240 C   0  0  0  0  0  0  0  0  0  0  0  0
   40.4692   14.1807   -7.8055 C   0  0  0  0  0  0  0  0  0  0  0  0
 21 22  1  0  0  0
 22 20  1  0  0  0
 20 19  1  0  0  0
 19  5  1  0  0  0
  5  6  1  0  0  0
  6  7  1  0  0  0
  7  8  2  0  0  0
  7 10  1  0  0  0
 10 11  1  0  0  0
 11 12  2  0  0  0
 12 13  1  0  0  0
 13 14  2  0  0  0
 14 15  1  0  0  0
 14 16  1  0  0  0
 16 17  1  0  0  0
 16 18  2  0  0  0
  5  1  1  0  0  0
  1  2  2  0  0  0
  1  3  1  0  0  0
  3 23  1  0  0  0
 23 28  1  0  0  0
 28 29  1  0  0  0
 29 30  2  0  0  0
 30 31  1  0  0  0
 31 32  2  0  0  0
 32 33  1  0  0  0
 33 34  2  0  0  0
 32 35  1  0  0  0
 35 36  2  0  0  0
 36 37  1  0  0  0
 37 38  2  0  0  0
 38 39  1  0  0  0
 39 40  2  0  0  0
 23 24  1  0  0  0
 24 25  1  0  0  0
 24 26  2  0  0  0
 18 11  1  0  0  0
 34 29  1  0  0  0
 40 35  1  0  0  0
  6  9  1  0  0  0
  3  4  1  0  0  0
 25 27  1  0  0  0
M  END
> <minimizedAffinity>
-8.54577

> <CNNscore>
0.2402895242

> <CNNaffinity>
6.2509922981

> <CNN_VS>
1.5020480156

> <CNNaffinity_variance>
0.6315336823

$$$$
[H]OC(=O)[C@@]([H])(N([H])C(=O)[C@@]([H])(N([H])C(=O)C([H])([H])c1c([H])c([H])c(F)c(F)c1[H])C([H])([H])C([H])([H])C([H])([H])C([H])([H])[H])C([H])([H])c1c([H])c([H])c(-c2c([H])c([H])c([H])c([H])c2[H])c([H])c1[H]


 40 42  0  0  0  0  0  0  0  0999 V2000
   38.6013   16.1089   -9.6289 C   0  0  0  0  0  0  0  0  0  0  0  0
   38.3904   14.8700   -9.5441 O   0  0  0  0  0  0  0  0  0  0  0  0
   39.8227   16.7162   -9.9760 N   0  0  0  0  0  0  0  0  0  0  0  0
   39.8992   17.7376  -10.0389 H   0  0  0  0  0  0  0  0  0  0  0  0
   37.4325   16.9953   -9.3338 C   0  0  0  0  0  0  0  0  0  0  0  0
   36.2286   16.2185   -9.6707 N   0  0  0  0  0  0  0  0  0  0  0  0
   35.6488   16.2595  -10.9497 C   0  0  0  0  0  0  0  0  0  0  0  0
   36.2096   17.0038  -11.8228 O   0  0  0  0  0  0  0  0  0  0  0  0
   35.8385   15.6383   -8.8972 H   0  0  0  0  0  0  0  0  0  0  0  0
   34.4444   15.4921  -11.3136 C   0  0  0  0  0  0  0  0  0  0  0  0
   34.7127   14.4716  -12.3488 C   0  0  0  0  0  0  0  0  0  0  0  0
   33.9334   14.2658  -13.4664 C   0  0  0  0  0  0  0  0  0  0  0  0
   34.2139   13.3113  -14.4019 C   0  0  0  0  0  0  0  0  0  0  0  0
   35.3250   12.5061  -14.2375 C   0  0  0  0  0  0  0  0  0  0  0  0
   35.6313   11.5428  -15.1553 F   0  0  0  0  0  0  0  0  0  0  0  0
   36.1071   12.7077  -13.1226 C   0  0  0  0  0  0  0  0  0  0  0  0
   37.1962   11.9197  -12.9606 F   0  0  0  0  0  0  0  0  0  0  0  0
   35.8270   13.6736  -12.1721 C   0  0  0  0  0  0  0  0  0  0  0  0
   37.2999   17.2749   -7.8539 C   0  0  0  0  0  0  0  0  0  0  0  0
   37.8653   18.5851   -7.4005 C   0  0  0  0  0  0  0  0  0  0  0  0
   37.6052   20.9845   -8.0643 C   0  0  0  0  0  0  0  0  0  0  0  0
   37.6148   19.5632   -8.5698 C   0  0  0  0  0  0  0  0  0  0  0  0
   41.0108   15.9222  -10.2764 C   0  0  0  0  0  0  0  0  0  0  0  0
   41.9487   16.0356   -9.1606 C   0  0  0  0  0  0  0  0  0  0  0  0
   43.3023   16.2083   -9.3743 O   0  0  0  0  0  0  0  0  0  0  0  0
   41.5948   15.9797   -7.9434 O   0  0  0  0  0  0  0  0  0  0  0  0
   44.0262   15.7678   -8.8443 H   0  0  0  0  0  0  0  0  0  0  0  0
   41.5063   16.3862  -11.6082 C   0  0  0  0  0  0  0  0  0  0  0  0
   41.0994   15.4751  -12.6924 C   0  0  0  0  0  0  0  0  0  0  0  0
   39.8181   15.4148  -13.1926 C   0  0  0  0  0  0  0  0  0  0  0  0
   39.4645   14.5441  -14.2170 C   0  0  0  0  0  0  0  0  0  0  0  0
   40.4157   13.7134  -14.7545 C   0  0  0  0  0  0  0  0  0  0  0  0
   41.7026   13.7413  -14.2861 C   0  0  0  0  0  0  0  0  0  0  0  0
   42.0286   14.6277  -13.2547 C   0  0  0  0  0  0  0  0  0  0  0  0
   40.0501   12.8093  -15.8182 C   0  0  0  0  0  0  0  0  0  0  0  0
   38.8168   12.2043  -15.7999 C   0  0  0  0  0  0  0  0  0  0  0  0
   38.4895   11.3307  -16.8442 C   0  0  0  0  0  0  0  0  0  0  0  0
   39.4167   11.1035  -17.8619 C   0  0  0  0  0  0  0  0  0  0  0  0
   40.6530   11.7085  -17.8822 C   0  0  0  0  0  0  0  0  0  0  0  0
   40.9439   12.5658  -16.8349 C   0  0  0  0  0  0  0  0  0  0  0  0
 21 22  1  0  0  0
 22 20  1  0  0  0
 20 19  1  0  0  0
 19  5  1  0  0  0
  5  6  1  0  0  0
  6  7  1  0  0  0
  7  8  2  0  0  0
  7 10  1  0  0  0
 10 11  1  0  0  0
 11 12  2  0  0  0
 12 13  1  0  0  0
 13 14  2  0  0  0
 14 15  1  0  0  0
 14 16  1  0  0  0
 16 17  1  0  0  0
 16 18  2  0  0  0
  5  1  1  0  0  0
  1  2  2  0  0  0
  1  3  1  0  0  0
  3 23  1  0  0  0
 23 28  1  0  0  0
 28 29  1  0  0  0
 29 30  2  0  0  0
 30 31  1  0  0  0
 31 32  2  0  0  0
 32 33  1  0  0  0
 33 34  2  0  0  0
 32 35  1  0  0  0
 35 36  2  0  0  0
 36 37  1  0  0  0
 37 38  2  0  0  0
 38 39  1  0  0  0
 39 40  2  0  0  0
 23 24  1  0  0  0
 24 25  1  0  0  0
 24 26  2  0  0  0
 18 11  1  0  0  0
 34 29  1  0  0  0
 40 35  1  0  0  0
  6  9  1  0  0  0
  3  4  1  0  0  0
 25 27  1  0  0  0
M  END
> <minimizedAffinity>
-8.96460

> <CNNscore>
0.2237319946

> <CNNaffinity>
6.4619054794

> <CNN_VS>
1.4457349777

> <CNNaffinity_variance>
0.4150492251

$$$$
[H]OC(=O)[C@@]([H])(N([H])C(=O)[C@@]([H])(N([H])C(=O)C([H])([H])c1c([H])c([H])c(F)c(F)c1[H])C([H])([H])C([H])([H])C([H])([H])C([H])([H])[H])C([H])([H])c1c([H])c([H])c(-c2c([H])c([H])c([H])c([H])c2[H])c([H])c1[H]


 40 42  0  0  0  0  0  0  0  0999 V2000
   37.2936   15.0392  -11.1377 C   0  0  0  0  0  0  0  0  0  0  0  0
   36.7026   14.0180  -10.6966 O   0  0  0  0  0  0  0  0  0  0  0  0
   37.7831   16.1080  -10.3639 N   0  0  0  0  0  0  0  0  0  0  0  0
   38.2706   16.8944  -10.8078 H   0  0  0  0  0  0  0  0  0  0  0  0
   37.4847   15.0974  -12.6206 C   0  0  0  0  0  0  0  0  0  0  0  0
   38.6932   14.3102  -12.9133 N   0  0  0  0  0  0  0  0  0  0  0  0
   39.9144   14.9170  -13.2519 C   0  0  0  0  0  0  0  0  0  0  0  0
   39.9408   16.1929  -13.2975 O   0  0  0  0  0  0  0  0  0  0  0  0
   38.5801   13.2755  -12.8517 H   0  0  0  0  0  0  0  0  0  0  0  0
   41.1389   14.1529  -13.5493 C   0  0  0  0  0  0  0  0  0  0  0  0
   41.0874   13.4891  -14.8691 C   0  0  0  0  0  0  0  0  0  0  0  0
   39.9497   13.3555  -15.6348 C   0  0  0  0  0  0  0  0  0  0  0  0
   39.9416   12.7346  -16.8511 C   0  0  0  0  0  0  0  0  0  0  0  0
   41.1177   12.2105  -17.3529 C   0  0  0  0  0  0  0  0  0  0  0  0
   41.1415   11.5835  -18.5656 F   0  0  0  0  0  0  0  0  0  0  0  0
   42.2575   12.3414  -16.5919 C   0  0  0  0  0  0  0  0  0  0  0  0
   43.4106   11.8286  -17.0826 F   0  0  0  0  0  0  0  0  0  0  0  0
   42.2706   12.9698  -15.3591 C   0  0  0  0  0  0  0  0  0  0  0  0
   36.3777   14.3784  -13.3577 C   0  0  0  0  0  0  0  0  0  0  0  0
   36.7783   13.0910  -14.0090 C   0  0  0  0  0  0  0  0  0  0  0  0
   36.3773   12.0774  -16.2623 C   0  0  0  0  0  0  0  0  0  0  0  0
   35.7519   12.8715  -15.1425 C   0  0  0  0  0  0  0  0  0  0  0  0
   37.6349   16.1284   -8.9113 C   0  0  0  0  0  0  0  0  0  0  0  0
   36.3796   16.7980   -8.5744 C   0  0  0  0  0  0  0  0  0  0  0  0
   35.5642   17.3311   -9.5536 O   0  0  0  0  0  0  0  0  0  0  0  0
   35.9614   16.9387   -7.3848 O   0  0  0  0  0  0  0  0  0  0  0  0
   35.0749   18.1995   -9.4807 H   0  0  0  0  0  0  0  0  0  0  0  0
   38.8823   16.7454   -8.3655 C   0  0  0  0  0  0  0  0  0  0  0  0
   39.7564   15.7440   -7.7298 C   0  0  0  0  0  0  0  0  0  0  0  0
   40.8499   15.1858   -8.3530 C   0  0  0  0  0  0  0  0  0  0  0  0
   41.6565   14.2427   -7.7266 C   0  0  0  0  0  0  0  0  0  0  0  0
   41.3624   13.8482   -6.4453 C   0  0  0  0  0  0  0  0  0  0  0  0
   40.2836   14.3787   -5.7888 C   0  0  0  0  0  0  0  0  0  0  0  0
   39.4904   15.3255   -6.4446 C   0  0  0  0  0  0  0  0  0  0  0  0
   42.1990   12.8695   -5.7937 C   0  0  0  0  0  0  0  0  0  0  0  0
   43.2636   13.2868   -5.0321 C   0  0  0  0  0  0  0  0  0  0  0  0
   44.0590   12.3150   -4.4125 C   0  0  0  0  0  0  0  0  0  0  0  0
   43.7494   10.9655   -4.5857 C   0  0  0  0  0  0  0  0  0  0  0  0
   42.6833   10.5451   -5.3483 C   0  0  0  0  0  0  0  0  0  0  0  0
   41.9181   11.5317   -5.9463 C   0  0  0  0  0  0  0  0  0  0  0  0
 21 22  1  0  0  0
 22 20  1  0  0  0
 20 19  1  0  0  0
 19  5  1  0  0  0
  5  6  1  0  0  0
  6  7  1  0  0  0
  7  8  2  0  0  0
  7 10  1  0  0  0
 10 11  1  0  0  0
 11 12  2  0  0  0
 12 13  1  0  0  0
 13 14  2  0  0  0
 14 15  1  0  0  0
 14 16  1  0  0  0
 16 17  1  0  0  0
 16 18  2  0  0  0
  5  1  1  0  0  0
  1  2  2  0  0  0
  1  3  1  0  0  0
  3 23  1  0  0  0
 23 28  1  0  0  0
 28 29  1  0  0  0
 29 30  2  0  0  0
 30 31  1  0  0  0
 31 32  2  0  0  0
 32 33  1  0  0  0
 33 34  2  0  0  0
 32 35  1  0  0  0
 35 36  2  0  0  0
 36 37  1  0  0  0
 37 38  2  0  0  0
 38 39  1  0  0  0
 39 40  2  0  0  0
 23 24  1  0  0  0
 24 25  1  0  0  0
 24 26  2  0  0  0
 18 11  1  0  0  0
 34 29  1  0  0  0
 40 35  1  0  0  0
  6  9  1  0  0  0
  3  4  1  0  0  0
 25 27  1  0  0  0
M  END
> <minimizedAffinity>
-7.62959

> <CNNscore>
0.2073475718

> <CNNaffinity>
6.1258158684

> <CNN_VS>
1.2701730728

> <CNNaffinity_variance>
0.2843331099

$$$$
[H]OC([H])([H])[C@]1([H])O[C@@]([H])(n2c([H])c([H])c(=O)n([H])c2=S)[C@]([H])(O[H])[C@]1([H])O[H]


 21 22  0  0  0  0  0  0  0  0999 V2000
   36.9644   13.1311  -13.4304 C   0  0  0  0  0  0  0  0  0  0  0  0
   38.0452   12.3302  -13.6762 O   0  0  0  0  0  0  0  0  0  0  0  0
   39.0674   13.0782  -14.1932 C   0  0  0  0  0  0  0  0  0  0  0  0
   38.6164   14.5250  -14.2217 C   0  0  0  0  0  0  0  0  0  0  0  0
   39.6213   15.4188  -13.9693 O   0  0  0  0  0  0  0  0  0  0  0  0
   37.5816   14.4711  -13.0872 C   0  0  0  0  0  0  0  0  0  0  0  0
   38.2703   14.3825  -11.8737 O   0  0  0  0  0  0  0  0  0  0  0  0
   39.9768   15.8236  -14.8059 H   0  0  0  0  0  0  0  0  0  0  0  0
   38.7688   13.5209  -11.9130 H   0  0  0  0  0  0  0  0  0  0  0  0
   39.5157   12.6377  -15.4973 N   0  0  0  0  0  0  0  0  0  0  0  0
   38.6356   12.1128  -16.3680 C   0  0  0  0  0  0  0  0  0  0  0  0
   39.0387   11.6790  -17.6335 C   0  0  0  0  0  0  0  0  0  0  0  0
   40.3563   11.7973  -17.9781 C   0  0  0  0  0  0  0  0  0  0  0  0
   40.7796   11.4249  -19.1022 O   0  0  0  0  0  0  0  0  0  0  0  0
   41.2306   12.3248  -17.0982 N   0  0  0  0  0  0  0  0  0  0  0  0
   40.8024   12.7368  -15.8742 C   0  0  0  0  0  0  0  0  0  0  0  0
   41.8564   13.3811  -14.7929 S   0  0  0  0  0  0  0  0  0  0  0  0
   42.2190   12.4089  -17.3683 H   0  0  0  0  0  0  0  0  0  0  0  0
   35.5777   13.6242  -11.5240 O   0  0  0  0  0  0  0  0  0  0  0  0
   36.0515   12.6305  -12.3459 C   0  0  0  0  0  0  0  0  0  0  0  0
   35.1167   13.2285  -10.7619 H   0  0  0  0  0  0  0  0  0  0  0  0
 19 20  1  0  0  0
 20  1  1  0  0  0
  1  2  1  0  0  0
  2  3  1  0  0  0
  3  4  1  0  0  0
  4  5  1  0  0  0
  4  6  1  0  0  0
  6  7  1  0  0  0
  3 10  1  0  0  0
 10 11  1  0  0  0
 11 12  2  0  0  0
 12 13  1  0  0  0
 13 14  2  0  0  0
 13 15  1  0  0  0
 15 16  1  0  0  0
 16 17  2  0  0  0
  6  1  1  0  0  0
 16 10  1  0  0  0
 19 21  1  0  0  0
  5  8  1  0  0  0
  7  9  1  0  0  0
 15 18  1  0  0  0
M  END
> <minimizedAffinity>
-6.87119

> <CNNscore>
0.8725442290

> <CNNaffinity>
4.9288535118

> <CNN_VS>
4.3006424904

> <CNNaffinity_variance>
0.1104044691

$$$$
[H]OC([H])([H])[C@]1([H])O[C@@]([H])(n2c([H])c([H])c(=O)n([H])c2=S)[C@]([H])(O[H])[C@]1([H])O[H]


 21 22  0  0  0  0  0  0  0  0999 V2000
   35.5553   13.7660  -14.6731 C   0  0  0  0  0  0  0  0  0  0  0  0
   35.8070   12.8023  -15.6100 O   0  0  0  0  0  0  0  0  0  0  0  0
   36.8184   11.9890  -15.1773 C   0  0  0  0  0  0  0  0  0  0  0  0
   37.2142   12.4399  -13.7854 C   0  0  0  0  0  0  0  0  0  0  0  0
   37.5827   11.4131  -12.9593 O   0  0  0  0  0  0  0  0  0  0  0  0
   35.8861   13.0855  -13.3608 C   0  0  0  0  0  0  0  0  0  0  0  0
   34.9663   12.0632  -13.1084 O   0  0  0  0  0  0  0  0  0  0  0  0
   38.5718   11.3288  -12.8904 H   0  0  0  0  0  0  0  0  0  0  0  0
   34.8464   11.5923  -13.9781 H   0  0  0  0  0  0  0  0  0  0  0  0
   37.9607   11.9496  -16.0657 N   0  0  0  0  0  0  0  0  0  0  0  0
   39.0638   12.6607  -15.7731 C   0  0  0  0  0  0  0  0  0  0  0  0
   40.1817   12.6424  -16.6112 C   0  0  0  0  0  0  0  0  0  0  0  0
   40.1373   11.8822  -17.7465 C   0  0  0  0  0  0  0  0  0  0  0  0
   41.1113   11.8252  -18.5400 O   0  0  0  0  0  0  0  0  0  0  0  0
   39.0269   11.1731  -18.0309 N   0  0  0  0  0  0  0  0  0  0  0  0
   37.9569   11.2147  -17.1916 C   0  0  0  0  0  0  0  0  0  0  0  0
   36.5982   10.3560  -17.5256 S   0  0  0  0  0  0  0  0  0  0  0  0
   39.0050   10.6049  -18.8875 H   0  0  0  0  0  0  0  0  0  0  0  0
   33.6997   14.7127  -13.4643 O   0  0  0  0  0  0  0  0  0  0  0  0
   34.1527   14.3065  -14.6962 C   0  0  0  0  0  0  0  0  0  0  0  0
   32.7472   14.9128  -13.5140 H   0  0  0  0  0  0  0  0  0  0  0  0
 19 20  1  0  0  0
 20  1  1  0  0  0
  1  2  1  0  0  0
  2  3  1  0  0  0
  3  4  1  0  0  0
  4  5  1  0  0  0
  4  6  1  0  0  0
  6  7  1  0  0  0
  3 10  1  0  0  0
 10 11  1  0  0  0
 11 12  2  0  0  0
 12 13  1  0  0  0
 13 14  2  0  0  0
 13 15  1  0  0  0
 15 16  1  0  0  0
 16 17  2  0  0  0
  6  1  1  0  0  0
 16 10  1  0  0  0
 19 21  1  0  0  0
  5  8  1  0  0  0
  7  9  1  0  0  0
 15 18  1  0  0  0
M  END
> <minimizedAffinity>
-6.50543

> <CNNscore>
0.7464634776

> <CNNaffinity>
5.2976694107

> <CNN_VS>
3.9545166492

> <CNNaffinity_variance>
0.1867673099

$$$$
[H]OC([H])([H])[C@]1([H])O[C@@]([H])(n2c([H])c([H])c(=O)n([H])c2=S)[C@]([H])(O[H])[C@]1([H])O[H]


 21 22  0  0  0  0  0  0  0  0999 V2000
   34.9638   12.3512  -15.0967 C   0  0  0  0  0  0  0  0  0  0  0  0
   36.1013   12.0078  -14.4197 O   0  0  0  0  0  0  0  0  0  0  0  0
   36.8217   13.1328  -14.1247 C   0  0  0  0  0  0  0  0  0  0  0  0
   36.0298   14.3317  -14.6072 C   0  0  0  0  0  0  0  0  0  0  0  0
   36.1549   15.4323  -13.8038 O   0  0  0  0  0  0  0  0  0  0  0  0
   34.6208   13.7215  -14.5498 C   0  0  0  0  0  0  0  0  0  0  0  0
   34.2453   13.6190  -13.2069 O   0  0  0  0  0  0  0  0  0  0  0  0
   36.8057   16.0887  -14.1720 H   0  0  0  0  0  0  0  0  0  0  0  0
   34.8992   12.9904  -12.7950 H   0  0  0  0  0  0  0  0  0  0  0  0
   38.1630   13.1304  -14.6692 N   0  0  0  0  0  0  0  0  0  0  0  0
   38.4274   12.4528  -15.8001 C   0  0  0  0  0  0  0  0  0  0  0  0
   39.7120   12.4321  -16.3494 C   0  0  0  0  0  0  0  0  0  0  0  0
   40.7081   13.1189  -15.7130 C   0  0  0  0  0  0  0  0  0  0  0  0
   41.8841   13.1380  -16.1585 O   0  0  0  0  0  0  0  0  0  0  0  0
   40.4328   13.7950  -14.5800 N   0  0  0  0  0  0  0  0  0  0  0  0
   39.1699   13.7930  -14.0737 C   0  0  0  0  0  0  0  0  0  0  0  0
   38.8207   14.6123  -12.6946 S   0  0  0  0  0  0  0  0  0  0  0  0
   41.1899   14.3080  -14.1101 H   0  0  0  0  0  0  0  0  0  0  0  0
   33.2752   10.9859  -16.1384 O   0  0  0  0  0  0  0  0  0  0  0  0
   33.8292   11.3770  -14.9435 C   0  0  0  0  0  0  0  0  0  0  0  0
   32.4610   10.4768  -15.9721 H   0  0  0  0  0  0  0  0  0  0  0  0
 19 20  1  0  0  0
 20  1  1  0  0  0
  1  2  1  0  0  0
  2  3  1  0  0  0
  3  4  1  0  0  0
  4  5  1  0  0  0
  4  6  1  0  0  0
  6  7  1  0  0  0
  3 10  1  0  0  0
 10 11  1  0  0  0
 11 12  2  0  0  0
 12 13  1  0  0  0
 13 14  2  0  0  0
 13 15  1  0  0  0
 15 16  1  0  0  0
 16 17  2  0  0  0
  6  1  1  0  0  0
 16 10  1  0  0  0
 19 21  1  0  0  0
  5  8  1  0  0  0
  7  9  1  0  0  0
 15 18  1  0  0  0
M  END
> <minimizedAffinity>
-6.00796

> <CNNscore>
0.4556436241

> <CNNaffinity>
4.7549524307

> <CNN_VS>
2.1665637493

> <CNNaffinity_variance>
0.2409922630

$$$$
[H]OC([H])([H])[C@]1([H])O[C@@]([H])(n2c([H])c([H])c(=O)n([H])c2=S)[C@]([H])(O[H])[C@]1([H])O[H]


 21 22  0  0  0  0  0  0  0  0999 V2000
   34.9640   13.9477  -13.0324 C   0  0  0  0  0  0  0  0  0  0  0  0
   35.4608   14.1758  -14.2859 O   0  0  0  0  0  0  0  0  0  0  0  0
   35.3751   13.0327  -15.0326 C   0  0  0  0  0  0  0  0  0  0  0  0
   34.6907   11.9762  -14.1885 C   0  0  0  0  0  0  0  0  0  0  0  0
   33.8835   11.1368  -14.9070 O   0  0  0  0  0  0  0  0  0  0  0  0
   33.8925   12.9007  -13.2563 C   0  0  0  0  0  0  0  0  0  0  0  0
   32.8350   13.4492  -13.9882 O   0  0  0  0  0  0  0  0  0  0  0  0
   34.3292   10.2684  -15.1003 H   0  0  0  0  0  0  0  0  0  0  0  0
   33.2617   13.9884  -14.7090 H   0  0  0  0  0  0  0  0  0  0  0  0
   36.6487   12.5642  -15.5368 N   0  0  0  0  0  0  0  0  0  0  0  0
   37.7861   12.8983  -14.9023 C   0  0  0  0  0  0  0  0  0  0  0  0
   39.0298   12.4611  -15.3652 C   0  0  0  0  0  0  0  0  0  0  0  0
   39.0743   11.6795  -16.4860 C   0  0  0  0  0  0  0  0  0  0  0  0
   40.1631   11.2554  -16.9509 O   0  0  0  0  0  0  0  0  0  0  0  0
   37.9285   11.3502  -17.1148 N   0  0  0  0  0  0  0  0  0  0  0  0
   36.7350   11.7941  -16.6355 C   0  0  0  0  0  0  0  0  0  0  0  0
   35.3319   11.4005  -17.3915 S   0  0  0  0  0  0  0  0  0  0  0  0
   37.9742   10.7619  -17.9567 H   0  0  0  0  0  0  0  0  0  0  0  0
   33.1565   15.5111  -12.7336 O   0  0  0  0  0  0  0  0  0  0  0  0
   34.4288   15.1712  -12.3420 C   0  0  0  0  0  0  0  0  0  0  0  0
   32.9221   16.3836  -12.3679 H   0  0  0  0  0  0  0  0  0  0  0  0
 19 20  1  0  0  0
 20  1  1  0  0  0
  1  2  1  0  0  0
  2  3  1  0  0  0
  3  4  1  0  0  0
  4  5  1  0  0  0
  4  6  1  0  0  0
  6  7  1  0  0  0
  3 10  1  0  0  0
 10 11  1  0  0  0
 11 12  2  0  0  0
 12 13  1  0  0  0
 13 14  2  0  0  0
 13 15  1  0  0  0
 15 16  1  0  0  0
 16 17  2  0  0  0
  6  1  1  0  0  0
 16 10  1  0  0  0
 19 21  1  0  0  0
  5  8  1  0  0  0
  7  9  1  0  0  0
 15 18  1  0  0  0
M  END
> <minimizedAffinity>
-6.01712

> <CNNscore>
0.4109159410

> <CNNaffinity>
4.4993867874

> <CNN_VS>
1.8488698006

> <CNNaffinity_variance>
0.1825049222

$$$$
[H]OC([H])([H])[C@]1([H])O[C@@]([H])(n2c([H])c([H])c(=O)n([H])c2=S)[C@]([H])(O[H])[C@]1([H])O[H]


 21 22  0  0  0  0  0  0  0  0999 V2000
   38.5005   14.2521  -13.4976 C   0  0  0  0  0  0  0  0  0  0  0  0
   37.3829   14.5978  -14.2056 O   0  0  0  0  0  0  0  0  0  0  0  0
   36.2671   14.1324  -13.5653 C   0  0  0  0  0  0  0  0  0  0  0  0
   36.7124   13.4734  -12.2750 C   0  0  0  0  0  0  0  0  0  0  0  0
   35.8332   13.6418  -11.2402 O   0  0  0  0  0  0  0  0  0  0  0  0
   38.0252   14.2421  -12.0593 C   0  0  0  0  0  0  0  0  0  0  0  0
   37.7071   15.5414  -11.6529 O   0  0  0  0  0  0  0  0  0  0  0  0
   35.2612   12.8389  -11.1046 H   0  0  0  0  0  0  0  0  0  0  0  0
   37.2054   15.9431  -12.4142 H   0  0  0  0  0  0  0  0  0  0  0  0
   35.4616   13.2357  -14.3670 N   0  0  0  0  0  0  0  0  0  0  0  0
   36.0515   12.4115  -15.2506 C   0  0  0  0  0  0  0  0  0  0  0  0
   35.3004   11.5352  -16.0381 C   0  0  0  0  0  0  0  0  0  0  0  0
   33.9408   11.5275  -15.8957 C   0  0  0  0  0  0  0  0  0  0  0  0
   33.2112   10.7616  -16.5759 O   0  0  0  0  0  0  0  0  0  0  0  0
   33.3590   12.3575  -15.0072 N   0  0  0  0  0  0  0  0  0  0  0  0
   34.1221   13.1977  -14.2570 C   0  0  0  0  0  0  0  0  0  0  0  0
   33.4267   14.2137  -13.1711 S   0  0  0  0  0  0  0  0  0  0  0  0
   32.3357   12.3430  -14.9087 H   0  0  0  0  0  0  0  0  0  0  0  0
   39.7694   16.1611  -12.7585 O   0  0  0  0  0  0  0  0  0  0  0  0
   39.6758   15.1669  -13.7022 C   0  0  0  0  0  0  0  0  0  0  0  0
   40.4542   16.8021  -13.0232 H   0  0  0  0  0  0  0  0  0  0  0  0
 19 20  1  0  0  0
 20  1  1  0  0  0
  1  2  1  0  0  0
  2  3  1  0  0  0
  3  4  1  0  0  0
  4  5  1  0  0  0
  4  6  1  0  0  0
  6  7  1  0  0  0
  3 10  1  0  0  0
 10 11  1  0  0  0
 11 12  2  0  0  0
 12 13  1  0  0  0
 13 14  2  0  0  0
 13 15  1  0  0  0
 15 16  1  0  0  0
 16 17  2  0  0  0
  6  1  1  0  0  0
 16 10  1  0  0  0
 19 21  1  0  0  0
  5  8  1  0  0  0
  7  9  1  0  0  0
 15 18  1  0  0  0
M  END
> <minimizedAffinity>
-6.58042

> <CNNscore>
0.4038783014

> <CNNaffinity>
4.5718259811

> <CNN_VS>
1.8464612961

> <CNNaffinity_variance>
0.1236363649

$$$$
[H]OC([H])([H])[C@]1([H])O[C@@]([H])(n2c([H])c([H])c(=O)n([H])c2=S)[C@]([H])(O[H])[C@]1([H])O[H]


 21 22  0  0  0  0  0  0  0  0999 V2000
   35.2621   16.2015   -7.0530 C   0  0  0  0  0  0  0  0  0  0  0  0
   34.5585   15.6821   -8.1043 O   0  0  0  0  0  0  0  0  0  0  0  0
   33.2853   16.1825   -8.1014 C   0  0  0  0  0  0  0  0  0  0  0  0
   33.1802   17.1793   -6.9644 C   0  0  0  0  0  0  0  0  0  0  0  0
   32.3695   18.2460   -7.2421 O   0  0  0  0  0  0  0  0  0  0  0  0
   34.6605   17.5788   -6.8643 C   0  0  0  0  0  0  0  0  0  0  0  0
   34.9680   18.3883   -7.9620 O   0  0  0  0  0  0  0  0  0  0  0  0
   31.4662   18.1409   -6.8383 H   0  0  0  0  0  0  0  0  0  0  0  0
   34.8302   17.8132   -8.7637 H   0  0  0  0  0  0  0  0  0  0  0  0
   32.2562   15.1682   -8.0129 N   0  0  0  0  0  0  0  0  0  0  0  0
   32.1079   14.4590   -6.8801 C   0  0  0  0  0  0  0  0  0  0  0  0
   31.1238   13.4738   -6.7651 C   0  0  0  0  0  0  0  0  0  0  0  0
   30.3041   13.2383   -7.8335 C   0  0  0  0  0  0  0  0  0  0  0  0
   29.4002   12.3650   -7.7908 O   0  0  0  0  0  0  0  0  0  0  0  0
   30.4609   13.9545   -8.9645 N   0  0  0  0  0  0  0  0  0  0  0  0
   31.4302   14.9063   -9.0408 C   0  0  0  0  0  0  0  0  0  0  0  0
   31.6321   15.7860  -10.4121 S   0  0  0  0  0  0  0  0  0  0  0  0
   29.8385   13.7687   -9.7615 H   0  0  0  0  0  0  0  0  0  0  0  0
   37.3244   17.4262   -6.8353 O   0  0  0  0  0  0  0  0  0  0  0  0
   36.7497   16.2543   -7.2639 C   0  0  0  0  0  0  0  0  0  0  0  0
   38.2532   17.4631   -7.1282 H   0  0  0  0  0  0  0  0  0  0  0  0
 19 20  1  0  0  0
 20  1  1  0  0  0
  1  2  1  0  0  0
  2  3  1  0  0  0
  3  4  1  0  0  0
  4  5  1  0  0  0
  4  6  1  0  0  0
  6  7  1  0  0  0
  3 10  1  0  0  0
 10 11  1  0  0  0
 11 12  2  0  0  0
 12 13  1  0  0  0
 13 14  2  0  0  0
 13 15  1  0  0  0
 15 16  1  0  0  0
 16 17  2  0  0  0
  6  1  1  0  0  0
 16 10  1  0  0  0
 19 21  1  0  0  0
  5  8  1  0  0  0
  7  9  1  0  0  0
 15 18  1  0  0  0
M  END
> <minimizedAffinity>
-4.40845

> <CNNscore>
0.3838531971

> <CNNaffinity>
3.6809437275

> <CNN_VS>
1.4129420519

> <CNNaffinity_variance>
0.7112131119

$$$$
[H]OC([H])([H])[C@]1([H])O[C@@]([H])(n2c([H])c([H])c(=O)n([H])c2=S)[C@]([H])(O[H])[C@]1([H])O[H]


 21 22  0  0  0  0  0  0  0  0999 V2000
   35.4964   13.9260  -14.2448 C   0  0  0  0  0  0  0  0  0  0  0  0
   36.1639   13.2871  -15.2529 O   0  0  0  0  0  0  0  0  0  0  0  0
   37.0697   12.4087  -14.7242 C   0  0  0  0  0  0  0  0  0  0  0  0
   36.9222   12.4404  -13.2160 C   0  0  0  0  0  0  0  0  0  0  0  0
   37.1239   11.2260  -12.6187 O   0  0  0  0  0  0  0  0  0  0  0  0
   35.4580   12.8984  -13.1325 C   0  0  0  0  0  0  0  0  0  0  0  0
   34.6440   11.8239  -13.5035 O   0  0  0  0  0  0  0  0  0  0  0  0
   38.0367   11.1505  -12.2299 H   0  0  0  0  0  0  0  0  0  0  0  0
   34.8793   11.6266  -14.4512 H   0  0  0  0  0  0  0  0  0  0  0  0
   38.4368   12.6615  -15.1278 N   0  0  0  0  0  0  0  0  0  0  0  0
   39.2217   13.4567  -14.3797 C   0  0  0  0  0  0  0  0  0  0  0  0
   40.5450   13.7190  -14.7437 C   0  0  0  0  0  0  0  0  0  0  0  0
   41.0361   13.1488  -15.8850 C   0  0  0  0  0  0  0  0  0  0  0  0
   42.2185   13.3471  -16.2647 O   0  0  0  0  0  0  0  0  0  0  0  0
   40.2413   12.3533  -16.6280 N   0  0  0  0  0  0  0  0  0  0  0  0
   38.9573   12.1200  -16.2429 C   0  0  0  0  0  0  0  0  0  0  0  0
   37.9783   11.1531  -17.1383 S   0  0  0  0  0  0  0  0  0  0  0  0
   40.6215   11.9298  -17.4843 H   0  0  0  0  0  0  0  0  0  0  0  0
   33.3340   14.7123  -13.5333 O   0  0  0  0  0  0  0  0  0  0  0  0
   34.1238   14.4133  -14.6170 C   0  0  0  0  0  0  0  0  0  0  0  0
   32.4203   14.8793  -13.8287 H   0  0  0  0  0  0  0  0  0  0  0  0
 19 20  1  0  0  0
 20  1  1  0  0  0
  1  2  1  0  0  0
  2  3  1  0  0  0
  3  4  1  0  0  0
  4  5  1  0  0  0
  4  6  1  0  0  0
  6  7  1  0  0  0
  3 10  1  0  0  0
 10 11  1  0  0  0
 11 12  2  0  0  0
 12 13  1  0  0  0
 13 14  2  0  0  0
 13 15  1  0  0  0
 15 16  1  0  0  0
 16 17  2  0  0  0
  6  1  1  0  0  0
 16 10  1  0  0  0
 19 21  1  0  0  0
  5  8  1  0  0  0
  7  9  1  0  0  0
 15 18  1  0  0  0
M  END
> <minimizedAffinity>
-5.57502

> <CNNscore>
0.3643532097

> <CNNaffinity>
4.5264024734

> <CNN_VS>
1.6492092609

> <CNNaffinity_variance>
0.1950055510

$$$$
[H]OC([H])([H])[C@]1([H])O[C@@]([H])(n2c([H])c([H])c(=O)n([H])c2=S)[C@]([H])(O[H])[C@]1([H])O[H]


 21 22  0  0  0  0  0  0  0  0999 V2000
   36.3621   13.9334  -11.6764 C   0  0  0  0  0  0  0  0  0  0  0  0
   37.3390   14.2571  -12.5768 O   0  0  0  0  0  0  0  0  0  0  0  0
   36.8182   14.2646  -13.8419 C   0  0  0  0  0  0  0  0  0  0  0  0
   35.3336   13.9784  -13.7351 C   0  0  0  0  0  0  0  0  0  0  0  0
   34.5771   14.6494  -14.6570 O   0  0  0  0  0  0  0  0  0  0  0  0
   35.0987   14.4855  -12.3038 C   0  0  0  0  0  0  0  0  0  0  0  0
   35.1470   15.8826  -12.3236 O   0  0  0  0  0  0  0  0  0  0  0  0
   34.3307   14.0700  -15.4275 H   0  0  0  0  0  0  0  0  0  0  0  0
   36.0721   16.1129  -12.6125 H   0  0  0  0  0  0  0  0  0  0  0  0
   37.4705   13.3456  -14.7505 N   0  0  0  0  0  0  0  0  0  0  0  0
   36.7576   12.3779  -15.3534 C   0  0  0  0  0  0  0  0  0  0  0  0
   37.3594   11.4764  -16.2351 C   0  0  0  0  0  0  0  0  0  0  0  0
   38.6994   11.5937  -16.4791 C   0  0  0  0  0  0  0  0  0  0  0  0
   39.2975   10.8126  -17.2625 O   0  0  0  0  0  0  0  0  0  0  0  0
   39.4051   12.5670  -15.8697 N   0  0  0  0  0  0  0  0  0  0  0  0
   38.7858   13.4273  -15.0168 C   0  0  0  0  0  0  0  0  0  0  0  0
   39.6332   14.6174  -14.2680 S   0  0  0  0  0  0  0  0  0  0  0  0
   40.4123   12.6456  -16.0609 H   0  0  0  0  0  0  0  0  0  0  0  0
   35.4715   14.4259   -9.4935 O   0  0  0  0  0  0  0  0  0  0  0  0
   36.5900   14.4689  -10.2902 C   0  0  0  0  0  0  0  0  0  0  0  0
   35.6377   14.9149   -8.6670 H   0  0  0  0  0  0  0  0  0  0  0  0
 19 20  1  0  0  0
 20  1  1  0  0  0
  1  2  1  0  0  0
  2  3  1  0  0  0
  3  4  1  0  0  0
  4  5  1  0  0  0
  4  6  1  0  0  0
  6  7  1  0  0  0
  3 10  1  0  0  0
 10 11  1  0  0  0
 11 12  2  0  0  0
 12 13  1  0  0  0
 13 14  2  0  0  0
 13 15  1  0  0  0
 15 16  1  0  0  0
 16 17  2  0  0  0
  6  1  1  0  0  0
 16 10  1  0  0  0
 19 21  1  0  0  0
  5  8  1  0  0  0
  7  9  1  0  0  0
 15 18  1  0  0  0
M  END
> <minimizedAffinity>
-6.49694

> <CNNscore>
0.3173856735

> <CNNaffinity>
4.2358884811

> <CNN_VS>
1.3444103003

> <CNNaffinity_variance>
0.2141122073

$$$$
[H]OC([H])([H])[C@]1([H])O[C@@]([H])(n2c([H])c([H])c(=O)n([H])c2=S)[C@]([H])(O[H])[C@]1([H])O[H]


 21 22  0  0  0  0  0  0  0  0999 V2000
   35.1866   11.9462  -15.9498 C   0  0  0  0  0  0  0  0  0  0  0  0
   35.7889   11.8125  -14.7294 O   0  0  0  0  0  0  0  0  0  0  0  0
   35.1581   12.6080  -13.8124 C   0  0  0  0  0  0  0  0  0  0  0  0
   33.9851   13.2741  -14.5036 C   0  0  0  0  0  0  0  0  0  0  0  0
   32.8950   13.4443  -13.6944 O   0  0  0  0  0  0  0  0  0  0  0  0
   33.7394   12.2324  -15.6061 C   0  0  0  0  0  0  0  0  0  0  0  0
   33.1567   11.1056  -15.0181 O   0  0  0  0  0  0  0  0  0  0  0  0
   32.8337   14.3739  -13.3447 H   0  0  0  0  0  0  0  0  0  0  0  0
   33.8353   10.7595  -14.3761 H   0  0  0  0  0  0  0  0  0  0  0  0
   36.0257   13.5824  -13.1852 N   0  0  0  0  0  0  0  0  0  0  0  0
   35.5026   14.6933  -12.6374 C   0  0  0  0  0  0  0  0  0  0  0  0
   36.3147   15.6514  -12.0251 C   0  0  0  0  0  0  0  0  0  0  0  0
   37.6649   15.4406  -11.9905 C   0  0  0  0  0  0  0  0  0  0  0  0
   38.4473   16.2661  -11.4538 O   0  0  0  0  0  0  0  0  0  0  0  0
   38.1796   14.3238  -12.5425 N   0  0  0  0  0  0  0  0  0  0  0  0
   37.3583   13.4122  -13.1305 C   0  0  0  0  0  0  0  0  0  0  0  0
   37.9716   12.0477  -13.8065 S   0  0  0  0  0  0  0  0  0  0  0  0
   39.1965   14.1759  -12.5105 H   0  0  0  0  0  0  0  0  0  0  0  0
   36.5149   10.7304  -17.5493 O   0  0  0  0  0  0  0  0  0  0  0  0
   35.3320   10.7515  -16.8508 C   0  0  0  0  0  0  0  0  0  0  0  0
   36.4894   10.0214  -18.2174 H   0  0  0  0  0  0  0  0  0  0  0  0
 19 20  1  0  0  0
 20  1  1  0  0  0
  1  2  1  0  0  0
  2  3  1  0  0  0
  3  4  1  0  0  0
  4  5  1  0  0  0
  4  6  1  0  0  0
  6  7  1  0  0  0
  3 10  1  0  0  0
 10 11  1  0  0  0
 11 12  2  0  0  0
 12 13  1  0  0  0
 13 14  2  0  0  0
 13 15  1  0  0  0
 15 16  1  0  0  0
 16 17  2  0  0  0
  6  1  1  0  0  0
 16 10  1  0  0  0
 19 21  1  0  0  0
  5  8  1  0  0  0
  7  9  1  0  0  0
 15 18  1  0  0  0
M  END
> <minimizedAffinity>
-6.44947

> <CNNscore>
0.2800554633

> <CNNaffinity>
4.1784882545

> <CNN_VS>
1.1702084541

> <CNNaffinity_variance>
0.1714564115

$$$$
[H]O[C@@]1([H])C([H])([H])[C@@]([H])(O[H])[C@]([H])(C([H])([H])/C([H])=C(/[H])C([H])([H])/C([H])=C(/[H])C([H])([H])C([H])([H])C([H])([H])C([H])([H])C([H])([H])[H])[C@@]1([H])C([H])([H])/C([H])=C(/[H])C([H])([H])C([H])([H])C([H])([H])C(=O)C([H])([H])[H]


 29 29  0  0  0  0  0  0  0  0999 V2000
   35.1938   14.5003  -12.4708 C   0  0  0  0  0  0  0  0  0  0  0  0
   33.8288   15.0753  -12.2690 C   0  0  0  0  0  0  0  0  0  0  0  0
   33.5150   15.2018  -10.9106 O   0  0  0  0  0  0  0  0  0  0  0  0
   32.9153   14.0048  -12.8290 C   0  0  0  0  0  0  0  0  0  0  0  0
   33.6422   13.6779  -14.1299 C   0  0  0  0  0  0  0  0  0  0  0  0
   33.2654   12.4769  -14.6784 O   0  0  0  0  0  0  0  0  0  0  0  0
   35.1240   13.7030  -13.7380 C   0  0  0  0  0  0  0  0  0  0  0  0
   33.0177   16.0396  -10.7262 H   0  0  0  0  0  0  0  0  0  0  0  0
   32.2784   12.4302  -14.6541 H   0  0  0  0  0  0  0  0  0  0  0  0
   36.2947   15.5487  -12.5334 C   0  0  0  0  0  0  0  0  0  0  0  0
   38.4937   15.2206  -11.5272 C   0  0  0  0  0  0  0  0  0  0  0  0
   37.1988   15.3134  -11.4004 C   0  0  0  0  0  0  0  0  0  0  0  0
   39.2120   15.3377  -12.7989 C   0  0  0  0  0  0  0  0  0  0  0  0
   41.6118   15.0247  -13.0598 C   0  0  0  0  0  0  0  0  0  0  0  0
   40.6236   15.6496  -12.5021 C   0  0  0  0  0  0  0  0  0  0  0  0
   41.4635   13.9518  -14.0346 C   0  0  0  0  0  0  0  0  0  0  0  0
   42.8823   13.4048  -14.2881 C   0  0  0  0  0  0  0  0  0  0  0  0
   43.0151   13.0946  -15.7707 C   0  0  0  0  0  0  0  0  0  0  0  0
   45.3200   12.3480  -15.6076 C   0  0  0  0  0  0  0  0  0  0  0  0
   44.4189   13.4266  -16.1887 C   0  0  0  0  0  0  0  0  0  0  0  0
   35.6036   12.2631  -13.5068 C   0  0  0  0  0  0  0  0  0  0  0  0
   37.0294   12.2139  -13.1783 C   0  0  0  0  0  0  0  0  0  0  0  0
   37.9613   12.2750  -14.0987 C   0  0  0  0  0  0  0  0  0  0  0  0
   37.6519   12.3985  -15.5249 C   0  0  0  0  0  0  0  0  0  0  0  0
   38.4424   11.4215  -16.3780 C   0  0  0  0  0  0  0  0  0  0  0  0
   39.6622   12.1234  -16.9348 C   0  0  0  0  0  0  0  0  0  0  0  0
   39.9856   11.5802  -18.2813 C   0  0  0  0  0  0  0  0  0  0  0  0
   38.9572   10.9355  -19.1295 C   0  0  0  0  0  0  0  0  0  0  0  0
   41.1228   11.6581  -18.7178 O   0  0  0  0  0  0  0  0  0  0  0  0
 19 20  1  0  0  0
 20 18  1  0  0  0
 18 17  1  0  0  0
 17 16  1  0  0  0
 16 14  1  0  0  0
 14 15  2  0  0  0
 15 13  1  0  0  0
 13 11  1  0  0  0
 11 12  2  0  0  0
 12 10  1  0  0  0
 10  1  1  0  0  0
  1  2  1  0  0  0
  2  3  1  0  0  0
  2  4  1  0  0  0
  4  5  1  0  0  0
  5  6  1  0  0  0
  5  7  1  0  0  0
  7 21  1  0  0  0
 21 22  1  0  0  0
 22 23  2  0  0  0
 23 24  1  0  0  0
 24 25  1  0  0  0
 25 26  1  0  0  0
 26 27  1  0  0  0
 27 28  1  0  0  0
 27 29  2  0  0  0
  7  1  1  0  0  0
  3  8  1  0  0  0
  6  9  1  0  0  0
M  END
> <minimizedAffinity>
-6.91887

> <CNNscore>
0.5225161910

> <CNNaffinity>
6.8922224045

> <CNN_VS>
3.6012978554

> <CNNaffinity_variance>
0.0753178746

$$$$
[H]O[C@@]1([H])C([H])([H])[C@@]([H])(O[H])[C@]([H])(C([H])([H])/C([H])=C(/[H])C([H])([H])/C([H])=C(/[H])C([H])([H])C([H])([H])C([H])([H])C([H])([H])C([H])([H])[H])[C@@]1([H])C([H])([H])/C([H])=C(/[H])C([H])([H])C([H])([H])C([H])([H])C(=O)C([H])([H])[H]


 29 29  0  0  0  0  0  0  0  0999 V2000
   35.4064   13.9502  -13.1162 C   0  0  0  0  0  0  0  0  0  0  0  0
   34.5731   14.7635  -12.1788 C   0  0  0  0  0  0  0  0  0  0  0  0
   33.4429   15.2911  -12.8144 O   0  0  0  0  0  0  0  0  0  0  0  0
   35.4716   15.9360  -11.8444 C   0  0  0  0  0  0  0  0  0  0  0  0
   36.7862   15.2073  -11.5826 C   0  0  0  0  0  0  0  0  0  0  0  0
   37.8843   16.0305  -11.6267 O   0  0  0  0  0  0  0  0  0  0  0  0
   36.8250   14.1215  -12.6640 C   0  0  0  0  0  0  0  0  0  0  0  0
   32.6464   15.2675  -12.2241 H   0  0  0  0  0  0  0  0  0  0  0  0
   37.6732   16.8437  -11.1062 H   0  0  0  0  0  0  0  0  0  0  0  0
   35.0121   12.4814  -13.1657 C   0  0  0  0  0  0  0  0  0  0  0  0
   34.4976   12.0069  -15.5037 C   0  0  0  0  0  0  0  0  0  0  0  0
   34.0952   12.3044  -14.2991 C   0  0  0  0  0  0  0  0  0  0  0  0
   35.8989   11.8109  -15.8842 C   0  0  0  0  0  0  0  0  0  0  0  0
   37.0324   10.7387  -17.7524 C   0  0  0  0  0  0  0  0  0  0  0  0
   35.9293   11.0584  -17.1533 C   0  0  0  0  0  0  0  0  0  0  0  0
   38.3633   11.0734  -17.2623 C   0  0  0  0  0  0  0  0  0  0  0  0
   39.3446   10.6751  -18.3827 C   0  0  0  0  0  0  0  0  0  0  0  0
   40.2634   11.8561  -18.6529 C   0  0  0  0  0  0  0  0  0  0  0  0
   40.7008   13.9020  -17.4202 C   0  0  0  0  0  0  0  0  0  0  0  0
   40.7390   12.3843  -17.3298 C   0  0  0  0  0  0  0  0  0  0  0  0
   37.7148   14.5999  -13.8200 C   0  0  0  0  0  0  0  0  0  0  0  0
   38.6344   13.5513  -14.2647 C   0  0  0  0  0  0  0  0  0  0  0  0
   39.9344   13.6586  -14.1307 C   0  0  0  0  0  0  0  0  0  0  0  0
   40.5690   14.8320  -13.5261 C   0  0  0  0  0  0  0  0  0  0  0  0
   42.0717   14.6684  -13.3778 C   0  0  0  0  0  0  0  0  0  0  0  0
   42.5156   13.4427  -14.1468 C   0  0  0  0  0  0  0  0  0  0  0  0
   43.7819   13.7332  -14.8711 C   0  0  0  0  0  0  0  0  0  0  0  0
   44.1820   12.9734  -16.0775 C   0  0  0  0  0  0  0  0  0  0  0  0
   44.5253   14.6177  -14.4775 O   0  0  0  0  0  0  0  0  0  0  0  0
 19 20  1  0  0  0
 20 18  1  0  0  0
 18 17  1  0  0  0
 17 16  1  0  0  0
 16 14  1  0  0  0
 14 15  2  0  0  0
 15 13  1  0  0  0
 13 11  1  0  0  0
 11 12  2  0  0  0
 12 10  1  0  0  0
 10  1  1  0  0  0
  1  2  1  0  0  0
  2  3  1  0  0  0
  2  4  1  0  0  0
  4  5  1  0  0  0
  5  6  1  0  0  0
  5  7  1  0  0  0
  7 21  1  0  0  0
 21 22  1  0  0  0
 22 23  2  0  0  0
 23 24  1  0  0  0
 24 25  1  0  0  0
 25 26  1  0  0  0
 26 27  1  0  0  0
 27 28  1  0  0  0
 27 29  2  0  0  0
  7  1  1  0  0  0
  3  8  1  0  0  0
  6  9  1  0  0  0
M  END
> <minimizedAffinity>
-6.92974

> <CNNscore>
0.4776811600

> <CNNaffinity>
6.7451462746

> <CNN_VS>
3.2220292091

> <CNNaffinity_variance>
0.1958820522

$$$$
[H]O[C@@]1([H])C([H])([H])[C@@]([H])(O[H])[C@]([H])(C([H])([H])/C([H])=C(/[H])C([H])([H])/C([H])=C(/[H])C([H])([H])C([H])([H])C([H])([H])C([H])([H])C([H])([H])[H])[C@@]1([H])C([H])([H])/C([H])=C(/[H])C([H])([H])C([H])([H])C([H])([H])C(=O)C([H])([H])[H]


 29 29  0  0  0  0  0  0  0  0999 V2000
   35.6962   13.3293  -14.0869 C   0  0  0  0  0  0  0  0  0  0  0  0
   34.3393   13.4229  -13.4664 C   0  0  0  0  0  0  0  0  0  0  0  0
   33.3606   13.7608  -14.4085 O   0  0  0  0  0  0  0  0  0  0  0  0
   34.4678   14.6053  -12.5287 C   0  0  0  0  0  0  0  0  0  0  0  0
   35.8091   14.2905  -11.8734 C   0  0  0  0  0  0  0  0  0  0  0  0
   36.3797   15.3734  -11.2513 O   0  0  0  0  0  0  0  0  0  0  0  0
   36.6660   13.7606  -13.0288 C   0  0  0  0  0  0  0  0  0  0  0  0
   32.5153   13.2666  -14.2517 H   0  0  0  0  0  0  0  0  0  0  0  0
   35.6774   15.8205  -10.7187 H   0  0  0  0  0  0  0  0  0  0  0  0
   36.0310   11.9425  -14.6160 C   0  0  0  0  0  0  0  0  0  0  0  0
   37.2185   11.8990  -16.7476 C   0  0  0  0  0  0  0  0  0  0  0  0
   36.1056   12.0304  -16.0800 C   0  0  0  0  0  0  0  0  0  0  0  0
   38.5265   11.6485  -16.1366 C   0  0  0  0  0  0  0  0  0  0  0  0
   40.5237   12.1186  -17.4460 C   0  0  0  0  0  0  0  0  0  0  0  0
   39.4922   11.3693  -17.2169 C   0  0  0  0  0  0  0  0  0  0  0  0
   40.8603   13.3133  -16.6825 C   0  0  0  0  0  0  0  0  0  0  0  0
   42.0699   12.9338  -15.8053 C   0  0  0  0  0  0  0  0  0  0  0  0
   43.0454   12.1380  -16.6579 C   0  0  0  0  0  0  0  0  0  0  0  0
   44.4513   13.8595  -15.6800 C   0  0  0  0  0  0  0  0  0  0  0  0
   44.4327   12.4142  -16.1532 C   0  0  0  0  0  0  0  0  0  0  0  0
   37.5684   14.8922  -13.5408 C   0  0  0  0  0  0  0  0  0  0  0  0
   38.8846   14.3942  -13.9440 C   0  0  0  0  0  0  0  0  0  0  0  0
   39.9950   14.8400  -13.4077 C   0  0  0  0  0  0  0  0  0  0  0  0
   40.0078   15.8677  -12.3643 C   0  0  0  0  0  0  0  0  0  0  0  0
   41.3902   16.0761  -11.7706 C   0  0  0  0  0  0  0  0  0  0  0  0
   42.4313   15.5830  -12.7523 C   0  0  0  0  0  0  0  0  0  0  0  0
   43.4758   14.8066  -12.0320 C   0  0  0  0  0  0  0  0  0  0  0  0
   43.5686   13.3330  -12.1449 C   0  0  0  0  0  0  0  0  0  0  0  0
   44.2881   15.3800  -11.3240 O   0  0  0  0  0  0  0  0  0  0  0  0
 19 20  1  0  0  0
 20 18  1  0  0  0
 18 17  1  0  0  0
 17 16  1  0  0  0
 16 14  1  0  0  0
 14 15  2  0  0  0
 15 13  1  0  0  0
 13 11  1  0  0  0
 11 12  2  0  0  0
 12 10  1  0  0  0
 10  1  1  0  0  0
  1  2  1  0  0  0
  2  3  1  0  0  0
  2  4  1  0  0  0
  4  5  1  0  0  0
  5  6  1  0  0  0
  5  7  1  0  0  0
  7 21  1  0  0  0
 21 22  1  0  0  0
 22 23  2  0  0  0
 23 24  1  0  0  0
 24 25  1  0  0  0
 25 26  1  0  0  0
 26 27  1  0  0  0
 27 28  1  0  0  0
 27 29  2  0  0  0
  7  1  1  0  0  0
  3  8  1  0  0  0
  6  9  1  0  0  0
M  END
> <minimizedAffinity>
-6.59563

> <CNNscore>
0.3601349294

> <CNNaffinity>
6.4227967262

> <CNN_VS>
2.3130733967

> <CNNaffinity_variance>
0.2924240828

$$$$
[H]O[C@@]1([H])C([H])([H])[C@@]([H])(O[H])[C@]([H])(C([H])([H])/C([H])=C(/[H])C([H])([H])/C([H])=C(/[H])C([H])([H])C([H])([H])C([H])([H])C([H])([H])C([H])([H])[H])[C@@]1([H])C([H])([H])/C([H])=C(/[H])C([H])([H])C([H])([H])C([H])([H])C(=O)C([H])([H])[H]


 29 29  0  0  0  0  0  0  0  0999 V2000
   37.5640   15.8545  -10.2741 C   0  0  0  0  0  0  0  0  0  0  0  0
   37.0352   15.5698   -8.9052 C   0  0  0  0  0  0  0  0  0  0  0  0
   37.7858   14.5839   -8.2540 O   0  0  0  0  0  0  0  0  0  0  0  0
   35.6716   14.9697   -9.1781 C   0  0  0  0  0  0  0  0  0  0  0  0
   35.1502   15.9427  -10.2312 C   0  0  0  0  0  0  0  0  0  0  0  0
   34.0909   15.4497  -10.9524 O   0  0  0  0  0  0  0  0  0  0  0  0
   36.3752   16.2242  -11.1086 C   0  0  0  0  0  0  0  0  0  0  0  0
   37.9030   14.7893   -7.2910 H   0  0  0  0  0  0  0  0  0  0  0  0
   33.4539   15.0443  -10.3147 H   0  0  0  0  0  0  0  0  0  0  0  0
   38.6251   16.9446  -10.3041 C   0  0  0  0  0  0  0  0  0  0  0  0
   40.8669   16.0666  -10.7032 C   0  0  0  0  0  0  0  0  0  0  0  0
   39.8948   16.3421   -9.8782 C   0  0  0  0  0  0  0  0  0  0  0  0
   40.8253   16.3181  -12.1461 C   0  0  0  0  0  0  0  0  0  0  0  0
   41.2580   14.5480  -13.7598 C   0  0  0  0  0  0  0  0  0  0  0  0
   41.6850   15.3200  -12.8113 C   0  0  0  0  0  0  0  0  0  0  0  0
   39.8988   14.5623  -14.2851 C   0  0  0  0  0  0  0  0  0  0  0  0
   39.6892   13.1957  -14.9670 C   0  0  0  0  0  0  0  0  0  0  0  0
   40.8649   12.9424  -15.8973 C   0  0  0  0  0  0  0  0  0  0  0  0
   39.8290   11.5840  -17.6230 C   0  0  0  0  0  0  0  0  0  0  0  0
   40.3534   12.9767  -17.3090 C   0  0  0  0  0  0  0  0  0  0  0  0
   36.2975   15.3513  -12.3692 C   0  0  0  0  0  0  0  0  0  0  0  0
   37.0301   14.0948  -12.2031 C   0  0  0  0  0  0  0  0  0  0  0  0
   36.6853   12.9964  -12.8310 C   0  0  0  0  0  0  0  0  0  0  0  0
   35.5441   12.9388  -13.7471 C   0  0  0  0  0  0  0  0  0  0  0  0
   35.9619   13.0443  -15.2036 C   0  0  0  0  0  0  0  0  0  0  0  0
   36.5431   11.7201  -15.6501 C   0  0  0  0  0  0  0  0  0  0  0  0
   35.7599   11.1868  -16.7967 C   0  0  0  0  0  0  0  0  0  0  0  0
   34.3248   10.8448  -16.6688 C   0  0  0  0  0  0  0  0  0  0  0  0
   36.2951   11.0194  -17.8809 O   0  0  0  0  0  0  0  0  0  0  0  0
 19 20  1  0  0  0
 20 18  1  0  0  0
 18 17  1  0  0  0
 17 16  1  0  0  0
 16 14  1  0  0  0
 14 15  2  0  0  0
 15 13  1  0  0  0
 13 11  1  0  0  0
 11 12  2  0  0  0
 12 10  1  0  0  0
 10  1  1  0  0  0
  1  2  1  0  0  0
  2  3  1  0  0  0
  2  4  1  0  0  0
  4  5  1  0  0  0
  5  6  1  0  0  0
  5  7  1  0  0  0
  7 21  1  0  0  0
 21 22  1  0  0  0
 22 23  2  0  0  0
 23 24  1  0  0  0
 24 25  1  0  0  0
 25 26  1  0  0  0
 26 27  1  0  0  0
 27 28  1  0  0  0
 27 29  2  0  0  0
  7  1  1  0  0  0
  3  8  1  0  0  0
  6  9  1  0  0  0
M  END
> <minimizedAffinity>
-6.34618

> <CNNscore>
0.3202488422

> <CNNaffinity>
6.1227231026

> <CNN_VS>
1.9607949257

> <CNNaffinity_variance>
0.4966218472

$$$$
[H]O[C@@]1([H])C([H])([H])[C@@]([H])(O[H])[C@]([H])(C([H])([H])/C([H])=C(/[H])C([H])([H])/C([H])=C(/[H])C([H])([H])C([H])([H])C([H])([H])C([H])([H])C([H])([H])[H])[C@@]1([H])C([H])([H])/C([H])=C(/[H])C([H])([H])C([H])([H])C([H])([H])C(=O)C([H])([H])[H]


 29 29  0  0  0  0  0  0  0  0999 V2000
   37.5049   14.4376  -12.8111 C   0  0  0  0  0  0  0  0  0  0  0  0
   37.4089   15.1409  -11.4954 C   0  0  0  0  0  0  0  0  0  0  0  0
   38.3772   14.6862  -10.5925 O   0  0  0  0  0  0  0  0  0  0  0  0
   36.0666   14.6896  -10.9582 C   0  0  0  0  0  0  0  0  0  0  0  0
   35.2035   14.8537  -12.2055 C   0  0  0  0  0  0  0  0  0  0  0  0
   34.0171   14.1654  -12.1423 O   0  0  0  0  0  0  0  0  0  0  0  0
   36.1057   14.3613  -13.3429 C   0  0  0  0  0  0  0  0  0  0  0  0
   38.7508   15.4285  -10.0516 H   0  0  0  0  0  0  0  0  0  0  0  0
   33.6167   14.3346  -11.2546 H   0  0  0  0  0  0  0  0  0  0  0  0
   38.4393   15.1184  -13.8003 C   0  0  0  0  0  0  0  0  0  0  0  0
   40.8210   14.8064  -13.3690 C   0  0  0  0  0  0  0  0  0  0  0  0
   39.6904   14.3499  -13.8324 C   0  0  0  0  0  0  0  0  0  0  0  0
   40.9941   16.1285  -12.7615 C   0  0  0  0  0  0  0  0  0  0  0  0
   42.4796   16.0402  -10.8353 C   0  0  0  0  0  0  0  0  0  0  0  0
   41.2854   15.9403  -11.3271 C   0  0  0  0  0  0  0  0  0  0  0  0
   43.6702   16.3454  -11.6180 C   0  0  0  0  0  0  0  0  0  0  0  0
   44.8721   16.0836  -10.6886 C   0  0  0  0  0  0  0  0  0  0  0  0
   45.3346   17.4163  -10.1215 C   0  0  0  0  0  0  0  0  0  0  0  0
   45.9277   18.3034   -7.9402 C   0  0  0  0  0  0  0  0  0  0  0  0
   44.8833   17.4918   -8.6910 C   0  0  0  0  0  0  0  0  0  0  0  0
   35.7287   12.9137  -13.6881 C   0  0  0  0  0  0  0  0  0  0  0  0
   35.4676   12.7492  -15.1191 C   0  0  0  0  0  0  0  0  0  0  0  0
   36.3251   12.1693  -15.9240 C   0  0  0  0  0  0  0  0  0  0  0  0
   37.6084   11.6397  -15.4574 C   0  0  0  0  0  0  0  0  0  0  0  0
   38.7719   12.0868  -16.3254 C   0  0  0  0  0  0  0  0  0  0  0  0
   38.8852   11.1618  -17.5179 C   0  0  0  0  0  0  0  0  0  0  0  0
   40.1720   11.4044  -18.2236 C   0  0  0  0  0  0  0  0  0  0  0  0
   41.3736   11.8918  -17.5085 C   0  0  0  0  0  0  0  0  0  0  0  0
   40.2615   11.2023  -19.4241 O   0  0  0  0  0  0  0  0  0  0  0  0
 19 20  1  0  0  0
 20 18  1  0  0  0
 18 17  1  0  0  0
 17 16  1  0  0  0
 16 14  1  0  0  0
 14 15  2  0  0  0
 15 13  1  0  0  0
 13 11  1  0  0  0
 11 12  2  0  0  0
 12 10  1  0  0  0
 10  1  1  0  0  0
  1  2  1  0  0  0
  2  3  1  0  0  0
  2  4  1  0  0  0
  4  5  1  0  0  0
  5  6  1  0  0  0
  5  7  1  0  0  0
  7 21  1  0  0  0
 21 22  1  0  0  0
 22 23  2  0  0  0
 23 24  1  0  0  0
 24 25  1  0  0  0
 25 26  1  0  0  0
 26 27  1  0  0  0
 27 28  1  0  0  0
 27 29  2  0  0  0
  7  1  1  0  0  0
  3  8  1  0  0  0
  6  9  1  0  0  0
M  END
> <minimizedAffinity>
-6.13347

> <CNNscore>
0.2898740172

> <CNNaffinity>
6.0333642960

> <CNN_VS>
1.7489155531

> <CNNaffinity_variance>
0.2671774030

$$$$
[H]O[C@@]1([H])C([H])([H])[C@@]([H])(O[H])[C@]([H])(C([H])([H])/C([H])=C(/[H])C([H])([H])/C([H])=C(/[H])C([H])([H])C([H])([H])C([H])([H])C([H])([H])C([H])([H])[H])[C@@]1([H])C([H])([H])/C([H])=C(/[H])C([H])([H])C([H])([H])C([H])([H])C(=O)C([H])([H])[H]


 29 29  0  0  0  0  0  0  0  0999 V2000
   38.4455   14.7113  -12.7118 C   0  0  0  0  0  0  0  0  0  0  0  0
   38.4972   15.5529  -11.4774 C   0  0  0  0  0  0  0  0  0  0  0  0
   39.2712   14.9562  -10.4751 O   0  0  0  0  0  0  0  0  0  0  0  0
   37.0641   15.5384  -10.9876 C   0  0  0  0  0  0  0  0  0  0  0  0
   36.3245   15.7912  -12.2978 C   0  0  0  0  0  0  0  0  0  0  0  0
   34.9938   15.4567  -12.2464 O   0  0  0  0  0  0  0  0  0  0  0  0
   37.0989   14.9551  -13.3231 C   0  0  0  0  0  0  0  0  0  0  0  0
   39.8132   15.6256   -9.9838 H   0  0  0  0  0  0  0  0  0  0  0  0
   34.6228   15.8221  -11.4063 H   0  0  0  0  0  0  0  0  0  0  0  0
   39.5656   15.0056  -13.6987 C   0  0  0  0  0  0  0  0  0  0  0  0
   41.3168   13.4365  -14.3523 C   0  0  0  0  0  0  0  0  0  0  0  0
   40.0507   13.7205  -14.2180 C   0  0  0  0  0  0  0  0  0  0  0  0
   42.4112   14.3477  -14.0075 C   0  0  0  0  0  0  0  0  0  0  0  0
   43.1697   14.4203  -11.6957 C   0  0  0  0  0  0  0  0  0  0  0  0
   43.1125   13.7987  -12.8308 C   0  0  0  0  0  0  0  0  0  0  0  0
   42.5614   15.7187  -11.4357 C   0  0  0  0  0  0  0  0  0  0  0  0
   42.7291   15.9749   -9.9247 C   0  0  0  0  0  0  0  0  0  0  0  0
   42.7153   14.6330   -9.2099 C   0  0  0  0  0  0  0  0  0  0  0  0
   41.3297   16.0145   -7.7718 C   0  0  0  0  0  0  0  0  0  0  0  0
   42.3387   14.8765   -7.7765 C   0  0  0  0  0  0  0  0  0  0  0  0
   36.3540   13.6326  -13.5536 C   0  0  0  0  0  0  0  0  0  0  0  0
   35.7571   13.5735  -14.8890 C   0  0  0  0  0  0  0  0  0  0  0  0
   36.2079   12.7688  -15.8211 C   0  0  0  0  0  0  0  0  0  0  0  0
   37.3402   11.8662  -15.6014 C   0  0  0  0  0  0  0  0  0  0  0  0
   37.8804   11.2855  -16.8968 C   0  0  0  0  0  0  0  0  0  0  0  0
   39.3741   11.5213  -16.9612 C   0  0  0  0  0  0  0  0  0  0  0  0
   39.8469   11.3785  -18.3643 C   0  0  0  0  0  0  0  0  0  0  0  0
   38.9375   10.9576  -19.4545 C   0  0  0  0  0  0  0  0  0  0  0  0
   41.0117   11.6101  -18.6463 O   0  0  0  0  0  0  0  0  0  0  0  0
 19 20  1  0  0  0
 20 18  1  0  0  0
 18 17  1  0  0  0
 17 16  1  0  0  0
 16 14  1  0  0  0
 14 15  2  0  0  0
 15 13  1  0  0  0
 13 11  1  0  0  0
 11 12  2  0  0  0
 12 10  1  0  0  0
 10  1  1  0  0  0
  1  2  1  0  0  0
  2  3  1  0  0  0
  2  4  1  0  0  0
  4  5  1  0  0  0
  5  6  1  0  0  0
  5  7  1  0  0  0
  7 21  1  0  0  0
 21 22  1  0  0  0
 22 23  2  0  0  0
 23 24  1  0  0  0
 24 25  1  0  0  0
 25 26  1  0  0  0
 26 27  1  0  0  0
 27 28  1  0  0  0
 27 29  2  0  0  0
  7  1  1  0  0  0
  3  8  1  0  0  0
  6  9  1  0  0  0
M  END
> <minimizedAffinity>
-6.09036

> <CNNscore>
0.2712705433

> <CNNaffinity>
6.1422605515

> <CNN_VS>
1.6662143469

> <CNNaffinity_variance>
0.2122658044

$$$$
[H]O[C@@]1([H])C([H])([H])[C@@]([H])(O[H])[C@]([H])(C([H])([H])/C([H])=C(/[H])C([H])([H])/C([H])=C(/[H])C([H])([H])C([H])([H])C([H])([H])C([H])([H])C([H])([H])[H])[C@@]1([H])C([H])([H])/C([H])=C(/[H])C([H])([H])C([H])([H])C([H])([H])C(=O)C([H])([H])[H]


 29 29  0  0  0  0  0  0  0  0999 V2000
   37.6872   15.2284  -10.6535 C   0  0  0  0  0  0  0  0  0  0  0  0
   38.9303   16.0538  -10.7427 C   0  0  0  0  0  0  0  0  0  0  0  0
   40.0518   15.3536  -10.2827 O   0  0  0  0  0  0  0  0  0  0  0  0
   38.6771   17.1702   -9.7510 C   0  0  0  0  0  0  0  0  0  0  0  0
   37.2435   17.5418  -10.1174 C   0  0  0  0  0  0  0  0  0  0  0  0
   36.6017   18.2660   -9.1432 O   0  0  0  0  0  0  0  0  0  0  0  0
   36.5704   16.1899  -10.3806 C   0  0  0  0  0  0  0  0  0  0  0  0
   40.8523   15.5392  -10.8377 H   0  0  0  0  0  0  0  0  0  0  0  0
   37.2192   18.9746   -8.8376 H   0  0  0  0  0  0  0  0  0  0  0  0
   37.4146   14.3987  -11.8995 C   0  0  0  0  0  0  0  0  0  0  0  0
   35.4273   14.2691  -13.3101 C   0  0  0  0  0  0  0  0  0  0  0  0
   35.9641   14.4027  -12.1288 C   0  0  0  0  0  0  0  0  0  0  0  0
   36.1875   14.0983  -14.5510 C   0  0  0  0  0  0  0  0  0  0  0  0
   36.8271   11.8493  -15.2275 C   0  0  0  0  0  0  0  0  0  0  0  0
   35.9072   12.7492  -15.0794 C   0  0  0  0  0  0  0  0  0  0  0  0
   38.2329   12.0460  -14.8985 C   0  0  0  0  0  0  0  0  0  0  0  0
   38.9632   12.2439  -16.2418 C   0  0  0  0  0  0  0  0  0  0  0  0
   38.5489   11.1205  -17.1789 C   0  0  0  0  0  0  0  0  0  0  0  0
   40.7335   11.8777  -17.9210 C   0  0  0  0  0  0  0  0  0  0  0  0
   39.4807   11.1335  -18.3567 C   0  0  0  0  0  0  0  0  0  0  0  0
   35.7814   15.7734   -9.1313 C   0  0  0  0  0  0  0  0  0  0  0  0
   34.3369   15.8859   -9.3411 C   0  0  0  0  0  0  0  0  0  0  0  0
   33.5040   16.1240   -8.3567 C   0  0  0  0  0  0  0  0  0  0  0  0
   33.9505   16.2976   -6.9727 C   0  0  0  0  0  0  0  0  0  0  0  0
   32.7974   16.5533   -6.0177 C   0  0  0  0  0  0  0  0  0  0  0  0
   31.6169   15.6983   -6.4252 C   0  0  0  0  0  0  0  0  0  0  0  0
   30.3739   16.5153   -6.4112 C   0  0  0  0  0  0  0  0  0  0  0  0
   30.4048   17.9848   -6.5916 C   0  0  0  0  0  0  0  0  0  0  0  0
   29.2891   15.9800   -6.2486 O   0  0  0  0  0  0  0  0  0  0  0  0
 19 20  1  0  0  0
 20 18  1  0  0  0
 18 17  1  0  0  0
 17 16  1  0  0  0
 16 14  1  0  0  0
 14 15  2  0  0  0
 15 13  1  0  0  0
 13 11  1  0  0  0
 11 12  2  0  0  0
 12 10  1  0  0  0
 10  1  1  0  0  0
  1  2  1  0  0  0
  2  3  1  0  0  0
  2  4  1  0  0  0
  4  5  1  0  0  0
  5  6  1  0  0  0
  5  7  1  0  0  0
  7 21  1  0  0  0
 21 22  1  0  0  0
 22 23  2  0  0  0
 23 24  1  0  0  0
 24 25  1  0  0  0
 25 26  1  0  0  0
 26 27  1  0  0  0
 27 28  1  0  0  0
 27 29  2  0  0  0
  7  1  1  0  0  0
  3  8  1  0  0  0
  6  9  1  0  0  0
M  END
> <minimizedAffinity>
-5.92332

> <CNNscore>
0.2542275488

> <CNNaffinity>
5.7203292847

> <CNN_VS>
1.4542652369

> <CNNaffinity_variance>
0.0802006871

$$$$
[H]O[C@@]1([H])C([H])([H])[C@@]([H])(O[H])[C@]([H])(C([H])([H])/C([H])=C(/[H])C([H])([H])/C([H])=C(/[H])C([H])([H])C([H])([H])C([H])([H])C([H])([H])C([H])([H])[H])[C@@]1([H])C([H])([H])/C([H])=C(/[H])C([H])([H])C([H])([H])C([H])([H])C(=O)C([H])([H])[H]


 29 29  0  0  0  0  0  0  0  0999 V2000
   38.4953   14.7063  -12.7256 C   0  0  0  0  0  0  0  0  0  0  0  0
   38.5297   15.5584  -11.4979 C   0  0  0  0  0  0  0  0  0  0  0  0
   39.3052   14.9794  -10.4864 O   0  0  0  0  0  0  0  0  0  0  0  0
   37.0942   15.5303  -11.0159 C   0  0  0  0  0  0  0  0  0  0  0  0
   36.3590   15.7634  -12.3322 C   0  0  0  0  0  0  0  0  0  0  0  0
   35.0322   15.4131  -12.2854 O   0  0  0  0  0  0  0  0  0  0  0  0
   37.1493   14.9286  -13.3463 C   0  0  0  0  0  0  0  0  0  0  0  0
   39.8363   15.6593   -9.9976 H   0  0  0  0  0  0  0  0  0  0  0  0
   34.6520   15.7807  -11.4505 H   0  0  0  0  0  0  0  0  0  0  0  0
   39.6173   15.0063  -13.7086 C   0  0  0  0  0  0  0  0  0  0  0  0
   41.3764   13.4196  -14.2949 C   0  0  0  0  0  0  0  0  0  0  0  0
   40.1097   13.7238  -14.2274 C   0  0  0  0  0  0  0  0  0  0  0  0
   42.4644   14.3031  -13.8676 C   0  0  0  0  0  0  0  0  0  0  0  0
   44.2943   13.2288  -12.6751 C   0  0  0  0  0  0  0  0  0  0  0  0
   43.0925   13.7122  -12.6700 C   0  0  0  0  0  0  0  0  0  0  0  0
   45.1680   13.2047  -13.8411 C   0  0  0  0  0  0  0  0  0  0  0  0
   46.5682   12.8261  -13.3189 C   0  0  0  0  0  0  0  0  0  0  0  0
   46.4247   11.6221  -12.4014 C   0  0  0  0  0  0  0  0  0  0  0  0
   47.6771   13.1571  -10.9972 C   0  0  0  0  0  0  0  0  0  0  0  0
   47.5166   11.6920  -11.3725 C   0  0  0  0  0  0  0  0  0  0  0  0
   36.4219   13.5953  -13.5702 C   0  0  0  0  0  0  0  0  0  0  0  0
   35.8081   13.5301  -14.8976 C   0  0  0  0  0  0  0  0  0  0  0  0
   36.2532   12.7282  -15.8348 C   0  0  0  0  0  0  0  0  0  0  0  0
   37.3956   11.8351  -15.6293 C   0  0  0  0  0  0  0  0  0  0  0  0
   37.9755   11.3230  -16.9364 C   0  0  0  0  0  0  0  0  0  0  0  0
   39.4747   11.5306  -16.9291 C   0  0  0  0  0  0  0  0  0  0  0  0
   40.0036   11.4352  -18.3161 C   0  0  0  0  0  0  0  0  0  0  0  0
   39.1447   11.0289  -19.4518 C   0  0  0  0  0  0  0  0  0  0  0  0
   41.1739   11.6949  -18.5461 O   0  0  0  0  0  0  0  0  0  0  0  0
 19 20  1  0  0  0
 20 18  1  0  0  0
 18 17  1  0  0  0
 17 16  1  0  0  0
 16 14  1  0  0  0
 14 15  2  0  0  0
 15 13  1  0  0  0
 13 11  1  0  0  0
 11 12  2  0  0  0
 12 10  1  0  0  0
 10  1  1  0  0  0
  1  2  1  0  0  0
  2  3  1  0  0  0
  2  4  1  0  0  0
  4  5  1  0  0  0
  5  6  1  0  0  0
  5  7  1  0  0  0
  7 21  1  0  0  0
 21 22  1  0  0  0
 22 23  2  0  0  0
 23 24  1  0  0  0
 24 25  1  0  0  0
 25 26  1  0  0  0
 26 27  1  0  0  0
 27 28  1  0  0  0
 27 29  2  0  0  0
  7  1  1  0  0  0
  3  8  1  0  0  0
  6  9  1  0  0  0
M  END
> <minimizedAffinity>
-6.16666

> <CNNscore>
0.2540283501

> <CNNaffinity>
6.2360095978

> <CNN_VS>
1.5841232538

> <CNNaffinity_variance>
0.1325432956

$$$$
[H]O[C@@]1([H])C([H])([H])[C@@]([H])(O[H])[C@]([H])(C([H])([H])/C([H])=C(/[H])C([H])([H])/C([H])=C(/[H])C([H])([H])C([H])([H])C([H])([H])C([H])([H])C([H])([H])[H])[C@@]1([H])C([H])([H])/C([H])=C(/[H])C([H])([H])C([H])([H])C([H])([H])C(=O)C([H])([H])[H]


 29 29  0  0  0  0  0  0  0  0999 V2000
   37.9056   15.0296  -12.4737 C   0  0  0  0  0  0  0  0  0  0  0  0
   38.6861   15.8830  -11.5265 C   0  0  0  0  0  0  0  0  0  0  0  0
   39.6794   15.1500  -10.8663 O   0  0  0  0  0  0  0  0  0  0  0  0
   37.6606   16.2670  -10.4802 C   0  0  0  0  0  0  0  0  0  0  0  0
   36.4848   16.6457  -11.3756 C   0  0  0  0  0  0  0  0  0  0  0  0
   35.2822   16.6746  -10.7136 O   0  0  0  0  0  0  0  0  0  0  0  0
   36.5157   15.5903  -12.4870 C   0  0  0  0  0  0  0  0  0  0  0  0
   40.5141   15.6752  -10.7627 H   0  0  0  0  0  0  0  0  0  0  0  0
   35.4166   17.1621   -9.8644 H   0  0  0  0  0  0  0  0  0  0  0  0
   38.4965   14.9750  -13.8747 C   0  0  0  0  0  0  0  0  0  0  0  0
   39.3736   13.0467  -15.0864 C   0  0  0  0  0  0  0  0  0  0  0  0
   38.4613   13.5756  -14.3187 C   0  0  0  0  0  0  0  0  0  0  0  0
   40.5412   13.7662  -15.6022 C   0  0  0  0  0  0  0  0  0  0  0  0
   42.7818   13.0927  -14.9306 C   0  0  0  0  0  0  0  0  0  0  0  0
   41.6386   13.6204  -14.6263 C   0  0  0  0  0  0  0  0  0  0  0  0
   43.1288   12.5829  -16.2508 C   0  0  0  0  0  0  0  0  0  0  0  0
   44.6440   12.3006  -16.2160 C   0  0  0  0  0  0  0  0  0  0  0  0
   45.3228   13.4368  -15.4675 C   0  0  0  0  0  0  0  0  0  0  0  0
   46.1393   12.3773  -13.4409 C   0  0  0  0  0  0  0  0  0  0  0  0
   46.5568   12.8865  -14.8118 C   0  0  0  0  0  0  0  0  0  0  0  0
   35.4820   14.5006  -12.1695 C   0  0  0  0  0  0  0  0  0  0  0  0
   36.1016   13.1775  -12.0770 C   0  0  0  0  0  0  0  0  0  0  0  0
   35.6843   12.1589  -12.7896 C   0  0  0  0  0  0  0  0  0  0  0  0
   34.5693   12.2629  -13.7335 C   0  0  0  0  0  0  0  0  0  0  0  0
   35.0364   12.4528  -15.1663 C   0  0  0  0  0  0  0  0  0  0  0  0
   34.2033   11.5795  -16.0795 C   0  0  0  0  0  0  0  0  0  0  0  0
   35.0715   10.5681  -16.7398 C   0  0  0  0  0  0  0  0  0  0  0  0
   36.4051   10.9187  -17.2796 C   0  0  0  0  0  0  0  0  0  0  0  0
   34.6938    9.4127  -16.8497 O   0  0  0  0  0  0  0  0  0  0  0  0
 19 20  1  0  0  0
 20 18  1  0  0  0
 18 17  1  0  0  0
 17 16  1  0  0  0
 16 14  1  0  0  0
 14 15  2  0  0  0
 15 13  1  0  0  0
 13 11  1  0  0  0
 11 12  2  0  0  0
 12 10  1  0  0  0
 10  1  1  0  0  0
  1  2  1  0  0  0
  2  3  1  0  0  0
  2  4  1  0  0  0
  4  5  1  0  0  0
  5  6  1  0  0  0
  5  7  1  0  0  0
  7 21  1  0  0  0
 21 22  1  0  0  0
 22 23  2  0  0  0
 23 24  1  0  0  0
 24 25  1  0  0  0
 25 26  1  0  0  0
 26 27  1  0  0  0
 27 28  1  0  0  0
 27 29  2  0  0  0
  7  1  1  0  0  0
  3  8  1  0  0  0
  6  9  1  0  0  0
M  END
> <minimizedAffinity>
-6.13597

> <CNNscore>
0.2493973225

> <CNNaffinity>
6.2181968689

> <CNN_VS>
1.5508016348

> <CNNaffinity_variance>
0.2033821791

$$$$
[H]c1nc(N([H])[H])c2nc(-c3c([H])c([H])c(C([H])([H])n4nc(-c5c([H])c([H])c([H])c(C#CC([H])([H])N([H])c6c([H])c([H])nc([H])c6[H])c5[H])c([H])c4C([H])([H])[H])c([H])c3[H])c([H])n2n1


 42 47  0  0  0  0  0  0  0  0999 V2000
   36.6671   17.2860  -10.9921 C   0  0  0  0  0  0  0  0  0  0  0  0
   36.8553   16.2363   -9.9565 C   0  0  0  0  0  0  0  0  0  0  0  0
   37.6831   16.3381   -8.8302 C   0  0  0  0  0  0  0  0  0  0  0  0
   37.5980   15.1770   -8.1009 C   0  0  0  0  0  0  0  0  0  0  0  0
   36.7398   14.3952   -8.7721 N   0  0  0  0  0  0  0  0  0  0  0  0
   36.3012   15.0195   -9.8671 N   0  0  0  0  0  0  0  0  0  0  0  0
   38.3019   14.8518   -6.8406 C   0  0  0  0  0  0  0  0  0  0  0  0
   38.0076   15.5289   -5.6797 C   0  0  0  0  0  0  0  0  0  0  0  0
   38.6750   15.2077   -4.5246 C   0  0  0  0  0  0  0  0  0  0  0  0
   39.6276   14.2154   -4.5412 C   0  0  0  0  0  0  0  0  0  0  0  0
   39.9538   13.5111   -5.6839 C   0  0  0  0  0  0  0  0  0  0  0  0
   39.2592   13.8660   -6.8214 C   0  0  0  0  0  0  0  0  0  0  0  0
   40.9506   12.4757   -5.6919 C   0  0  0  0  0  0  0  0  0  0  0  0
   41.7732   11.5937   -5.6899 C   0  0  0  0  0  0  0  0  0  0  0  0
   42.7874   10.5124   -5.7132 C   0  0  0  0  0  0  0  0  0  0  0  0
   43.7506   10.6710   -6.7597 N   0  0  0  0  0  0  0  0  0  0  0  0
   43.4282   10.6084   -7.7495 H   0  0  0  0  0  0  0  0  0  0  0  0
   45.1204   10.9087   -6.5134 C   0  0  0  0  0  0  0  0  0  0  0  0
   45.5571   11.1361   -5.2500 C   0  0  0  0  0  0  0  0  0  0  0  0
   46.9188   11.3717   -5.0518 C   0  0  0  0  0  0  0  0  0  0  0  0
   47.7768   11.3736   -6.0838 N   0  0  0  0  0  0  0  0  0  0  0  0
   47.3611   11.1490   -7.3494 C   0  0  0  0  0  0  0  0  0  0  0  0
   46.0323   10.9177   -7.5541 C   0  0  0  0  0  0  0  0  0  0  0  0
   35.3659   14.4522  -10.8160 C   0  0  0  0  0  0  0  0  0  0  0  0
   35.9743   13.9231  -12.0343 C   0  0  0  0  0  0  0  0  0  0  0  0
   37.3414   13.8443  -12.1459 C   0  0  0  0  0  0  0  0  0  0  0  0
   37.9232   13.3312  -13.3154 C   0  0  0  0  0  0  0  0  0  0  0  0
   37.1455   12.8993  -14.3673 C   0  0  0  0  0  0  0  0  0  0  0  0
   35.7797   12.9848  -14.2402 C   0  0  0  0  0  0  0  0  0  0  0  0
   35.1939   13.4916  -13.0857 C   0  0  0  0  0  0  0  0  0  0  0  0
   37.7246   12.3618  -15.5940 C   0  0  0  0  0  0  0  0  0  0  0  0
   37.1007   11.6179  -16.5714 C   0  0  0  0  0  0  0  0  0  0  0  0
   37.9720   11.3110  -17.5450 N   0  0  0  0  0  0  0  0  0  0  0  0
   37.8867   10.6260  -18.6921 N   0  0  0  0  0  0  0  0  0  0  0  0
   38.9105   10.4495  -19.5164 C   0  0  0  0  0  0  0  0  0  0  0  0
   40.0982   10.9900  -19.1779 N   0  0  0  0  0  0  0  0  0  0  0  0
   40.2264   11.6885  -18.0288 C   0  0  0  0  0  0  0  0  0  0  0  0
   41.4786   12.2764  -17.6405 N   0  0  0  0  0  0  0  0  0  0  0  0
   39.1462   11.8581  -17.1880 C   0  0  0  0  0  0  0  0  0  0  0  0
   38.9966   12.4942  -16.0069 N   0  0  0  0  0  0  0  0  0  0  0  0
   41.5289   13.1606  -17.0928 H   0  0  0  0  0  0  0  0  0  0  0  0
   42.3349   11.7668  -17.9386 H   0  0  0  0  0  0  0  0  0  0  0  0
  1  2  1  0  0  0
  2  3  2  0  0  0
  3  4  1  0  0  0
  4  5  2  0  0  0
  5  6  1  0  0  0
  6 24  1  0  0  0
 24 25  1  0  0  0
 25 26  2  0  0  0
 26 27  1  0  0  0
 27 28  2  0  0  0
 28 29  1  0  0  0
 29 30  2  0  0  0
 28 31  1  0  0  0
 31 32  2  0  0  0
 32 33  1  0  0  0
 33 34  1  0  0  0
 34 35  2  0  0  0
 35 36  1  0  0  0
 36 37  2  0  0  0
 37 38  1  0  0  0
 37 39  1  0  0  0
 39 40  2  0  0  0
  4  7  1  0  0  0
  7  8  2  0  0  0
  8  9  1  0  0  0
  9 10  2  0  0  0
 10 11  1  0  0  0
 11 12  2  0  0  0
 11 13  1  0  0  0
 13 14  3  0  0  0
 14 15  1  0  0  0
 15 16  1  0  0  0
 16 18  1  0  0  0
 18 19  2  0  0  0
 19 20  1  0  0  0
 20 21  2  0  0  0
 21 22  1  0  0  0
 22 23  2  0  0  0
  6  2  1  0  0  0
 30 25  1  0  0  0
 40 31  1  0  0  0
 12  7  1  0  0  0
 23 18  1  0  0  0
 39 33  1  0  0  0
 38 41  1  0  0  0
 38 42  1  0  0  0
 16 17  1  0  0  0
M  END
> <minimizedAffinity>
-8.10785

> <CNNscore>
0.5596094728

> <CNNaffinity>
7.0864853859

> <CNN_VS>
3.9656643867

> <CNNaffinity_variance>
0.1875825226

$$$$
[H]c1nc(N([H])[H])c2nc(-c3c([H])c([H])c(C([H])([H])n4nc(-c5c([H])c([H])c([H])c(C#CC([H])([H])N([H])c6c([H])c([H])nc([H])c6[H])c5[H])c([H])c4C([H])([H])[H])c([H])c3[H])c([H])n2n1


 42 47  0  0  0  0  0  0  0  0999 V2000
   36.3707   17.3058  -11.0616 C   0  0  0  0  0  0  0  0  0  0  0  0
   36.4937   16.2366  -10.0361 C   0  0  0  0  0  0  0  0  0  0  0  0
   37.2428   16.3195   -8.8544 C   0  0  0  0  0  0  0  0  0  0  0  0
   37.1144   15.1439   -8.1552 C   0  0  0  0  0  0  0  0  0  0  0  0
   36.3077   14.3722   -8.8980 N   0  0  0  0  0  0  0  0  0  0  0  0
   35.9410   15.0162  -10.0080 N   0  0  0  0  0  0  0  0  0  0  0  0
   37.7330   14.7967   -6.8565 C   0  0  0  0  0  0  0  0  0  0  0  0
   37.0201   14.9204   -5.6864 C   0  0  0  0  0  0  0  0  0  0  0  0
   37.6174   14.5916   -4.4955 C   0  0  0  0  0  0  0  0  0  0  0  0
   38.9179   14.1436   -4.4861 C   0  0  0  0  0  0  0  0  0  0  0  0
   39.6692   14.0047   -5.6369 C   0  0  0  0  0  0  0  0  0  0  0  0
   39.0304   14.3459   -6.8107 C   0  0  0  0  0  0  0  0  0  0  0  0
   41.0278   13.5357   -5.6176 C   0  0  0  0  0  0  0  0  0  0  0  0
   42.1734   13.1586   -5.6133 C   0  0  0  0  0  0  0  0  0  0  0  0
   43.5815   12.6955   -5.5821 C   0  0  0  0  0  0  0  0  0  0  0  0
   43.9444   12.0913   -4.3365 N   0  0  0  0  0  0  0  0  0  0  0  0
   44.4434   12.6701   -3.6268 H   0  0  0  0  0  0  0  0  0  0  0  0
   43.6576   10.7448   -4.0235 C   0  0  0  0  0  0  0  0  0  0  0  0
   44.6373    9.8087   -4.0746 C   0  0  0  0  0  0  0  0  0  0  0  0
   44.3091    8.4882   -3.7623 C   0  0  0  0  0  0  0  0  0  0  0  0
   43.0562    8.1504   -3.4195 N   0  0  0  0  0  0  0  0  0  0  0  0
   42.0668    9.0683   -3.3629 C   0  0  0  0  0  0  0  0  0  0  0  0
   42.3768   10.3618   -3.6663 C   0  0  0  0  0  0  0  0  0  0  0  0
   35.0751   14.4641  -11.0289 C   0  0  0  0  0  0  0  0  0  0  0  0
   35.7688   13.9419  -12.2039 C   0  0  0  0  0  0  0  0  0  0  0  0
   37.1417   13.9516  -12.2568 C   0  0  0  0  0  0  0  0  0  0  0  0
   37.8056   13.4450  -13.3846 C   0  0  0  0  0  0  0  0  0  0  0  0
   37.1039   12.9318  -14.4533 C   0  0  0  0  0  0  0  0  0  0  0  0
   35.7313   12.9294  -14.3851 C   0  0  0  0  0  0  0  0  0  0  0  0
   35.0643   13.4289  -13.2723 C   0  0  0  0  0  0  0  0  0  0  0  0
   37.7693   12.3991  -15.6376 C   0  0  0  0  0  0  0  0  0  0  0  0
   37.2215   11.6416  -16.6496 C   0  0  0  0  0  0  0  0  0  0  0  0
   38.1585   11.3451  -17.5635 N   0  0  0  0  0  0  0  0  0  0  0  0
   38.1581   10.6545  -18.7105 N   0  0  0  0  0  0  0  0  0  0  0  0
   39.2356   10.4914  -19.4664 C   0  0  0  0  0  0  0  0  0  0  0  0
   40.3904   11.0520  -19.0546 N   0  0  0  0  0  0  0  0  0  0  0  0
   40.4332   11.7568  -17.9030 C   0  0  0  0  0  0  0  0  0  0  0  0
   41.6483   12.3661  -17.4376 N   0  0  0  0  0  0  0  0  0  0  0  0
   39.2984   11.9122  -17.1343 C   0  0  0  0  0  0  0  0  0  0  0  0
   39.0630   12.5503  -15.9683 N   0  0  0  0  0  0  0  0  0  0  0  0
   41.6493   13.2531  -16.8920 H   0  0  0  0  0  0  0  0  0  0  0  0
   42.5299   11.8692  -17.6775 H   0  0  0  0  0  0  0  0  0  0  0  0
  1  2  1  0  0  0
  2  3  2  0  0  0
  3  4  1  0  0  0
  4  5  2  0  0  0
  5  6  1  0  0  0
  6 24  1  0  0  0
 24 25  1  0  0  0
 25 26  2  0  0  0
 26 27  1  0  0  0
 27 28  2  0  0  0
 28 29  1  0  0  0
 29 30  2  0  0  0
 28 31  1  0  0  0
 31 32  2  0  0  0
 32 33  1  0  0  0
 33 34  1  0  0  0
 34 35  2  0  0  0
 35 36  1  0  0  0
 36 37  2  0  0  0
 37 38  1  0  0  0
 37 39  1  0  0  0
 39 40  2  0  0  0
  4  7  1  0  0  0
  7  8  2  0  0  0
  8  9  1  0  0  0
  9 10  2  0  0  0
 10 11  1  0  0  0
 11 12  2  0  0  0
 11 13  1  0  0  0
 13 14  3  0  0  0
 14 15  1  0  0  0
 15 16  1  0  0  0
 16 18  1  0  0  0
 18 19  2  0  0  0
 19 20  1  0  0  0
 20 21  2  0  0  0
 21 22  1  0  0  0
 22 23  2  0  0  0
  6  2  1  0  0  0
 30 25  1  0  0  0
 40 31  1  0  0  0
 12  7  1  0  0  0
 23 18  1  0  0  0
 39 33  1  0  0  0
 38 41  1  0  0  0
 38 42  1  0  0  0
 16 17  1  0  0  0
M  END
> <minimizedAffinity>
-8.53706

> <CNNscore>
0.4812947214

> <CNNaffinity>
6.8421401978

> <CNN_VS>
3.2930860519

> <CNNaffinity_variance>
0.1802279949

$$$$
[H]c1nc(N([H])[H])c2nc(-c3c([H])c([H])c(C([H])([H])n4nc(-c5c([H])c([H])c([H])c(C#CC([H])([H])N([H])c6c([H])c([H])nc([H])c6[H])c5[H])c([H])c4C([H])([H])[H])c([H])c3[H])c([H])n2n1


 42 47  0  0  0  0  0  0  0  0999 V2000
   37.4898   19.1159   -8.8509 C   0  0  0  0  0  0  0  0  0  0  0  0
   37.7670   17.6750   -8.6128 C   0  0  0  0  0  0  0  0  0  0  0  0
   38.7019   17.1616   -7.7036 C   0  0  0  0  0  0  0  0  0  0  0  0
   38.6759   15.7891   -7.7559 C   0  0  0  0  0  0  0  0  0  0  0  0
   37.7479   15.4837   -8.6745 N   0  0  0  0  0  0  0  0  0  0  0  0
   37.2112   16.5959   -9.1806 N   0  0  0  0  0  0  0  0  0  0  0  0
   39.4960   14.8424   -6.9680 C   0  0  0  0  0  0  0  0  0  0  0  0
   39.0382   14.3512   -5.7672 C   0  0  0  0  0  0  0  0  0  0  0  0
   39.8186   13.4745   -5.0563 C   0  0  0  0  0  0  0  0  0  0  0  0
   41.0456   13.0984   -5.5514 C   0  0  0  0  0  0  0  0  0  0  0  0
   41.5431   13.5671   -6.7518 C   0  0  0  0  0  0  0  0  0  0  0  0
   40.7268   14.4454   -7.4331 C   0  0  0  0  0  0  0  0  0  0  0  0
   42.8266   13.1685   -7.2614 C   0  0  0  0  0  0  0  0  0  0  0  0
   43.8970   12.8140   -7.6895 C   0  0  0  0  0  0  0  0  0  0  0  0
   45.2102   12.3949   -8.2357 C   0  0  0  0  0  0  0  0  0  0  0  0
   45.1555   11.1417   -8.9247 N   0  0  0  0  0  0  0  0  0  0  0  0
   44.2963   10.5578   -8.8326 H   0  0  0  0  0  0  0  0  0  0  0  0
   46.2135   10.6583   -9.7249 C   0  0  0  0  0  0  0  0  0  0  0  0
   45.9503   10.0308  -10.8978 C   0  0  0  0  0  0  0  0  0  0  0  0
   47.0258    9.5638  -11.6556 C   0  0  0  0  0  0  0  0  0  0  0  0
   48.2899    9.7305  -11.2365 N   0  0  0  0  0  0  0  0  0  0  0  0
   48.5724   10.3530  -10.0714 C   0  0  0  0  0  0  0  0  0  0  0  0
   47.5285   10.8131   -9.3232 C   0  0  0  0  0  0  0  0  0  0  0  0
   36.1817   16.6205  -10.1986 C   0  0  0  0  0  0  0  0  0  0  0  0
   36.4317   15.7489  -11.3441 C   0  0  0  0  0  0  0  0  0  0  0  0
   35.3881   15.1028  -11.9615 C   0  0  0  0  0  0  0  0  0  0  0  0
   35.6304   14.2699  -13.0645 C   0  0  0  0  0  0  0  0  0  0  0  0
   36.9065   14.0826  -13.5489 C   0  0  0  0  0  0  0  0  0  0  0  0
   37.9395   14.7358  -12.9203 C   0  0  0  0  0  0  0  0  0  0  0  0
   37.7097   15.5631  -11.8269 C   0  0  0  0  0  0  0  0  0  0  0  0
   37.1859   13.2223  -14.6938 C   0  0  0  0  0  0  0  0  0  0  0  0
   36.3006   12.4414  -15.4039 C   0  0  0  0  0  0  0  0  0  0  0  0
   36.9427   11.7948  -16.3892 N   0  0  0  0  0  0  0  0  0  0  0  0
   36.5640   10.9351  -17.3431 N   0  0  0  0  0  0  0  0  0  0  0  0
   37.3998   10.4129  -18.2307 C   0  0  0  0  0  0  0  0  0  0  0  0
   38.6984   10.7690  -18.1657 N   0  0  0  0  0  0  0  0  0  0  0  0
   39.1213   11.6339  -17.2180 C   0  0  0  0  0  0  0  0  0  0  0  0
   40.4983   12.0326  -17.1229 N   0  0  0  0  0  0  0  0  0  0  0  0
   38.2321   12.1634  -16.3061 C   0  0  0  0  0  0  0  0  0  0  0  0
   38.3795   13.0275  -15.2796 N   0  0  0  0  0  0  0  0  0  0  0  0
   40.7792   12.9778  -16.7881 H   0  0  0  0  0  0  0  0  0  0  0  0
   41.2011   11.3211  -17.4084 H   0  0  0  0  0  0  0  0  0  0  0  0
  1  2  1  0  0  0
  2  3  2  0  0  0
  3  4  1  0  0  0
  4  5  2  0  0  0
  5  6  1  0  0  0
  6 24  1  0  0  0
 24 25  1  0  0  0
 25 26  2  0  0  0
 26 27  1  0  0  0
 27 28  2  0  0  0
 28 29  1  0  0  0
 29 30  2  0  0  0
 28 31  1  0  0  0
 31 32  2  0  0  0
 32 33  1  0  0  0
 33 34  1  0  0  0
 34 35  2  0  0  0
 35 36  1  0  0  0
 36 37  2  0  0  0
 37 38  1  0  0  0
 37 39  1  0  0  0
 39 40  2  0  0  0
  4  7  1  0  0  0
  7  8  2  0  0  0
  8  9  1  0  0  0
  9 10  2  0  0  0
 10 11  1  0  0  0
 11 12  2  0  0  0
 11 13  1  0  0  0
 13 14  3  0  0  0
 14 15  1  0  0  0
 15 16  1  0  0  0
 16 18  1  0  0  0
 18 19  2  0  0  0
 19 20  1  0  0  0
 20 21  2  0  0  0
 21 22  1  0  0  0
 22 23  2  0  0  0
  6  2  1  0  0  0
 30 25  1  0  0  0
 40 31  1  0  0  0
 12  7  1  0  0  0
 23 18  1  0  0  0
 39 33  1  0  0  0
 38 41  1  0  0  0
 38 42  1  0  0  0
 16 17  1  0  0  0
M  END
> <minimizedAffinity>
-7.99442

> <CNNscore>
0.2835831046

> <CNNaffinity>
6.9888048172

> <CNN_VS>
1.9819070101

> <CNNaffinity_variance>
0.3423484862

$$$$
[H]c1nc(N([H])[H])c2nc(-c3c([H])c([H])c(C([H])([H])n4nc(-c5c([H])c([H])c([H])c(C#CC([H])([H])N([H])c6c([H])c([H])nc([H])c6[H])c5[H])c([H])c4C([H])([H])[H])c([H])c3[H])c([H])n2n1


 42 47  0  0  0  0  0  0  0  0999 V2000
   37.1659   18.0546   -8.7425 C   0  0  0  0  0  0  0  0  0  0  0  0
   37.9795   16.8114   -8.6917 C   0  0  0  0  0  0  0  0  0  0  0  0
   39.1541   16.6329   -7.9484 C   0  0  0  0  0  0  0  0  0  0  0  0
   39.6231   15.3567   -8.1449 C   0  0  0  0  0  0  0  0  0  0  0  0
   38.7518   14.7811   -8.9861 N   0  0  0  0  0  0  0  0  0  0  0  0
   37.7818   15.6388   -9.3093 N   0  0  0  0  0  0  0  0  0  0  0  0
   40.8331   14.7414   -7.5557 C   0  0  0  0  0  0  0  0  0  0  0  0
   40.9374   14.5659   -6.1952 C   0  0  0  0  0  0  0  0  0  0  0  0
   42.0703   13.9928   -5.6746 C   0  0  0  0  0  0  0  0  0  0  0  0
   43.0851   13.6018   -6.5169 C   0  0  0  0  0  0  0  0  0  0  0  0
   43.0215   13.7594   -7.8877 C   0  0  0  0  0  0  0  0  0  0  0  0
   41.8660   14.3392   -8.3681 C   0  0  0  0  0  0  0  0  0  0  0  0
   44.0869   13.3478   -8.7603 C   0  0  0  0  0  0  0  0  0  0  0  0
   44.9774   12.9823   -9.4871 C   0  0  0  0  0  0  0  0  0  0  0  0
   46.0603   12.5451  -10.4006 C   0  0  0  0  0  0  0  0  0  0  0  0
   45.6209   12.3851  -11.7532 N   0  0  0  0  0  0  0  0  0  0  0  0
   45.3362   11.4356  -12.0772 H   0  0  0  0  0  0  0  0  0  0  0  0
   45.5552   13.4557  -12.6713 C   0  0  0  0  0  0  0  0  0  0  0  0
   46.1384   14.6439  -12.3768 C   0  0  0  0  0  0  0  0  0  0  0  0
   46.0451   15.6775  -13.3106 C   0  0  0  0  0  0  0  0  0  0  0  0
   45.3953   15.5025  -14.4719 N   0  0  0  0  0  0  0  0  0  0  0  0
   44.8081   14.3265  -14.7834 C   0  0  0  0  0  0  0  0  0  0  0  0
   44.8934   13.3099  -13.8776 C   0  0  0  0  0  0  0  0  0  0  0  0
   36.6829   15.3363  -10.2025 C   0  0  0  0  0  0  0  0  0  0  0  0
   37.0691   14.6763  -11.4474 C   0  0  0  0  0  0  0  0  0  0  0  0
   36.3397   13.6124  -11.9205 C   0  0  0  0  0  0  0  0  0  0  0  0
   36.7100   12.9833  -13.1190 C   0  0  0  0  0  0  0  0  0  0  0  0
   37.8016   13.4130  -13.8412 C   0  0  0  0  0  0  0  0  0  0  0  0
   38.5208   14.4783  -13.3546 C   0  0  0  0  0  0  0  0  0  0  0  0
   38.1620   15.1082  -12.1684 C   0  0  0  0  0  0  0  0  0  0  0  0
   38.2081   12.7769  -15.0898 C   0  0  0  0  0  0  0  0  0  0  0  0
   37.4383   12.0208  -15.9463 C   0  0  0  0  0  0  0  0  0  0  0  0
   38.1758   11.6103  -16.9898 N   0  0  0  0  0  0  0  0  0  0  0  0
   37.9242   10.8714  -18.0775 N   0  0  0  0  0  0  0  0  0  0  0  0
   38.8370   10.5897  -18.9975 C   0  0  0  0  0  0  0  0  0  0  0  0
   40.0828   11.0748  -18.8247 N   0  0  0  0  0  0  0  0  0  0  0  0
   40.3780   11.8248  -17.7405 C   0  0  0  0  0  0  0  0  0  0  0  0
   41.6959   12.3559  -17.5282 N   0  0  0  0  0  0  0  0  0  0  0  0
   39.4106   12.1039  -16.7976 C   0  0  0  0  0  0  0  0  0  0  0  0
   39.4304   12.8100  -15.6474 N   0  0  0  0  0  0  0  0  0  0  0  0
   41.8557   13.2634  -17.0432 H   0  0  0  0  0  0  0  0  0  0  0  0
   42.4842   11.7804  -17.8877 H   0  0  0  0  0  0  0  0  0  0  0  0
  1  2  1  0  0  0
  2  3  2  0  0  0
  3  4  1  0  0  0
  4  5  2  0  0  0
  5  6  1  0  0  0
  6 24  1  0  0  0
 24 25  1  0  0  0
 25 26  2  0  0  0
 26 27  1  0  0  0
 27 28  2  0  0  0
 28 29  1  0  0  0
 29 30  2  0  0  0
 28 31  1  0  0  0
 31 32  2  0  0  0
 32 33  1  0  0  0
 33 34  1  0  0  0
 34 35  2  0  0  0
 35 36  1  0  0  0
 36 37  2  0  0  0
 37 38  1  0  0  0
 37 39  1  0  0  0
 39 40  2  0  0  0
  4  7  1  0  0  0
  7  8  2  0  0  0
  8  9  1  0  0  0
  9 10  2  0  0  0
 10 11  1  0  0  0
 11 12  2  0  0  0
 11 13  1  0  0  0
 13 14  3  0  0  0
 14 15  1  0  0  0
 15 16  1  0  0  0
 16 18  1  0  0  0
 18 19  2  0  0  0
 19 20  1  0  0  0
 20 21  2  0  0  0
 21 22  1  0  0  0
 22 23  2  0  0  0
  6  2  1  0  0  0
 30 25  1  0  0  0
 40 31  1  0  0  0
 12  7  1  0  0  0
 23 18  1  0  0  0
 39 33  1  0  0  0
 38 41  1  0  0  0
 38 42  1  0  0  0
 16 17  1  0  0  0
M  END
> <minimizedAffinity>
-7.71177

> <CNNscore>
0.2623399496

> <CNNaffinity>
7.2069449425

> <CNN_VS>
1.8906695843

> <CNNaffinity_variance>
0.2086071521

$$$$
[H]c1nc(N([H])[H])c2nc(-c3c([H])c([H])c(C([H])([H])n4nc(-c5c([H])c([H])c([H])c(C#CC([H])([H])N([H])c6c([H])c([H])nc([H])c6[H])c5[H])c([H])c4C([H])([H])[H])c([H])c3[H])c([H])n2n1


 42 47  0  0  0  0  0  0  0  0999 V2000
   34.5548    9.6766  -16.9044 C   0  0  0  0  0  0  0  0  0  0  0  0
   35.0670   10.9056  -16.2433 C   0  0  0  0  0  0  0  0  0  0  0  0
   34.4527   11.5772  -15.1775 C   0  0  0  0  0  0  0  0  0  0  0  0
   35.2161   12.6650  -14.8293 C   0  0  0  0  0  0  0  0  0  0  0  0
   36.2644   12.6486  -15.6654 N   0  0  0  0  0  0  0  0  0  0  0  0
   36.1771   11.6109  -16.5000 N   0  0  0  0  0  0  0  0  0  0  0  0
   34.9444   13.6502  -13.7592 C   0  0  0  0  0  0  0  0  0  0  0  0
   35.9435   14.4758  -13.2977 C   0  0  0  0  0  0  0  0  0  0  0  0
   35.6649   15.3807  -12.3045 C   0  0  0  0  0  0  0  0  0  0  0  0
   34.3937   15.4512  -11.7836 C   0  0  0  0  0  0  0  0  0  0  0  0
   33.3619   14.6417  -12.2175 C   0  0  0  0  0  0  0  0  0  0  0  0
   33.6855   13.7474  -13.2163 C   0  0  0  0  0  0  0  0  0  0  0  0
   32.0365   14.7223  -11.6674 C   0  0  0  0  0  0  0  0  0  0  0  0
   30.9229   14.7690  -11.2064 C   0  0  0  0  0  0  0  0  0  0  0  0
   29.5633   14.8396  -10.6193 C   0  0  0  0  0  0  0  0  0  0  0  0
   29.4367   14.0872   -9.4086 N   0  0  0  0  0  0  0  0  0  0  0  0
   28.7695   13.2860   -9.3853 H   0  0  0  0  0  0  0  0  0  0  0  0
   30.1751   14.3802   -8.2413 C   0  0  0  0  0  0  0  0  0  0  0  0
   30.8696   13.4019   -7.6096 C   0  0  0  0  0  0  0  0  0  0  0  0
   31.5820   13.7339   -6.4558 C   0  0  0  0  0  0  0  0  0  0  0  0
   31.5816   14.9894   -5.9813 N   0  0  0  0  0  0  0  0  0  0  0  0
   30.8961   15.9776   -6.5963 C   0  0  0  0  0  0  0  0  0  0  0  0
   30.1965   15.6637   -7.7247 C   0  0  0  0  0  0  0  0  0  0  0  0
   37.1453   11.3043  -17.5323 C   0  0  0  0  0  0  0  0  0  0  0  0
   38.5269   11.6387  -17.1953 C   0  0  0  0  0  0  0  0  0  0  0  0
   39.5361   11.3942  -18.0950 C   0  0  0  0  0  0  0  0  0  0  0  0
   40.8618   11.7207  -17.7707 C   0  0  0  0  0  0  0  0  0  0  0  0
   41.1789   12.2877  -16.5558 C   0  0  0  0  0  0  0  0  0  0  0  0
   40.1582   12.5258  -15.6668 C   0  0  0  0  0  0  0  0  0  0  0  0
   38.8417   12.2060  -15.9787 C   0  0  0  0  0  0  0  0  0  0  0  0
   42.5485   12.6366  -16.1935 C   0  0  0  0  0  0  0  0  0  0  0  0
   43.7171   12.0587  -16.6390 C   0  0  0  0  0  0  0  0  0  0  0  0
   44.7749   12.6602  -16.0730 N   0  0  0  0  0  0  0  0  0  0  0  0
   46.1003   12.4921  -16.1583 N   0  0  0  0  0  0  0  0  0  0  0  0
   46.9756   13.2272  -15.4856 C   0  0  0  0  0  0  0  0  0  0  0  0
   46.5017   14.1938  -14.6740 N   0  0  0  0  0  0  0  0  0  0  0  0
   45.1709   14.3958  -14.5597 C   0  0  0  0  0  0  0  0  0  0  0  0
   44.6351   15.4176  -13.7034 N   0  0  0  0  0  0  0  0  0  0  0  0
   44.2807   13.6177  -15.2702 C   0  0  0  0  0  0  0  0  0  0  0  0
   42.9329   13.6035  -15.3430 N   0  0  0  0  0  0  0  0  0  0  0  0
   43.7501   15.9190  -13.9265 H   0  0  0  0  0  0  0  0  0  0  0  0
   45.1832   15.6287  -12.8451 H   0  0  0  0  0  0  0  0  0  0  0  0
  1  2  1  0  0  0
  2  3  2  0  0  0
  3  4  1  0  0  0
  4  5  2  0  0  0
  5  6  1  0  0  0
  6 24  1  0  0  0
 24 25  1  0  0  0
 25 26  2  0  0  0
 26 27  1  0  0  0
 27 28  2  0  0  0
 28 29  1  0  0  0
 29 30  2  0  0  0
 28 31  1  0  0  0
 31 32  2  0  0  0
 32 33  1  0  0  0
 33 34  1  0  0  0
 34 35  2  0  0  0
 35 36  1  0  0  0
 36 37  2  0  0  0
 37 38  1  0  0  0
 37 39  1  0  0  0
 39 40  2  0  0  0
  4  7  1  0  0  0
  7  8  2  0  0  0
  8  9  1  0  0  0
  9 10  2  0  0  0
 10 11  1  0  0  0
 11 12  2  0  0  0
 11 13  1  0  0  0
 13 14  3  0  0  0
 14 15  1  0  0  0
 15 16  1  0  0  0
 16 18  1  0  0  0
 18 19  2  0  0  0
 19 20  1  0  0  0
 20 21  2  0  0  0
 21 22  1  0  0  0
 22 23  2  0  0  0
  6  2  1  0  0  0
 30 25  1  0  0  0
 40 31  1  0  0  0
 12  7  1  0  0  0
 23 18  1  0  0  0
 39 33  1  0  0  0
 38 41  1  0  0  0
 38 42  1  0  0  0
 16 17  1  0  0  0
M  END
> <minimizedAffinity>
-10.24400

> <CNNscore>
0.1165783554

> <CNNaffinity>
6.5413198471

> <CNN_VS>
0.7625762820

> <CNNaffinity_variance>
0.2841806412

$$$$
[H]c1nc(N([H])[H])c2nc(-c3c([H])c([H])c(C([H])([H])n4nc(-c5c([H])c([H])c([H])c(C#CC([H])([H])N([H])c6c([H])c([H])nc([H])c6[H])c5[H])c([H])c4C([H])([H])[H])c([H])c3[H])c([H])n2n1


 42 47  0  0  0  0  0  0  0  0999 V2000
   34.1230   10.0411  -16.7909 C   0  0  0  0  0  0  0  0  0  0  0  0
   34.7081   11.2117  -16.0858 C   0  0  0  0  0  0  0  0  0  0  0  0
   34.1322   11.8828  -14.9985 C   0  0  0  0  0  0  0  0  0  0  0  0
   34.9606   12.9078  -14.6105 C   0  0  0  0  0  0  0  0  0  0  0  0
   36.0096   12.8550  -15.4442 N   0  0  0  0  0  0  0  0  0  0  0  0
   35.8613   11.8545  -16.3151 N   0  0  0  0  0  0  0  0  0  0  0  0
   34.7463   13.8700  -13.5069 C   0  0  0  0  0  0  0  0  0  0  0  0
   33.4737   14.1819  -13.0875 C   0  0  0  0  0  0  0  0  0  0  0  0
   33.3027   15.0774  -12.0620 C   0  0  0  0  0  0  0  0  0  0  0  0
   34.4026   15.6508  -11.4673 C   0  0  0  0  0  0  0  0  0  0  0  0
   35.6969   15.3660  -11.8570 C   0  0  0  0  0  0  0  0  0  0  0  0
   35.8229   14.4614  -12.8905 C   0  0  0  0  0  0  0  0  0  0  0  0
   36.8404   15.9700  -11.2298 C   0  0  0  0  0  0  0  0  0  0  0  0
   37.8002   16.4917  -10.7185 C   0  0  0  0  0  0  0  0  0  0  0  0
   38.9667   17.1350  -10.0676 C   0  0  0  0  0  0  0  0  0  0  0  0
   38.7186   17.4965   -8.7053 N   0  0  0  0  0  0  0  0  0  0  0  0
   39.2741   17.0308   -7.9555 H   0  0  0  0  0  0  0  0  0  0  0  0
   37.7541   18.4564   -8.3287 C   0  0  0  0  0  0  0  0  0  0  0  0
   37.9191   19.7589   -8.6678 C   0  0  0  0  0  0  0  0  0  0  0  0
   36.9440   20.6757   -8.2709 C   0  0  0  0  0  0  0  0  0  0  0  0
   35.8688   20.2810   -7.5713 N   0  0  0  0  0  0  0  0  0  0  0  0
   35.6866   18.9882   -7.2242 C   0  0  0  0  0  0  0  0  0  0  0  0
   36.6338   18.0841   -7.6071 C   0  0  0  0  0  0  0  0  0  0  0  0
   36.8129   11.5243  -17.3553 C   0  0  0  0  0  0  0  0  0  0  0  0
   38.2077   11.8012  -17.0202 C   0  0  0  0  0  0  0  0  0  0  0  0
   39.2158   11.3723  -17.8494 C   0  0  0  0  0  0  0  0  0  0  0  0
   40.5545   11.6437  -17.5276 C   0  0  0  0  0  0  0  0  0  0  0  0
   40.8855   12.3389  -16.3852 C   0  0  0  0  0  0  0  0  0  0  0  0
   39.8657   12.7609  -15.5662 C   0  0  0  0  0  0  0  0  0  0  0  0
   38.5365   12.4970  -15.8763 C   0  0  0  0  0  0  0  0  0  0  0  0
   42.2688   12.6344  -16.0273 C   0  0  0  0  0  0  0  0  0  0  0  0
   43.4180   12.1194  -16.5861 C   0  0  0  0  0  0  0  0  0  0  0  0
   44.4981   12.6384  -15.9819 N   0  0  0  0  0  0  0  0  0  0  0  0
   45.8188   12.4813  -16.1346 N   0  0  0  0  0  0  0  0  0  0  0  0
   46.7210   13.1187  -15.4006 C   0  0  0  0  0  0  0  0  0  0  0  0
   46.2809   13.9689  -14.4515 N   0  0  0  0  0  0  0  0  0  0  0  0
   44.9560   14.1558  -14.2652 C   0  0  0  0  0  0  0  0  0  0  0  0
   44.4560   15.0549  -13.2622 N   0  0  0  0  0  0  0  0  0  0  0  0
   44.0374   13.4809  -15.0419 C   0  0  0  0  0  0  0  0  0  0  0  0
   42.6879   13.4785  -15.0692 N   0  0  0  0  0  0  0  0  0  0  0  0
   43.5669   15.5829  -13.3856 H   0  0  0  0  0  0  0  0  0  0  0  0
   45.0344   15.1487  -12.4029 H   0  0  0  0  0  0  0  0  0  0  0  0
  1  2  1  0  0  0
  2  3  2  0  0  0
  3  4  1  0  0  0
  4  5  2  0  0  0
  5  6  1  0  0  0
  6 24  1  0  0  0
 24 25  1  0  0  0
 25 26  2  0  0  0
 26 27  1  0  0  0
 27 28  2  0  0  0
 28 29  1  0  0  0
 29 30  2  0  0  0
 28 31  1  0  0  0
 31 32  2  0  0  0
 32 33  1  0  0  0
 33 34  1  0  0  0
 34 35  2  0  0  0
 35 36  1  0  0  0
 36 37  2  0  0  0
 37 38  1  0  0  0
 37 39  1  0  0  0
 39 40  2  0  0  0
  4  7  1  0  0  0
  7  8  2  0  0  0
  8  9  1  0  0  0
  9 10  2  0  0  0
 10 11  1  0  0  0
 11 12  2  0  0  0
 11 13  1  0  0  0
 13 14  3  0  0  0
 14 15  1  0  0  0
 15 16  1  0  0  0
 16 18  1  0  0  0
 18 19  2  0  0  0
 19 20  1  0  0  0
 20 21  2  0  0  0
 21 22  1  0  0  0
 22 23  2  0  0  0
  6  2  1  0  0  0
 30 25  1  0  0  0
 40 31  1  0  0  0
 12  7  1  0  0  0
 23 18  1  0  0  0
 39 33  1  0  0  0
 38 41  1  0  0  0
 38 42  1  0  0  0
 16 17  1  0  0  0
M  END
> <minimizedAffinity>
-10.16339

> <CNNscore>
0.1034362167

> <CNNaffinity>
6.6646509171

> <CNN_VS>
0.6893662810

> <CNNaffinity_variance>
0.4438590109

$$$$
[H]c1nc(N([H])[H])c2nc(-c3c([H])c([H])c(C([H])([H])n4nc(-c5c([H])c([H])c([H])c(C#CC([H])([H])N([H])c6c([H])c([H])nc([H])c6[H])c5[H])c([H])c4C([H])([H])[H])c([H])c3[H])c([H])n2n1


 42 47  0  0  0  0  0  0  0  0999 V2000
   38.8347   10.5508  -19.4030 C   0  0  0  0  0  0  0  0  0  0  0  0
   38.4792   11.1626  -18.0957 C   0  0  0  0  0  0  0  0  0  0  0  0
   37.1934   11.2157  -17.5406 C   0  0  0  0  0  0  0  0  0  0  0  0
   37.2528   11.8508  -16.3238 C   0  0  0  0  0  0  0  0  0  0  0  0
   38.5431   12.1723  -16.1509 N   0  0  0  0  0  0  0  0  0  0  0  0
   39.2674   11.7667  -17.1959 N   0  0  0  0  0  0  0  0  0  0  0  0
   36.1334   12.1252  -15.3958 C   0  0  0  0  0  0  0  0  0  0  0  0
   34.8570   11.7090  -15.6964 C   0  0  0  0  0  0  0  0  0  0  0  0
   33.8368   11.9764  -14.8185 C   0  0  0  0  0  0  0  0  0  0  0  0
   34.1018   12.6553  -13.6519 C   0  0  0  0  0  0  0  0  0  0  0  0
   35.3677   13.0908  -13.3113 C   0  0  0  0  0  0  0  0  0  0  0  0
   36.3627   12.8011  -14.2214 C   0  0  0  0  0  0  0  0  0  0  0  0
   35.6353   13.7996  -12.0899 C   0  0  0  0  0  0  0  0  0  0  0  0
   35.8805   14.3900  -11.0671 C   0  0  0  0  0  0  0  0  0  0  0  0
   36.1704   15.1370   -9.8196 C   0  0  0  0  0  0  0  0  0  0  0  0
   35.3152   14.7662   -8.7337 N   0  0  0  0  0  0  0  0  0  0  0  0
   34.2826   14.8023   -8.8758 H   0  0  0  0  0  0  0  0  0  0  0  0
   35.8059   14.3531   -7.4759 C   0  0  0  0  0  0  0  0  0  0  0  0
   37.1254   14.0872   -7.3121 C   0  0  0  0  0  0  0  0  0  0  0  0
   37.5674   13.6765   -6.0531 C   0  0  0  0  0  0  0  0  0  0  0  0
   36.7102   13.5474   -5.0285 N   0  0  0  0  0  0  0  0  0  0  0  0
   35.3925   13.8077   -5.1718 C   0  0  0  0  0  0  0  0  0  0  0  0
   34.9501   14.2096   -6.3982 C   0  0  0  0  0  0  0  0  0  0  0  0
   40.6961   11.9609  -17.3291 C   0  0  0  0  0  0  0  0  0  0  0  0
   41.3205   12.6911  -16.2284 C   0  0  0  0  0  0  0  0  0  0  0  0
   40.5430   13.3592  -15.3135 C   0  0  0  0  0  0  0  0  0  0  0  0
   41.1450   14.0559  -14.2545 C   0  0  0  0  0  0  0  0  0  0  0  0
   42.5147   14.0860  -14.1092 C   0  0  0  0  0  0  0  0  0  0  0  0
   43.2783   13.4130  -15.0326 C   0  0  0  0  0  0  0  0  0  0  0  0
   42.6914   12.7199  -16.0852 C   0  0  0  0  0  0  0  0  0  0  0  0
   43.1659   14.8025  -13.0177 C   0  0  0  0  0  0  0  0  0  0  0  0
   42.6856   15.0299  -11.7467 C   0  0  0  0  0  0  0  0  0  0  0  0
   43.5815   15.7290  -11.0326 N   0  0  0  0  0  0  0  0  0  0  0  0
   43.6133   16.2006   -9.7800 N   0  0  0  0  0  0  0  0  0  0  0  0
   44.6353   16.8830   -9.2813 C   0  0  0  0  0  0  0  0  0  0  0  0
   45.6963   17.1119  -10.0809 N   0  0  0  0  0  0  0  0  0  0  0  0
   45.7037   16.6529  -11.3514 C   0  0  0  0  0  0  0  0  0  0  0  0
   46.8192   16.8805  -12.2279 N   0  0  0  0  0  0  0  0  0  0  0  0
   44.6282   15.9455  -11.8468 C   0  0  0  0  0  0  0  0  0  0  0  0
   44.3767   15.3847  -13.0487 N   0  0  0  0  0  0  0  0  0  0  0  0
   47.0909   16.1988  -12.9667 H   0  0  0  0  0  0  0  0  0  0  0  0
   47.3417   17.7679  -12.0820 H   0  0  0  0  0  0  0  0  0  0  0  0
  1  2  1  0  0  0
  2  3  2  0  0  0
  3  4  1  0  0  0
  4  5  2  0  0  0
  5  6  1  0  0  0
  6 24  1  0  0  0
 24 25  1  0  0  0
 25 26  2  0  0  0
 26 27  1  0  0  0
 27 28  2  0  0  0
 28 29  1  0  0  0
 29 30  2  0  0  0
 28 31  1  0  0  0
 31 32  2  0  0  0
 32 33  1  0  0  0
 33 34  1  0  0  0
 34 35  2  0  0  0
 35 36  1  0  0  0
 36 37  2  0  0  0
 37 38  1  0  0  0
 37 39  1  0  0  0
 39 40  2  0  0  0
  4  7  1  0  0  0
  7  8  2  0  0  0
  8  9  1  0  0  0
  9 10  2  0  0  0
 10 11  1  0  0  0
 11 12  2  0  0  0
 11 13  1  0  0  0
 13 14  3  0  0  0
 14 15  1  0  0  0
 15 16  1  0  0  0
 16 18  1  0  0  0
 18 19  2  0  0  0
 19 20  1  0  0  0
 20 21  2  0  0  0
 21 22  1  0  0  0
 22 23  2  0  0  0
  6  2  1  0  0  0
 30 25  1  0  0  0
 40 31  1  0  0  0
 12  7  1  0  0  0
 23 18  1  0  0  0
 39 33  1  0  0  0
 38 41  1  0  0  0
 38 42  1  0  0  0
 16 17  1  0  0  0
M  END
> <minimizedAffinity>
-9.29618

> <CNNscore>
0.0982456729

> <CNNaffinity>
7.0666174889

> <CNN_VS>
0.6942645907

> <CNNaffinity_variance>
0.0491002798

$$$$
[H]c1nc(N([H])[H])c2nc(-c3c([H])c([H])c(C([H])([H])n4nc(-c5c([H])c([H])c([H])c(C#CC([H])([H])N([H])c6c([H])c([H])nc([H])c6[H])c5[H])c([H])c4C([H])([H])[H])c([H])c3[H])c([H])n2n1


 42 47  0  0  0  0  0  0  0  0999 V2000
   39.9926   10.6691  -18.4048 C   0  0  0  0  0  0  0  0  0  0  0  0
   39.2610   11.5305  -17.4390 C   0  0  0  0  0  0  0  0  0  0  0  0
   37.9625   11.3042  -16.9625 C   0  0  0  0  0  0  0  0  0  0  0  0
   37.6232   12.3048  -16.0844 C   0  0  0  0  0  0  0  0  0  0  0  0
   38.6915   13.1137  -16.0338 N   0  0  0  0  0  0  0  0  0  0  0  0
   39.6583   12.6576  -16.8328 N   0  0  0  0  0  0  0  0  0  0  0  0
   36.3498   12.4622  -15.3473 C   0  0  0  0  0  0  0  0  0  0  0  0
   35.2231   11.7790  -15.7428 C   0  0  0  0  0  0  0  0  0  0  0  0
   34.0548   11.9429  -15.0418 C   0  0  0  0  0  0  0  0  0  0  0  0
   34.0245   12.7859  -13.9552 C   0  0  0  0  0  0  0  0  0  0  0  0
   35.1318   13.4904  -13.5243 C   0  0  0  0  0  0  0  0  0  0  0  0
   36.2840   13.2963  -14.2570 C   0  0  0  0  0  0  0  0  0  0  0  0
   35.0908   14.3692  -12.3877 C   0  0  0  0  0  0  0  0  0  0  0  0
   35.0656   15.1217  -11.4455 C   0  0  0  0  0  0  0  0  0  0  0  0
   35.0088   16.0434  -10.2855 C   0  0  0  0  0  0  0  0  0  0  0  0
   34.3697   15.4658   -9.1426 N   0  0  0  0  0  0  0  0  0  0  0  0
   34.7904   14.6143   -8.7118 H   0  0  0  0  0  0  0  0  0  0  0  0
   33.1932   15.9967   -8.5703 C   0  0  0  0  0  0  0  0  0  0  0  0
   31.9951   15.8104   -9.1771 C   0  0  0  0  0  0  0  0  0  0  0  0
   30.8576   16.3567   -8.5798 C   0  0  0  0  0  0  0  0  0  0  0  0
   30.9445   17.0492   -7.4335 N   0  0  0  0  0  0  0  0  0  0  0  0
   32.1287   17.2454   -6.8139 C   0  0  0  0  0  0  0  0  0  0  0  0
   33.2466   16.7158   -7.3894 C   0  0  0  0  0  0  0  0  0  0  0  0
   40.9439   13.2987  -17.0138 C   0  0  0  0  0  0  0  0  0  0  0  0
   41.7760   13.3528  -15.8142 C   0  0  0  0  0  0  0  0  0  0  0  0
   43.1000   12.9905  -15.8747 C   0  0  0  0  0  0  0  0  0  0  0  0
   43.8982   13.0479  -14.7220 C   0  0  0  0  0  0  0  0  0  0  0  0
   43.3786   13.4643  -13.5159 C   0  0  0  0  0  0  0  0  0  0  0  0
   42.0527   13.8232  -13.4719 C   0  0  0  0  0  0  0  0  0  0  0  0
   41.2537   13.7698  -14.6083 C   0  0  0  0  0  0  0  0  0  0  0  0
   44.1864   13.5332  -12.3028 C   0  0  0  0  0  0  0  0  0  0  0  0
   45.3912   14.1763  -12.1214 C   0  0  0  0  0  0  0  0  0  0  0  0
   45.8194   14.0079  -10.8607 N   0  0  0  0  0  0  0  0  0  0  0  0
   46.8989   14.4120  -10.1798 N   0  0  0  0  0  0  0  0  0  0  0  0
   47.1135   14.1144   -8.9053 C   0  0  0  0  0  0  0  0  0  0  0  0
   46.1937   13.3651   -8.2650 N   0  0  0  0  0  0  0  0  0  0  0  0
   45.0902   12.9370   -8.9163 C   0  0  0  0  0  0  0  0  0  0  0  0
   44.0922   12.1373   -8.2617 N   0  0  0  0  0  0  0  0  0  0  0  0
   44.8900   13.2602  -10.2422 C   0  0  0  0  0  0  0  0  0  0  0  0
   43.9013   12.9727  -11.1151 N   0  0  0  0  0  0  0  0  0  0  0  0
   43.0837   12.1939   -8.5149 H   0  0  0  0  0  0  0  0  0  0  0  0
   44.4353   11.4964   -7.5179 H   0  0  0  0  0  0  0  0  0  0  0  0
  1  2  1  0  0  0
  2  3  2  0  0  0
  3  4  1  0  0  0
  4  5  2  0  0  0
  5  6  1  0  0  0
  6 24  1  0  0  0
 24 25  1  0  0  0
 25 26  2  0  0  0
 26 27  1  0  0  0
 27 28  2  0  0  0
 28 29  1  0  0  0
 29 30  2  0  0  0
 28 31  1  0  0  0
 31 32  2  0  0  0
 32 33  1  0  0  0
 33 34  1  0  0  0
 34 35  2  0  0  0
 35 36  1  0  0  0
 36 37  2  0  0  0
 37 38  1  0  0  0
 37 39  1  0  0  0
 39 40  2  0  0  0
  4  7  1  0  0  0
  7  8  2  0  0  0
  8  9  1  0  0  0
  9 10  2  0  0  0
 10 11  1  0  0  0
 11 12  2  0  0  0
 11 13  1  0  0  0
 13 14  3  0  0  0
 14 15  1  0  0  0
 15 16  1  0  0  0
 16 18  1  0  0  0
 18 19  2  0  0  0
 19 20  1  0  0  0
 20 21  2  0  0  0
 21 22  1  0  0  0
 22 23  2  0  0  0
  6  2  1  0  0  0
 30 25  1  0  0  0
 40 31  1  0  0  0
 12  7  1  0  0  0
 23 18  1  0  0  0
 39 33  1  0  0  0
 38 41  1  0  0  0
 38 42  1  0  0  0
 16 17  1  0  0  0
M  END
> <minimizedAffinity>
-8.88982

> <CNNscore>
0.0850570723

> <CNNaffinity>
6.7810730934

> <CNN_VS>
0.5767782331

> <CNNaffinity_variance>
0.1729228348

$$$$
[H]c1nc(N([H])[H])c2nc(-c3c([H])c([H])c(C([H])([H])n4nc(-c5c([H])c([H])c([H])c(C#CC([H])([H])N([H])c6c([H])c([H])nc([H])c6[H])c5[H])c([H])c4C([H])([H])[H])c([H])c3[H])c([H])n2n1


 42 47  0  0  0  0  0  0  0  0999 V2000
   37.7963   18.3860   -7.6815 C   0  0  0  0  0  0  0  0  0  0  0  0
   38.3885   17.0326   -7.8478 C   0  0  0  0  0  0  0  0  0  0  0  0
   39.5335   16.5554   -7.1956 C   0  0  0  0  0  0  0  0  0  0  0  0
   39.7746   15.2631   -7.5943 C   0  0  0  0  0  0  0  0  0  0  0  0
   38.7984   14.9696   -8.4655 N   0  0  0  0  0  0  0  0  0  0  0  0
   37.9801   16.0131   -8.6157 N   0  0  0  0  0  0  0  0  0  0  0  0
   40.8768   14.3771   -7.1584 C   0  0  0  0  0  0  0  0  0  0  0  0
   40.8567   13.7968   -5.9112 C   0  0  0  0  0  0  0  0  0  0  0  0
   41.8913   12.9792   -5.5316 C   0  0  0  0  0  0  0  0  0  0  0  0
   42.9331   12.7504   -6.4003 C   0  0  0  0  0  0  0  0  0  0  0  0
   42.9929   13.3125   -7.6607 C   0  0  0  0  0  0  0  0  0  0  0  0
   41.9332   14.1269   -8.0011 C   0  0  0  0  0  0  0  0  0  0  0  0
   44.0856   13.0677   -8.5618 C   0  0  0  0  0  0  0  0  0  0  0  0
   45.0082   12.8826   -9.3163 C   0  0  0  0  0  0  0  0  0  0  0  0
   46.1511   12.6361  -10.2281 C   0  0  0  0  0  0  0  0  0  0  0  0
   45.7708   11.9645  -11.4332 N   0  0  0  0  0  0  0  0  0  0  0  0
   45.7049   10.9238  -11.4261 H   0  0  0  0  0  0  0  0  0  0  0  0
   45.4801   12.6476  -12.6343 C   0  0  0  0  0  0  0  0  0  0  0  0
   46.3761   12.6496  -13.6521 C   0  0  0  0  0  0  0  0  0  0  0  0
   46.0507   13.3417  -14.8201 C   0  0  0  0  0  0  0  0  0  0  0  0
   44.8811   13.9896  -14.9358 N   0  0  0  0  0  0  0  0  0  0  0  0
   43.9757   13.9992  -13.9333 C   0  0  0  0  0  0  0  0  0  0  0  0
   44.2839   13.3259  -12.7874 C   0  0  0  0  0  0  0  0  0  0  0  0
   36.8247   16.0310   -9.4883 C   0  0  0  0  0  0  0  0  0  0  0  0
   36.9818   15.2752  -10.7286 C   0  0  0  0  0  0  0  0  0  0  0  0
   38.0237   15.5533  -11.5799 C   0  0  0  0  0  0  0  0  0  0  0  0
   38.1751   14.8227  -12.7684 C   0  0  0  0  0  0  0  0  0  0  0  0
   37.2921   13.8204  -13.1056 C   0  0  0  0  0  0  0  0  0  0  0  0
   36.2551   13.5545  -12.2437 C   0  0  0  0  0  0  0  0  0  0  0  0
   36.0967   14.2727  -11.0639 C   0  0  0  0  0  0  0  0  0  0  0  0
   37.4265   13.0458  -14.3348 C   0  0  0  0  0  0  0  0  0  0  0  0
   38.5741   12.7820  -15.0498 C   0  0  0  0  0  0  0  0  0  0  0  0
   38.2861   12.0331  -16.1257 N   0  0  0  0  0  0  0  0  0  0  0  0
   39.0128   11.5129  -17.1224 N   0  0  0  0  0  0  0  0  0  0  0  0
   38.4946   10.7856  -18.1030 C   0  0  0  0  0  0  0  0  0  0  0  0
   37.1655   10.5605  -18.0920 N   0  0  0  0  0  0  0  0  0  0  0  0
   36.3965   11.0678  -17.1039 C   0  0  0  0  0  0  0  0  0  0  0  0
   34.9776   10.8456  -17.0643 N   0  0  0  0  0  0  0  0  0  0  0  0
   36.9596   11.8213  -16.0950 C   0  0  0  0  0  0  0  0  0  0  0  0
   36.4390   12.4343  -15.0109 N   0  0  0  0  0  0  0  0  0  0  0  0
   34.4531   10.7748  -16.1675 H   0  0  0  0  0  0  0  0  0  0  0  0
   34.5025   10.7591  -17.9855 H   0  0  0  0  0  0  0  0  0  0  0  0
  1  2  1  0  0  0
  2  3  2  0  0  0
  3  4  1  0  0  0
  4  5  2  0  0  0
  5  6  1  0  0  0
  6 24  1  0  0  0
 24 25  1  0  0  0
 25 26  2  0  0  0
 26 27  1  0  0  0
 27 28  2  0  0  0
 28 29  1  0  0  0
 29 30  2  0  0  0
 28 31  1  0  0  0
 31 32  2  0  0  0
 32 33  1  0  0  0
 33 34  1  0  0  0
 34 35  2  0  0  0
 35 36  1  0  0  0
 36 37  2  0  0  0
 37 38  1  0  0  0
 37 39  1  0  0  0
 39 40  2  0  0  0
  4  7  1  0  0  0
  7  8  2  0  0  0
  8  9  1  0  0  0
  9 10  2  0  0  0
 10 11  1  0  0  0
 11 12  2  0  0  0
 11 13  1  0  0  0
 13 14  3  0  0  0
 14 15  1  0  0  0
 15 16  1  0  0  0
 16 18  1  0  0  0
 18 19  2  0  0  0
 19 20  1  0  0  0
 20 21  2  0  0  0
 21 22  1  0  0  0
 22 23  2  0  0  0
  6  2  1  0  0  0
 30 25  1  0  0  0
 40 31  1  0  0  0
 12  7  1  0  0  0
 23 18  1  0  0  0
 39 33  1  0  0  0
 38 41  1  0  0  0
 38 42  1  0  0  0
 16 17  1  0  0  0
M  END
> <minimizedAffinity>
-7.68153

> <CNNscore>
0.0774721205

> <CNNaffinity>
6.7929344177

> <CNN_VS>
0.5262630582

> <CNNaffinity_variance>
0.2734817863

$$$$
[H]OC(=O)C1([H])N2C(=O)C(Br)=C(O[H])C2=C([H])[C@@]([H])(c2c([H])c([H])c([H])c(F)c2[H])N1S(=O)(=O)C([H])(C([H])([H])[H])C([H])([H])[H]


 30 32  0  0  0  0  0  0  0  0999 V2000
   35.7092   15.1757   -7.0194 N   0  0  0  0  0  0  0  0  0  0  0  0
   35.5476   16.2536   -7.8730 C   0  0  0  0  0  0  0  0  0  0  0  0
   34.1622   16.5692   -8.2549 C   0  0  0  0  0  0  0  0  0  0  0  0
   33.1349   15.8716   -7.8492 C   0  0  0  0  0  0  0  0  0  0  0  0
   31.6809   16.0072   -8.1092 C   0  0  0  0  0  0  0  0  0  0  0  0
   31.1384   17.0083   -8.8967 O   0  0  0  0  0  0  0  0  0  0  0  0
   31.0248   15.0561   -7.4910 C   0  0  0  0  0  0  0  0  0  0  0  0
   29.1446   14.7374   -7.4684 Br  0  0  0  0  0  0  0  0  0  0  0  0
   32.0158   14.2288   -6.7790 C   0  0  0  0  0  0  0  0  0  0  0  0
   31.7386   13.2270   -6.0850 O   0  0  0  0  0  0  0  0  0  0  0  0
   33.3152   14.7540   -7.0141 N   0  0  0  0  0  0  0  0  0  0  0  0
   34.6301   14.3877   -6.5791 C   0  0  0  0  0  0  0  0  0  0  0  0
   30.9124   17.9275   -8.5896 H   0  0  0  0  0  0  0  0  0  0  0  0
   36.1611   17.5510   -7.4617 C   0  0  0  0  0  0  0  0  0  0  0  0
   36.0436   18.0194   -6.1698 C   0  0  0  0  0  0  0  0  0  0  0  0
   36.6152   19.2049   -5.7542 C   0  0  0  0  0  0  0  0  0  0  0  0
   37.3381   19.9715   -6.6467 C   0  0  0  0  0  0  0  0  0  0  0  0
   37.4729   19.5392   -7.9248 C   0  0  0  0  0  0  0  0  0  0  0  0
   38.1797   20.2877   -8.7993 F   0  0  0  0  0  0  0  0  0  0  0  0
   36.8833   18.3323   -8.3219 C   0  0  0  0  0  0  0  0  0  0  0  0
   34.7074   14.3172   -5.0768 C   0  0  0  0  0  0  0  0  0  0  0  0
   35.0352   13.1329   -4.4271 O   0  0  0  0  0  0  0  0  0  0  0  0
   34.4761   15.3321   -4.3788 O   0  0  0  0  0  0  0  0  0  0  0  0
   34.6347   12.9434   -3.4960 H   0  0  0  0  0  0  0  0  0  0  0  0
   37.2119   14.3848   -6.9963 S   0  0  0  0  0  0  0  0  0  0  0  0
   37.8698   14.6032   -8.3603 O   0  0  0  0  0  0  0  0  0  0  0  0
   36.9669   12.8990   -6.8386 O   0  0  0  0  0  0  0  0  0  0  0  0
   39.2723   16.0346   -6.4625 C   0  0  0  0  0  0  0  0  0  0  0  0
   38.3709   14.9357   -5.8067 C   0  0  0  0  0  0  0  0  0  0  0  0
   39.3254   13.8856   -5.3580 C   0  0  0  0  0  0  0  0  0  0  0  0
 28 29  1  0  0  0
 29 30  1  0  0  0
 29 25  1  0  0  0
 25 26  2  0  0  0
 25 27  2  0  0  0
 25  1  1  0  0  0
  1  2  1  0  0  0
  2  3  1  0  0  0
  3  4  2  0  0  0
  4  5  1  0  0  0
  5  6  1  0  0  0
  5  7  2  0  0  0
  7  8  1  0  0  0
  7  9  1  0  0  0
  9 10  2  0  0  0
  9 11  1  0  0  0
 11 12  1  0  0  0
 12 21  1  0  0  0
 21 22  1  0  0  0
 21 23  2  0  0  0
  2 14  1  0  0  0
 14 15  2  0  0  0
 15 16  1  0  0  0
 16 17  2  0  0  0
 17 18  1  0  0  0
 18 19  1  0  0  0
 18 20  2  0  0  0
 12  1  1  0  0  0
 20 14  1  0  0  0
 11  4  1  0  0  0
  6 13  1  0  0  0
 22 24  1  0  0  0
M  END
> <minimizedAffinity>
-6.58370

> <CNNscore>
0.4431626797

> <CNNaffinity>
4.9675884247

> <CNN_VS>
2.2014498711

> <CNNaffinity_variance>
0.1644227803

$$$$
[H]OC(=O)C1([H])N2C(=O)C(Br)=C(O[H])C2=C([H])[C@@]([H])(c2c([H])c([H])c([H])c(F)c2[H])N1S(=O)(=O)C([H])(C([H])([H])[H])C([H])([H])[H]


 30 32  0  0  0  0  0  0  0  0999 V2000
   39.9358   15.3729   -6.8101 N   0  0  0  0  0  0  0  0  0  0  0  0
   40.0403   16.1005   -7.9832 C   0  0  0  0  0  0  0  0  0  0  0  0
   41.1323   15.7083   -8.8880 C   0  0  0  0  0  0  0  0  0  0  0  0
   41.9808   14.7550   -8.6090 C   0  0  0  0  0  0  0  0  0  0  0  0
   43.1370   14.2075   -9.3597 C   0  0  0  0  0  0  0  0  0  0  0  0
   43.5225   14.6688  -10.6068 O   0  0  0  0  0  0  0  0  0  0  0  0
   43.7076   13.2515   -8.6685 C   0  0  0  0  0  0  0  0  0  0  0  0
   45.2266   12.1976   -9.1367 Br  0  0  0  0  0  0  0  0  0  0  0  0
   42.9545   13.1093   -7.4091 C   0  0  0  0  0  0  0  0  0  0  0  0
   43.2262   12.2877   -6.5072 O   0  0  0  0  0  0  0  0  0  0  0  0
   41.8890   14.0494   -7.3955 N   0  0  0  0  0  0  0  0  0  0  0  0
   40.8433   14.3546   -6.4651 C   0  0  0  0  0  0  0  0  0  0  0  0
   43.1405   14.3727  -11.4767 H   0  0  0  0  0  0  0  0  0  0  0  0
   38.8206   16.2002   -8.8383 C   0  0  0  0  0  0  0  0  0  0  0  0
   38.3320   17.4237   -9.2465 C   0  0  0  0  0  0  0  0  0  0  0  0
   37.2185   17.5480  -10.0524 C   0  0  0  0  0  0  0  0  0  0  0  0
   36.5486   16.4191  -10.4810 C   0  0  0  0  0  0  0  0  0  0  0  0
   37.0033   15.2005  -10.0978 C   0  0  0  0  0  0  0  0  0  0  0  0
   36.3493   14.0951  -10.5161 F   0  0  0  0  0  0  0  0  0  0  0  0
   38.1358   15.1011   -9.2796 C   0  0  0  0  0  0  0  0  0  0  0  0
   40.0371   13.1279   -6.1292 C   0  0  0  0  0  0  0  0  0  0  0  0
   40.4469   12.2462   -5.1359 O   0  0  0  0  0  0  0  0  0  0  0  0
   38.9738   12.8766   -6.7433 O   0  0  0  0  0  0  0  0  0  0  0  0
   40.2193   11.2447   -5.2281 H   0  0  0  0  0  0  0  0  0  0  0  0
   39.1447   16.0865   -5.4875 S   0  0  0  0  0  0  0  0  0  0  0  0
   39.8347   15.5915   -4.2148 O   0  0  0  0  0  0  0  0  0  0  0  0
   37.7162   15.5853   -5.4586 O   0  0  0  0  0  0  0  0  0  0  0  0
   40.6382   18.2929   -5.0964 C   0  0  0  0  0  0  0  0  0  0  0  0
   39.1738   17.8341   -5.4049 C   0  0  0  0  0  0  0  0  0  0  0  0
   38.3606   18.4025   -4.2955 C   0  0  0  0  0  0  0  0  0  0  0  0
 28 29  1  0  0  0
 29 30  1  0  0  0
 29 25  1  0  0  0
 25 26  2  0  0  0
 25 27  2  0  0  0
 25  1  1  0  0  0
  1  2  1  0  0  0
  2  3  1  0  0  0
  3  4  2  0  0  0
  4  5  1  0  0  0
  5  6  1  0  0  0
  5  7  2  0  0  0
  7  8  1  0  0  0
  7  9  1  0  0  0
  9 10  2  0  0  0
  9 11  1  0  0  0
 11 12  1  0  0  0
 12 21  1  0  0  0
 21 22  1  0  0  0
 21 23  2  0  0  0
  2 14  1  0  0  0
 14 15  2  0  0  0
 15 16  1  0  0  0
 16 17  2  0  0  0
 17 18  1  0  0  0
 18 19  1  0  0  0
 18 20  2  0  0  0
 12  1  1  0  0  0
 20 14  1  0  0  0
 11  4  1  0  0  0
  6 13  1  0  0  0
 22 24  1  0  0  0
M  END
> <minimizedAffinity>
-5.41993

> <CNNscore>
0.4161144793

> <CNNaffinity>
4.6088457108

> <CNN_VS>
1.9178074598

> <CNNaffinity_variance>
0.2887000442

$$$$
[H]OC(=O)C1([H])N2C(=O)C(Br)=C(O[H])C2=C([H])[C@@]([H])(c2c([H])c([H])c([H])c(F)c2[H])N1S(=O)(=O)C([H])(C([H])([H])[H])C([H])([H])[H]


 30 32  0  0  0  0  0  0  0  0999 V2000
   38.9755   15.5044   -5.4069 N   0  0  0  0  0  0  0  0  0  0  0  0
   39.1813   16.8732   -5.3861 C   0  0  0  0  0  0  0  0  0  0  0  0
   40.5192   17.3287   -5.7954 C   0  0  0  0  0  0  0  0  0  0  0  0
   41.4782   16.5087   -6.1335 C   0  0  0  0  0  0  0  0  0  0  0  0
   42.8767   16.7457   -6.5674 C   0  0  0  0  0  0  0  0  0  0  0  0
   43.4281   18.0083   -6.7033 O   0  0  0  0  0  0  0  0  0  0  0  0
   43.4761   15.6021   -6.7911 C   0  0  0  0  0  0  0  0  0  0  0  0
   45.2692   15.2983   -7.3656 Br  0  0  0  0  0  0  0  0  0  0  0  0
   42.4998   14.5322   -6.5162 C   0  0  0  0  0  0  0  0  0  0  0  0
   42.7353   13.3096   -6.6248 O   0  0  0  0  0  0  0  0  0  0  0  0
   41.2695   15.1177   -6.1123 N   0  0  0  0  0  0  0  0  0  0  0  0
   39.9898   14.5894   -5.7440 C   0  0  0  0  0  0  0  0  0  0  0  0
   43.3473   18.5917   -7.5055 H   0  0  0  0  0  0  0  0  0  0  0  0
   38.2142   17.7229   -6.1422 C   0  0  0  0  0  0  0  0  0  0  0  0
   37.8283   17.3971   -7.4257 C   0  0  0  0  0  0  0  0  0  0  0  0
   36.9222   18.1513   -8.1433 C   0  0  0  0  0  0  0  0  0  0  0  0
   36.3651   19.2812   -7.5777 C   0  0  0  0  0  0  0  0  0  0  0  0
   36.7231   19.6293   -6.3170 C   0  0  0  0  0  0  0  0  0  0  0  0
   36.1792   20.7341   -5.7621 F   0  0  0  0  0  0  0  0  0  0  0  0
   37.6447   18.8470   -5.6095 C   0  0  0  0  0  0  0  0  0  0  0  0
   39.4430   13.6866   -6.8180 C   0  0  0  0  0  0  0  0  0  0  0  0
   39.0547   14.1905   -8.0539 O   0  0  0  0  0  0  0  0  0  0  0  0
   39.3267   12.4551   -6.6167 O   0  0  0  0  0  0  0  0  0  0  0  0
   38.2831   13.7334   -8.5627 H   0  0  0  0  0  0  0  0  0  0  0  0
   37.7443   14.8600   -4.4308 S   0  0  0  0  0  0  0  0  0  0  0  0
   37.3871   15.9146   -3.3815 O   0  0  0  0  0  0  0  0  0  0  0  0
   38.2965   13.6548   -3.6993 O   0  0  0  0  0  0  0  0  0  0  0  0
   35.2990   15.6934   -5.1909 C   0  0  0  0  0  0  0  0  0  0  0  0
   36.2440   14.4461   -5.2306 C   0  0  0  0  0  0  0  0  0  0  0  0
   35.4725   13.3687   -4.5531 C   0  0  0  0  0  0  0  0  0  0  0  0
 28 29  1  0  0  0
 29 30  1  0  0  0
 29 25  1  0  0  0
 25 26  2  0  0  0
 25 27  2  0  0  0
 25  1  1  0  0  0
  1  2  1  0  0  0
  2  3  1  0  0  0
  3  4  2  0  0  0
  4  5  1  0  0  0
  5  6  1  0  0  0
  5  7  2  0  0  0
  7  8  1  0  0  0
  7  9  1  0  0  0
  9 10  2  0  0  0
  9 11  1  0  0  0
 11 12  1  0  0  0
 12 21  1  0  0  0
 21 22  1  0  0  0
 21 23  2  0  0  0
  2 14  1  0  0  0
 14 15  2  0  0  0
 15 16  1  0  0  0
 16 17  2  0  0  0
 17 18  1  0  0  0
 18 19  1  0  0  0
 18 20  2  0  0  0
 12  1  1  0  0  0
 20 14  1  0  0  0
 11  4  1  0  0  0
  6 13  1  0  0  0
 22 24  1  0  0  0
M  END
> <minimizedAffinity>
-5.00852

> <CNNscore>
0.4056795537

> <CNNaffinity>
4.5447797775

> <CNN_VS>
1.8437242508

> <CNNaffinity_variance>
0.1071615666

$$$$
[H]OC(=O)C1([H])N2C(=O)C(Br)=C(O[H])C2=C([H])[C@@]([H])(c2c([H])c([H])c([H])c(F)c2[H])N1S(=O)(=O)C([H])(C([H])([H])[H])C([H])([H])[H]


 30 32  0  0  0  0  0  0  0  0999 V2000
   38.8309   15.8755   -6.8425 N   0  0  0  0  0  0  0  0  0  0  0  0
   39.0202   16.2082   -8.1729 C   0  0  0  0  0  0  0  0  0  0  0  0
   40.2117   15.6326   -8.8164 C   0  0  0  0  0  0  0  0  0  0  0  0
   41.0676   14.8757   -8.1832 C   0  0  0  0  0  0  0  0  0  0  0  0
   42.3142   14.2052   -8.6268 C   0  0  0  0  0  0  0  0  0  0  0  0
   42.8013   14.2824   -9.9204 O   0  0  0  0  0  0  0  0  0  0  0  0
   42.8532   13.5541   -7.6254 C   0  0  0  0  0  0  0  0  0  0  0  0
   44.4538   12.5171   -7.6127 Br  0  0  0  0  0  0  0  0  0  0  0  0
   41.9861   13.7572   -6.4506 C   0  0  0  0  0  0  0  0  0  0  0  0
   42.2014   13.2778   -5.3166 O   0  0  0  0  0  0  0  0  0  0  0  0
   40.8860   14.5772   -6.8205 N   0  0  0  0  0  0  0  0  0  0  0  0
   39.7417   15.0815   -6.1216 C   0  0  0  0  0  0  0  0  0  0  0  0
   42.5198   13.7046  -10.6801 H   0  0  0  0  0  0  0  0  0  0  0  0
   37.8878   15.9508   -9.1111 C   0  0  0  0  0  0  0  0  0  0  0  0
   37.1148   14.8136   -9.0034 C   0  0  0  0  0  0  0  0  0  0  0  0
   36.0500   14.5566   -9.8429 C   0  0  0  0  0  0  0  0  0  0  0  0
   35.7241   15.4567  -10.8382 C   0  0  0  0  0  0  0  0  0  0  0  0
   36.4641   16.5852  -10.9709 C   0  0  0  0  0  0  0  0  0  0  0  0
   36.1469   17.4669  -11.9438 F   0  0  0  0  0  0  0  0  0  0  0  0
   37.5399   16.8231  -10.1061 C   0  0  0  0  0  0  0  0  0  0  0  0
   38.9582   13.9660   -5.4817 C   0  0  0  0  0  0  0  0  0  0  0  0
   38.7161   13.9487   -4.1131 O   0  0  0  0  0  0  0  0  0  0  0  0
   38.5066   13.0252   -6.1757 O   0  0  0  0  0  0  0  0  0  0  0  0
   38.6406   13.0420   -3.6278 H   0  0  0  0  0  0  0  0  0  0  0  0
   37.8839   16.9067   -5.8812 S   0  0  0  0  0  0  0  0  0  0  0  0
   38.1193   18.3377   -6.3686 O   0  0  0  0  0  0  0  0  0  0  0  0
   38.3829   16.8209   -4.4543 O   0  0  0  0  0  0  0  0  0  0  0  0
   35.4994   17.4659   -4.7618 C   0  0  0  0  0  0  0  0  0  0  0  0
   36.1527   16.6571   -5.9320 C   0  0  0  0  0  0  0  0  0  0  0  0
   35.7356   15.2484   -5.6936 C   0  0  0  0  0  0  0  0  0  0  0  0
 28 29  1  0  0  0
 29 30  1  0  0  0
 29 25  1  0  0  0
 25 26  2  0  0  0
 25 27  2  0  0  0
 25  1  1  0  0  0
  1  2  1  0  0  0
  2  3  1  0  0  0
  3  4  2  0  0  0
  4  5  1  0  0  0
  5  6  1  0  0  0
  5  7  2  0  0  0
  7  8  1  0  0  0
  7  9  1  0  0  0
  9 10  2  0  0  0
  9 11  1  0  0  0
 11 12  1  0  0  0
 12 21  1  0  0  0
 21 22  1  0  0  0
 21 23  2  0  0  0
  2 14  1  0  0  0
 14 15  2  0  0  0
 15 16  1  0  0  0
 16 17  2  0  0  0
 17 18  1  0  0  0
 18 19  1  0  0  0
 18 20  2  0  0  0
 12  1  1  0  0  0
 20 14  1  0  0  0
 11  4  1  0  0  0
  6 13  1  0  0  0
 22 24  1  0  0  0
M  END
> <minimizedAffinity>
-5.23025

> <CNNscore>
0.3752765656

> <CNNaffinity>
4.6646289825

> <CNN_VS>
1.7505259514

> <CNNaffinity_variance>
0.1735402644

$$$$
[H]OC(=O)C1([H])N2C(=O)C(Br)=C(O[H])C2=C([H])[C@@]([H])(c2c([H])c([H])c([H])c(F)c2[H])N1S(=O)(=O)C([H])(C([H])([H])[H])C([H])([H])[H]


 30 32  0  0  0  0  0  0  0  0999 V2000
   34.9944   15.8016   -6.2387 N   0  0  0  0  0  0  0  0  0  0  0  0
   34.7405   15.4065   -7.5409 C   0  0  0  0  0  0  0  0  0  0  0  0
   33.4499   15.8352   -8.1029 C   0  0  0  0  0  0  0  0  0  0  0  0
   32.5702   16.5217   -7.4238 C   0  0  0  0  0  0  0  0  0  0  0  0
   31.2303   17.0459   -7.7846 C   0  0  0  0  0  0  0  0  0  0  0  0
   30.6571   16.8756   -9.0332 O   0  0  0  0  0  0  0  0  0  0  0  0
   30.7038   17.6721   -6.7609 C   0  0  0  0  0  0  0  0  0  0  0  0
   29.0092   18.5399   -6.6485 Br  0  0  0  0  0  0  0  0  0  0  0  0
   31.6741   17.5985   -5.6534 C   0  0  0  0  0  0  0  0  0  0  0  0
   31.4966   18.0914   -4.5187 O   0  0  0  0  0  0  0  0  0  0  0  0
   32.8226   16.8831   -6.0878 N   0  0  0  0  0  0  0  0  0  0  0  0
   34.0631   16.5223   -5.4687 C   0  0  0  0  0  0  0  0  0  0  0  0
   30.8182   17.4531   -9.8274 H   0  0  0  0  0  0  0  0  0  0  0  0
   35.7652   15.7463   -8.5721 C   0  0  0  0  0  0  0  0  0  0  0  0
   36.3265   14.7715   -9.3702 C   0  0  0  0  0  0  0  0  0  0  0  0
   37.2616   15.0563  -10.3446 C   0  0  0  0  0  0  0  0  0  0  0  0
   37.6687   16.3599  -10.5491 C   0  0  0  0  0  0  0  0  0  0  0  0
   37.1359   17.3423   -9.7813 C   0  0  0  0  0  0  0  0  0  0  0  0
   37.5329   18.6181   -9.9799 F   0  0  0  0  0  0  0  0  0  0  0  0
   36.1884   17.0274   -8.7990 C   0  0  0  0  0  0  0  0  0  0  0  0
   34.7720   17.7330   -4.9218 C   0  0  0  0  0  0  0  0  0  0  0  0
   34.9406   17.9122   -3.5537 O   0  0  0  0  0  0  0  0  0  0  0  0
   35.2265   18.6084   -5.6949 O   0  0  0  0  0  0  0  0  0  0  0  0
   34.9585   18.8695   -3.1710 H   0  0  0  0  0  0  0  0  0  0  0  0
   36.1142   14.9057   -5.3290 S   0  0  0  0  0  0  0  0  0  0  0  0
   36.0073   13.4455   -5.7733 O   0  0  0  0  0  0  0  0  0  0  0  0
   35.7077   14.9721   -3.8720 O   0  0  0  0  0  0  0  0  0  0  0  0
   38.6707   14.2767   -4.7627 C   0  0  0  0  0  0  0  0  0  0  0  0
   37.7992   15.3431   -5.5067 C   0  0  0  0  0  0  0  0  0  0  0  0
   38.1609   16.6369   -4.8660 C   0  0  0  0  0  0  0  0  0  0  0  0
 28 29  1  0  0  0
 29 30  1  0  0  0
 29 25  1  0  0  0
 25 26  2  0  0  0
 25 27  2  0  0  0
 25  1  1  0  0  0
  1  2  1  0  0  0
  2  3  1  0  0  0
  3  4  2  0  0  0
  4  5  1  0  0  0
  5  6  1  0  0  0
  5  7  2  0  0  0
  7  8  1  0  0  0
  7  9  1  0  0  0
  9 10  2  0  0  0
  9 11  1  0  0  0
 11 12  1  0  0  0
 12 21  1  0  0  0
 21 22  1  0  0  0
 21 23  2  0  0  0
  2 14  1  0  0  0
 14 15  2  0  0  0
 15 16  1  0  0  0
 16 17  2  0  0  0
 17 18  1  0  0  0
 18 19  1  0  0  0
 18 20  2  0  0  0
 12  1  1  0  0  0
 20 14  1  0  0  0
 11  4  1  0  0  0
  6 13  1  0  0  0
 22 24  1  0  0  0
M  END
> <minimizedAffinity>
-5.45901

> <CNNscore>
0.3460751176

> <CNNaffinity>
4.7196645737

> <CNN_VS>
1.6333584785

> <CNNaffinity_variance>
0.2213886529

$$$$
[H]OC(=O)C1([H])N2C(=O)C(Br)=C(O[H])C2=C([H])[C@@]([H])(c2c([H])c([H])c([H])c(F)c2[H])N1S(=O)(=O)C([H])(C([H])([H])[H])C([H])([H])[H]


 30 32  0  0  0  0  0  0  0  0999 V2000
   41.0743   14.1855   -7.4969 N   0  0  0  0  0  0  0  0  0  0  0  0
   41.6399   15.0785   -8.3908 C   0  0  0  0  0  0  0  0  0  0  0  0
   40.6964   15.8239   -9.2388 C   0  0  0  0  0  0  0  0  0  0  0  0
   39.4028   15.6491   -9.1891 C   0  0  0  0  0  0  0  0  0  0  0  0
   38.2889   16.2779   -9.9402 C   0  0  0  0  0  0  0  0  0  0  0  0
   38.4757   17.2569  -10.9011 O   0  0  0  0  0  0  0  0  0  0  0  0
   37.1448   15.7689   -9.5540 C   0  0  0  0  0  0  0  0  0  0  0  0
   35.3914   16.1952  -10.1716 Br  0  0  0  0  0  0  0  0  0  0  0  0
   37.4380   14.7650   -8.5150 C   0  0  0  0  0  0  0  0  0  0  0  0
   36.5752   14.0796   -7.9250 O   0  0  0  0  0  0  0  0  0  0  0  0
   38.8423   14.7096   -8.3047 N   0  0  0  0  0  0  0  0  0  0  0  0
   39.6882   13.9541   -7.4294 C   0  0  0  0  0  0  0  0  0  0  0  0
   38.5708   18.2314  -10.7234 H   0  0  0  0  0  0  0  0  0  0  0  0
   42.5813   16.0971   -7.8384 C   0  0  0  0  0  0  0  0  0  0  0  0
   42.3250   16.7322   -6.6413 C   0  0  0  0  0  0  0  0  0  0  0  0
   43.1846   17.6638   -6.0953 C   0  0  0  0  0  0  0  0  0  0  0  0
   44.3540   17.9911   -6.7528 C   0  0  0  0  0  0  0  0  0  0  0  0
   44.6361   17.3845   -7.9322 C   0  0  0  0  0  0  0  0  0  0  0  0
   45.7795   17.7033   -8.5768 F   0  0  0  0  0  0  0  0  0  0  0  0
   43.7474   16.4422   -8.4653 C   0  0  0  0  0  0  0  0  0  0  0  0
   39.2732   14.1213   -5.9916 C   0  0  0  0  0  0  0  0  0  0  0  0
   39.5951   15.2697   -5.2778 O   0  0  0  0  0  0  0  0  0  0  0  0
   38.6252   13.2219   -5.4069 O   0  0  0  0  0  0  0  0  0  0  0  0
   39.7586   15.2005   -4.2620 H   0  0  0  0  0  0  0  0  0  0  0  0
   42.0293   12.9014   -6.9282 S   0  0  0  0  0  0  0  0  0  0  0  0
   43.1825   12.7110   -7.9155 O   0  0  0  0  0  0  0  0  0  0  0  0
   41.1938   11.6388   -6.9509 O   0  0  0  0  0  0  0  0  0  0  0  0
   44.1812   13.7531   -5.5515 C   0  0  0  0  0  0  0  0  0  0  0  0
   42.7681   13.1089   -5.3557 C   0  0  0  0  0  0  0  0  0  0  0  0
   43.0335   11.8329   -4.6370 C   0  0  0  0  0  0  0  0  0  0  0  0
 28 29  1  0  0  0
 29 30  1  0  0  0
 29 25  1  0  0  0
 25 26  2  0  0  0
 25 27  2  0  0  0
 25  1  1  0  0  0
  1  2  1  0  0  0
  2  3  1  0  0  0
  3  4  2  0  0  0
  4  5  1  0  0  0
  5  6  1  0  0  0
  5  7  2  0  0  0
  7  8  1  0  0  0
  7  9  1  0  0  0
  9 10  2  0  0  0
  9 11  1  0  0  0
 11 12  1  0  0  0
 12 21  1  0  0  0
 21 22  1  0  0  0
 21 23  2  0  0  0
  2 14  1  0  0  0
 14 15  2  0  0  0
 15 16  1  0  0  0
 16 17  2  0  0  0
 17 18  1  0  0  0
 18 19  1  0  0  0
 18 20  2  0  0  0
 12  1  1  0  0  0
 20 14  1  0  0  0
 11  4  1  0  0  0
  6 13  1  0  0  0
 22 24  1  0  0  0
M  END
> <minimizedAffinity>
-5.56268

> <CNNscore>
0.3281287849

> <CNNaffinity>
4.6088476181

> <CNN_VS>
1.5122956038

> <CNNaffinity_variance>
0.1005273610

$$$$
[H]OC(=O)C1([H])N2C(=O)C(Br)=C(O[H])C2=C([H])[C@@]([H])(c2c([H])c([H])c([H])c(F)c2[H])N1S(=O)(=O)C([H])(C([H])([H])[H])C([H])([H])[H]


 30 32  0  0  0  0  0  0  0  0999 V2000
   37.5009   15.6559   -7.2149 N   0  0  0  0  0  0  0  0  0  0  0  0
   38.1219   15.9363   -8.4199 C   0  0  0  0  0  0  0  0  0  0  0  0
   39.3899   15.2326   -8.6689 C   0  0  0  0  0  0  0  0  0  0  0  0
   39.9299   14.4118   -7.8080 C   0  0  0  0  0  0  0  0  0  0  0  0
   41.1792   13.6131   -7.8504 C   0  0  0  0  0  0  0  0  0  0  0  0
   42.0454   13.6114   -8.9304 O   0  0  0  0  0  0  0  0  0  0  0  0
   41.3167   12.9372   -6.7362 C   0  0  0  0  0  0  0  0  0  0  0  0
   42.7242   11.7507   -6.2380 Br  0  0  0  0  0  0  0  0  0  0  0  0
   40.1553   13.2518   -5.8844 C   0  0  0  0  0  0  0  0  0  0  0  0
   39.9629   12.7814   -4.7425 O   0  0  0  0  0  0  0  0  0  0  0  0
   39.3096   14.1654   -6.5696 N   0  0  0  0  0  0  0  0  0  0  0  0
   38.0621   14.7951   -6.2539 C   0  0  0  0  0  0  0  0  0  0  0  0
   41.9548   13.0454   -9.7439 H   0  0  0  0  0  0  0  0  0  0  0  0
   37.3129   15.7673   -9.6632 C   0  0  0  0  0  0  0  0  0  0  0  0
   36.9134   16.8563  -10.4095 C   0  0  0  0  0  0  0  0  0  0  0  0
   36.1816   16.7317  -11.5729 C   0  0  0  0  0  0  0  0  0  0  0  0
   35.8219   15.4793  -12.0301 C   0  0  0  0  0  0  0  0  0  0  0  0
   36.1991   14.3876  -11.3198 C   0  0  0  0  0  0  0  0  0  0  0  0
   35.8483   13.1617  -11.7654 F   0  0  0  0  0  0  0  0  0  0  0  0
   36.9417   14.5406  -10.1421 C   0  0  0  0  0  0  0  0  0  0  0  0
   37.0129   13.7765   -5.8942 C   0  0  0  0  0  0  0  0  0  0  0  0
   36.6980   13.5042   -4.5681 O   0  0  0  0  0  0  0  0  0  0  0  0
   36.3994   13.1505   -6.7900 O   0  0  0  0  0  0  0  0  0  0  0  0
   36.3930   12.5538   -4.3092 H   0  0  0  0  0  0  0  0  0  0  0  0
   36.4120   16.7970   -6.5852 S   0  0  0  0  0  0  0  0  0  0  0  0
   36.5076   16.7335   -5.0595 O   0  0  0  0  0  0  0  0  0  0  0  0
   35.0085   16.3826   -6.9737 O   0  0  0  0  0  0  0  0  0  0  0  0
   37.4058   19.1803   -5.8212 C   0  0  0  0  0  0  0  0  0  0  0  0
   36.6899   18.4695   -7.0180 C   0  0  0  0  0  0  0  0  0  0  0  0
   35.4445   19.2559   -7.2313 C   0  0  0  0  0  0  0  0  0  0  0  0
 28 29  1  0  0  0
 29 30  1  0  0  0
 29 25  1  0  0  0
 25 26  2  0  0  0
 25 27  2  0  0  0
 25  1  1  0  0  0
  1  2  1  0  0  0
  2  3  1  0  0  0
  3  4  2  0  0  0
  4  5  1  0  0  0
  5  6  1  0  0  0
  5  7  2  0  0  0
  7  8  1  0  0  0
  7  9  1  0  0  0
  9 10  2  0  0  0
  9 11  1  0  0  0
 11 12  1  0  0  0
 12 21  1  0  0  0
 21 22  1  0  0  0
 21 23  2  0  0  0
  2 14  1  0  0  0
 14 15  2  0  0  0
 15 16  1  0  0  0
 16 17  2  0  0  0
 17 18  1  0  0  0
 18 19  1  0  0  0
 18 20  2  0  0  0
 12  1  1  0  0  0
 20 14  1  0  0  0
 11  4  1  0  0  0
  6 13  1  0  0  0
 22 24  1  0  0  0
M  END
> <minimizedAffinity>
-6.19194

> <CNNscore>
0.3152902126

> <CNNaffinity>
4.6828680038

> <CNN_VS>
1.4764624834

> <CNNaffinity_variance>
0.2922004163

$$$$
[H]OC(=O)C1([H])N2C(=O)C(Br)=C(O[H])C2=C([H])[C@@]([H])(c2c([H])c([H])c([H])c(F)c2[H])N1S(=O)(=O)C([H])(C([H])([H])[H])C([H])([H])[H]


 30 32  0  0  0  0  0  0  0  0999 V2000
   41.6299   14.5557   -6.0611 N   0  0  0  0  0  0  0  0  0  0  0  0
   42.9142   15.0696   -6.0051 C   0  0  0  0  0  0  0  0  0  0  0  0
   43.9568   14.1446   -5.5337 C   0  0  0  0  0  0  0  0  0  0  0  0
   43.7050   12.9191   -5.1581 C   0  0  0  0  0  0  0  0  0  0  0  0
   44.5857   11.8367   -4.6550 C   0  0  0  0  0  0  0  0  0  0  0  0
   45.9545   11.9778   -4.5031 O   0  0  0  0  0  0  0  0  0  0  0  0
   43.8752   10.7680   -4.3899 C   0  0  0  0  0  0  0  0  0  0  0  0
   44.4734    9.0854   -3.7205 Br  0  0  0  0  0  0  0  0  0  0  0  0
   42.4703   11.0840   -4.7058 C   0  0  0  0  0  0  0  0  0  0  0  0
   41.5148   10.2900   -4.5688 O   0  0  0  0  0  0  0  0  0  0  0  0
   42.3897   12.4207   -5.1814 N   0  0  0  0  0  0  0  0  0  0  0  0
   41.3164   13.2489   -5.6447 C   0  0  0  0  0  0  0  0  0  0  0  0
   46.6324   11.8508   -5.2205 H   0  0  0  0  0  0  0  0  0  0  0  0
   43.4569   15.6938   -7.2479 C   0  0  0  0  0  0  0  0  0  0  0  0
   43.1728   15.1720   -8.4926 C   0  0  0  0  0  0  0  0  0  0  0  0
   43.6435   15.7370   -9.6605 C   0  0  0  0  0  0  0  0  0  0  0  0
   44.4320   16.8696   -9.6092 C   0  0  0  0  0  0  0  0  0  0  0  0
   44.7298   17.4081   -8.4009 C   0  0  0  0  0  0  0  0  0  0  0  0
   45.5009   18.5159   -8.3486 F   0  0  0  0  0  0  0  0  0  0  0  0
   44.2396   16.8158   -7.2301 C   0  0  0  0  0  0  0  0  0  0  0  0
   40.5628   12.5870   -6.7680 C   0  0  0  0  0  0  0  0  0  0  0  0
   41.1779   12.3106   -7.9834 O   0  0  0  0  0  0  0  0  0  0  0  0
   39.3583   12.2707   -6.6275 O   0  0  0  0  0  0  0  0  0  0  0  0
   40.6150   12.3306   -8.8472 H   0  0  0  0  0  0  0  0  0  0  0  0
   40.3250   15.6414   -6.0093 S   0  0  0  0  0  0  0  0  0  0  0  0
   39.2884   15.0716   -5.0388 O   0  0  0  0  0  0  0  0  0  0  0  0
   39.6891   15.6893   -7.3825 O   0  0  0  0  0  0  0  0  0  0  0  0
   40.8803   17.2168   -3.8970 C   0  0  0  0  0  0  0  0  0  0  0  0
   40.6736   17.2617   -5.4480 C   0  0  0  0  0  0  0  0  0  0  0  0
   39.5589   18.2268   -5.6505 C   0  0  0  0  0  0  0  0  0  0  0  0
 28 29  1  0  0  0
 29 30  1  0  0  0
 29 25  1  0  0  0
 25 26  2  0  0  0
 25 27  2  0  0  0
 25  1  1  0  0  0
  1  2  1  0  0  0
  2  3  1  0  0  0
  3  4  2  0  0  0
  4  5  1  0  0  0
  5  6  1  0  0  0
  5  7  2  0  0  0
  7  8  1  0  0  0
  7  9  1  0  0  0
  9 10  2  0  0  0
  9 11  1  0  0  0
 11 12  1  0  0  0
 12 21  1  0  0  0
 21 22  1  0  0  0
 21 23  2  0  0  0
  2 14  1  0  0  0
 14 15  2  0  0  0
 15 16  1  0  0  0
 16 17  2  0  0  0
 17 18  1  0  0  0
 18 19  1  0  0  0
 18 20  2  0  0  0
 12  1  1  0  0  0
 20 14  1  0  0  0
 11  4  1  0  0  0
  6 13  1  0  0  0
 22 24  1  0  0  0
M  END
> <minimizedAffinity>
-5.66927

> <CNNscore>
0.2894962132

> <CNNaffinity>
4.2754845619

> <CNN_VS>
1.2377365828

> <CNNaffinity_variance>
0.1873772144

$$$$
[H]OC(=O)C1([H])N2C(=O)C(Br)=C(O[H])C2=C([H])[C@@]([H])(c2c([H])c([H])c([H])c(F)c2[H])N1S(=O)(=O)C([H])(C([H])([H])[H])C([H])([H])[H]


 30 32  0  0  0  0  0  0  0  0999 V2000
   35.3094   15.1600   -6.4624 N   0  0  0  0  0  0  0  0  0  0  0  0
   35.1341   15.0529   -7.8315 C   0  0  0  0  0  0  0  0  0  0  0  0
   33.9005   15.6470   -8.3702 C   0  0  0  0  0  0  0  0  0  0  0  0
   32.9983   16.2194   -7.6186 C   0  0  0  0  0  0  0  0  0  0  0  0
   31.7045   16.8678   -7.9441 C   0  0  0  0  0  0  0  0  0  0  0  0
   31.2145   16.9842   -9.2337 O   0  0  0  0  0  0  0  0  0  0  0  0
   31.1286   17.2940   -6.8469 C   0  0  0  0  0  0  0  0  0  0  0  0
   29.4594   18.1975   -6.6609 Br  0  0  0  0  0  0  0  0  0  0  0  0
   32.0164   16.9498   -5.7215 C   0  0  0  0  0  0  0  0  0  0  0  0
   31.7764   17.2069   -4.5221 O   0  0  0  0  0  0  0  0  0  0  0  0
   33.1685   16.2867   -6.2238 N   0  0  0  0  0  0  0  0  0  0  0  0
   34.3505   15.7494   -5.6182 C   0  0  0  0  0  0  0  0  0  0  0  0
   31.4492   17.7045   -9.8790 H   0  0  0  0  0  0  0  0  0  0  0  0
   36.2387   15.5496   -8.7044 C   0  0  0  0  0  0  0  0  0  0  0  0
   36.8904   16.7334   -8.4285 C   0  0  0  0  0  0  0  0  0  0  0  0
   37.9274   17.2094   -9.2050 C   0  0  0  0  0  0  0  0  0  0  0  0
   38.3488   16.4918  -10.3070 C   0  0  0  0  0  0  0  0  0  0  0  0
   37.7292   15.3233  -10.6059 C   0  0  0  0  0  0  0  0  0  0  0  0
   38.1400   14.6200  -11.6834 F   0  0  0  0  0  0  0  0  0  0  0  0
   36.6792   14.8617   -9.8019 C   0  0  0  0  0  0  0  0  0  0  0  0
   35.0585   16.7880   -4.7889 C   0  0  0  0  0  0  0  0  0  0  0  0
   34.8037   16.9201   -3.4288 O   0  0  0  0  0  0  0  0  0  0  0  0
   35.8967   17.5585   -5.3127 O   0  0  0  0  0  0  0  0  0  0  0  0
   34.8769   17.8514   -2.9923 H   0  0  0  0  0  0  0  0  0  0  0  0
   36.3334   14.0456   -5.6919 S   0  0  0  0  0  0  0  0  0  0  0  0
   36.5890   12.8990   -6.6721 O   0  0  0  0  0  0  0  0  0  0  0  0
   35.6017   13.4721   -4.4969 O   0  0  0  0  0  0  0  0  0  0  0  0
   39.0006   13.8156   -5.9833 C   0  0  0  0  0  0  0  0  0  0  0  0
   37.9106   14.6312   -5.2107 C   0  0  0  0  0  0  0  0  0  0  0  0
   38.2263   14.4120   -3.7729 C   0  0  0  0  0  0  0  0  0  0  0  0
 28 29  1  0  0  0
 29 30  1  0  0  0
 29 25  1  0  0  0
 25 26  2  0  0  0
 25 27  2  0  0  0
 25  1  1  0  0  0
  1  2  1  0  0  0
  2  3  1  0  0  0
  3  4  2  0  0  0
  4  5  1  0  0  0
  5  6  1  0  0  0
  5  7  2  0  0  0
  7  8  1  0  0  0
  7  9  1  0  0  0
  9 10  2  0  0  0
  9 11  1  0  0  0
 11 12  1  0  0  0
 12 21  1  0  0  0
 21 22  1  0  0  0
 21 23  2  0  0  0
  2 14  1  0  0  0
 14 15  2  0  0  0
 15 16  1  0  0  0
 16 17  2  0  0  0
 17 18  1  0  0  0
 18 19  1  0  0  0
 18 20  2  0  0  0
 12  1  1  0  0  0
 20 14  1  0  0  0
 11  4  1  0  0  0
  6 13  1  0  0  0
 22 24  1  0  0  0
M  END
> <minimizedAffinity>
-6.06689

> <CNNscore>
0.2878707349

> <CNNaffinity>
4.6039147377

> <CNN_VS>
1.3253322840

> <CNNaffinity_variance>
0.3151927590

$$$$
[H]c1c([H])c([H])c2c(c1[H])C([H])([H])N(C(=O)c1c([H])c([H])c3c(c1[H])c(-c1c([H])c([H])c(F)c([H])c1[H])c([H])n3[H])C2([H])[H]


 28 32  0  0  0  0  0  0  0  0999 V2000
   38.4679   11.6808  -16.8024 C   0  0  0  0  0  0  0  0  0  0  0  0
   39.1746   11.0391  -17.7940 C   0  0  0  0  0  0  0  0  0  0  0  0
   40.4607   11.4185  -17.7499 N   0  0  0  0  0  0  0  0  0  0  0  0
   40.6613   12.3087  -16.7497 C   0  0  0  0  0  0  0  0  0  0  0  0
   41.7614   12.9829  -16.2923 C   0  0  0  0  0  0  0  0  0  0  0  0
   41.6366   13.8403  -15.2251 C   0  0  0  0  0  0  0  0  0  0  0  0
   40.4292   14.0366  -14.6039 C   0  0  0  0  0  0  0  0  0  0  0  0
   39.3143   13.3328  -15.0931 C   0  0  0  0  0  0  0  0  0  0  0  0
   39.4194   12.4771  -16.1532 C   0  0  0  0  0  0  0  0  0  0  0  0
   41.2128   11.0950  -18.3758 H   0  0  0  0  0  0  0  0  0  0  0  0
   40.1905   14.8877  -13.4612 C   0  0  0  0  0  0  0  0  0  0  0  0
   41.1292   15.7306  -13.1782 O   0  0  0  0  0  0  0  0  0  0  0  0
   39.0611   14.9228  -12.6070 N   0  0  0  0  0  0  0  0  0  0  0  0
   39.0360   15.8670  -11.4628 C   0  0  0  0  0  0  0  0  0  0  0  0
   37.6438   15.9110  -11.0398 C   0  0  0  0  0  0  0  0  0  0  0  0
   36.9556   16.7238  -10.1287 C   0  0  0  0  0  0  0  0  0  0  0  0
   35.6174   16.5924   -9.8681 C   0  0  0  0  0  0  0  0  0  0  0  0
   34.9294   15.6168  -10.5356 C   0  0  0  0  0  0  0  0  0  0  0  0
   35.5737   14.8005  -11.4376 C   0  0  0  0  0  0  0  0  0  0  0  0
   36.9330   14.9586  -11.6808 C   0  0  0  0  0  0  0  0  0  0  0  0
   37.8233   14.2063  -12.6088 C   0  0  0  0  0  0  0  0  0  0  0  0
   32.9776   11.2055  -15.6983 F   0  0  0  0  0  0  0  0  0  0  0  0
   34.3207   11.3305  -15.9554 C   0  0  0  0  0  0  0  0  0  0  0  0
   34.8833   10.6291  -16.9973 C   0  0  0  0  0  0  0  0  0  0  0  0
   36.2206   10.7619  -17.2427 C   0  0  0  0  0  0  0  0  0  0  0  0
   37.0557   11.5875  -16.4756 C   0  0  0  0  0  0  0  0  0  0  0  0
   36.4487   12.2592  -15.4572 C   0  0  0  0  0  0  0  0  0  0  0  0
   35.1043   12.1506  -15.1794 C   0  0  0  0  0  0  0  0  0  0  0  0
 22 23  1  0  0  0
 23 24  2  0  0  0
 24 25  1  0  0  0
 25 26  2  0  0  0
 26 27  1  0  0  0
 27 28  2  0  0  0
 26  1  1  0  0  0
  1  2  2  0  0  0
  2  3  1  0  0  0
  3  4  1  0  0  0
  4  5  2  0  0  0
  5  6  1  0  0  0
  6  7  2  0  0  0
  7  8  1  0  0  0
  8  9  2  0  0  0
  7 11  1  0  0  0
 11 12  2  0  0  0
 11 13  1  0  0  0
 13 14  1  0  0  0
 14 15  1  0  0  0
 15 16  2  0  0  0
 16 17  1  0  0  0
 17 18  2  0  0  0
 18 19  1  0  0  0
 19 20  2  0  0  0
 20 21  1  0  0  0
 28 23  1  0  0  0
  9  1  1  0  0  0
 21 13  1  0  0  0
  9  4  1  0  0  0
 20 15  1  0  0  0
  3 10  1  0  0  0
M  END
> <minimizedAffinity>
-10.72834

> <CNNscore>
0.5945470929

> <CNNaffinity>
6.6039896011

> <CNN_VS>
3.9263827801

> <CNNaffinity_variance>
0.2299517393

$$$$
[H]c1c([H])c([H])c2c(c1[H])C([H])([H])N(C(=O)c1c([H])c([H])c3c(c1[H])c(-c1c([H])c([H])c(F)c([H])c1[H])c([H])n3[H])C2([H])[H]


 28 32  0  0  0  0  0  0  0  0999 V2000
   36.2081   12.4247  -15.0183 C   0  0  0  0  0  0  0  0  0  0  0  0
   34.9958   11.8895  -15.3900 C   0  0  0  0  0  0  0  0  0  0  0  0
   35.1447   11.1704  -16.5129 N   0  0  0  0  0  0  0  0  0  0  0  0
   36.4333   11.1952  -16.9277 C   0  0  0  0  0  0  0  0  0  0  0  0
   37.0946   10.6371  -17.9884 C   0  0  0  0  0  0  0  0  0  0  0  0
   38.4440   10.8532  -18.1366 C   0  0  0  0  0  0  0  0  0  0  0  0
   39.1474   11.6184  -17.2411 C   0  0  0  0  0  0  0  0  0  0  0  0
   38.4450   12.1810  -16.1604 C   0  0  0  0  0  0  0  0  0  0  0  0
   37.1037   11.9775  -15.9977 C   0  0  0  0  0  0  0  0  0  0  0  0
   34.4015   10.6601  -17.0122 H   0  0  0  0  0  0  0  0  0  0  0  0
   40.5665   11.8858  -17.2833 C   0  0  0  0  0  0  0  0  0  0  0  0
   41.1561   11.6340  -18.4061 O   0  0  0  0  0  0  0  0  0  0  0  0
   41.4009   12.3898  -16.2556 N   0  0  0  0  0  0  0  0  0  0  0  0
   42.8526   12.5630  -16.5082 C   0  0  0  0  0  0  0  0  0  0  0  0
   43.3253   13.4153  -15.4269 C   0  0  0  0  0  0  0  0  0  0  0  0
   44.5474   14.0608  -15.1945 C   0  0  0  0  0  0  0  0  0  0  0  0
   44.7919   14.8278  -14.0863 C   0  0  0  0  0  0  0  0  0  0  0  0
   43.7868   14.9631  -13.1687 C   0  0  0  0  0  0  0  0  0  0  0  0
   42.5736   14.3431  -13.3652 C   0  0  0  0  0  0  0  0  0  0  0  0
   42.3557   13.5711  -14.5003 C   0  0  0  0  0  0  0  0  0  0  0  0
   41.1354   12.8262  -14.9197 C   0  0  0  0  0  0  0  0  0  0  0  0
   37.2846   15.6266  -10.5264 F   0  0  0  0  0  0  0  0  0  0  0  0
   37.0341   14.8503  -11.6310 C   0  0  0  0  0  0  0  0  0  0  0  0
   36.0153   13.9256  -11.5973 C   0  0  0  0  0  0  0  0  0  0  0  0
   35.7761   13.1594  -12.7027 C   0  0  0  0  0  0  0  0  0  0  0  0
   36.5271   13.2715  -13.8821 C   0  0  0  0  0  0  0  0  0  0  0  0
   37.5228   14.2014  -13.8624 C   0  0  0  0  0  0  0  0  0  0  0  0
   37.7937   14.9916  -12.7676 C   0  0  0  0  0  0  0  0  0  0  0  0
 22 23  1  0  0  0
 23 24  2  0  0  0
 24 25  1  0  0  0
 25 26  2  0  0  0
 26 27  1  0  0  0
 27 28  2  0  0  0
 26  1  1  0  0  0
  1  2  2  0  0  0
  2  3  1  0  0  0
  3  4  1  0  0  0
  4  5  2  0  0  0
  5  6  1  0  0  0
  6  7  2  0  0  0
  7  8  1  0  0  0
  8  9  2  0  0  0
  7 11  1  0  0  0
 11 12  2  0  0  0
 11 13  1  0  0  0
 13 14  1  0  0  0
 14 15  1  0  0  0
 15 16  2  0  0  0
 16 17  1  0  0  0
 17 18  2  0  0  0
 18 19  1  0  0  0
 19 20  2  0  0  0
 20 21  1  0  0  0
 28 23  1  0  0  0
  9  1  1  0  0  0
 21 13  1  0  0  0
  9  4  1  0  0  0
 20 15  1  0  0  0
  3 10  1  0  0  0
M  END
> <minimizedAffinity>
-10.36239

> <CNNscore>
0.5761184692

> <CNNaffinity>
6.7375326157

> <CNN_VS>
3.8816170692

> <CNNaffinity_variance>
0.1723698229

$$$$
[H]c1c([H])c([H])c2c(c1[H])C([H])([H])N(C(=O)c1c([H])c([H])c3c(c1[H])c(-c1c([H])c([H])c(F)c([H])c1[H])c([H])n3[H])C2([H])[H]


 28 32  0  0  0  0  0  0  0  0999 V2000
   38.4928   11.5209  -17.0029 C   0  0  0  0  0  0  0  0  0  0  0  0
   39.0782   10.8061  -18.0231 C   0  0  0  0  0  0  0  0  0  0  0  0
   40.3876   11.0923  -18.0818 N   0  0  0  0  0  0  0  0  0  0  0  0
   40.7230   11.9896  -17.1249 C   0  0  0  0  0  0  0  0  0  0  0  0
   41.8984   12.5931  -16.7669 C   0  0  0  0  0  0  0  0  0  0  0  0
   41.9126   13.4829  -15.7191 C   0  0  0  0  0  0  0  0  0  0  0  0
   40.7707   13.7810  -15.0196 C   0  0  0  0  0  0  0  0  0  0  0  0
   39.5762   13.1481  -15.4073 C   0  0  0  0  0  0  0  0  0  0  0  0
   39.5430   12.2617  -16.4467 C   0  0  0  0  0  0  0  0  0  0  0  0
   41.0672   10.7003  -18.7499 H   0  0  0  0  0  0  0  0  0  0  0  0
   40.6768   14.6744  -13.8882 C   0  0  0  0  0  0  0  0  0  0  0  0
   39.5553   15.3042  -13.7568 O   0  0  0  0  0  0  0  0  0  0  0  0
   41.6524   14.9528  -12.8996 N   0  0  0  0  0  0  0  0  0  0  0  0
   41.3530   15.9366  -11.8302 C   0  0  0  0  0  0  0  0  0  0  0  0
   42.3716   15.7125  -10.8146 C   0  0  0  0  0  0  0  0  0  0  0  0
   42.5355   16.2040   -9.5124 C   0  0  0  0  0  0  0  0  0  0  0  0
   43.5916   15.8636   -8.7094 C   0  0  0  0  0  0  0  0  0  0  0  0
   44.5257   15.0013   -9.2138 C   0  0  0  0  0  0  0  0  0  0  0  0
   44.3960   14.4990  -10.4889 C   0  0  0  0  0  0  0  0  0  0  0  0
   43.3126   14.8632  -11.2798 C   0  0  0  0  0  0  0  0  0  0  0  0
   42.9678   14.4418  -12.6667 C   0  0  0  0  0  0  0  0  0  0  0  0
   33.1802   11.6786  -15.1755 F   0  0  0  0  0  0  0  0  0  0  0  0
   34.4735   11.6330  -15.6350 C   0  0  0  0  0  0  0  0  0  0  0  0
   35.4742   12.2459  -14.9160 C   0  0  0  0  0  0  0  0  0  0  0  0
   36.7566   12.1935  -15.3838 C   0  0  0  0  0  0  0  0  0  0  0  0
   37.1053   11.5380  -16.5738 C   0  0  0  0  0  0  0  0  0  0  0  0
   36.0775   10.9481  -17.2464 C   0  0  0  0  0  0  0  0  0  0  0  0
   34.7730   10.9799  -16.8065 C   0  0  0  0  0  0  0  0  0  0  0  0
 22 23  1  0  0  0
 23 24  2  0  0  0
 24 25  1  0  0  0
 25 26  2  0  0  0
 26 27  1  0  0  0
 27 28  2  0  0  0
 26  1  1  0  0  0
  1  2  2  0  0  0
  2  3  1  0  0  0
  3  4  1  0  0  0
  4  5  2  0  0  0
  5  6  1  0  0  0
  6  7  2  0  0  0
  7  8  1  0  0  0
  8  9  2  0  0  0
  7 11  1  0  0  0
 11 12  2  0  0  0
 11 13  1  0  0  0
 13 14  1  0  0  0
 14 15  1  0  0  0
 15 16  2  0  0  0
 16 17  1  0  0  0
 17 18  2  0  0  0
 18 19  1  0  0  0
 19 20  2  0  0  0
 20 21  1  0  0  0
 28 23  1  0  0  0
  9  1  1  0  0  0
 21 13  1  0  0  0
  9  4  1  0  0  0
 20 15  1  0  0  0
  3 10  1  0  0  0
M  END
> <minimizedAffinity>
-10.08718

> <CNNscore>
0.5093560815

> <CNNaffinity>
6.2786417007

> <CNN_VS>
3.1980643272

> <CNNaffinity_variance>
0.0805268288

$$$$
[H]c1c([H])c([H])c2c(c1[H])C([H])([H])N(C(=O)c1c([H])c([H])c3c(c1[H])c(-c1c([H])c([H])c(F)c([H])c1[H])c([H])n3[H])C2([H])[H]


 28 32  0  0  0  0  0  0  0  0999 V2000
   38.5294   11.8237  -16.3893 C   0  0  0  0  0  0  0  0  0  0  0  0
   38.8138   11.1144  -17.5341 C   0  0  0  0  0  0  0  0  0  0  0  0
   40.1153   11.2423  -17.8332 N   0  0  0  0  0  0  0  0  0  0  0  0
   40.7397   12.0243  -16.9212 C   0  0  0  0  0  0  0  0  0  0  0  0
   42.0307   12.4542  -16.7720 C   0  0  0  0  0  0  0  0  0  0  0  0
   42.3584   13.2618  -15.7088 C   0  0  0  0  0  0  0  0  0  0  0  0
   41.4172   13.6482  -14.7886 C   0  0  0  0  0  0  0  0  0  0  0  0
   40.0980   13.1936  -14.9645 C   0  0  0  0  0  0  0  0  0  0  0  0
   39.7539   12.3912  -16.0155 C   0  0  0  0  0  0  0  0  0  0  0  0
   40.6000   10.8170  -18.6370 H   0  0  0  0  0  0  0  0  0  0  0  0
   41.6557   14.4668  -13.6223 C   0  0  0  0  0  0  0  0  0  0  0  0
   40.8712   15.4840  -13.4756 O   0  0  0  0  0  0  0  0  0  0  0  0
   42.6371   14.3027  -12.6142 N   0  0  0  0  0  0  0  0  0  0  0  0
   42.7242   15.2877  -11.5080 C   0  0  0  0  0  0  0  0  0  0  0  0
   43.5460   14.6445  -10.4931 C   0  0  0  0  0  0  0  0  0  0  0  0
   43.8583   14.9865   -9.1704 C   0  0  0  0  0  0  0  0  0  0  0  0
   44.6740   14.2290   -8.3722 C   0  0  0  0  0  0  0  0  0  0  0  0
   45.2038   13.0852   -8.9030 C   0  0  0  0  0  0  0  0  0  0  0  0
   44.9180   12.7189  -10.1988 C   0  0  0  0  0  0  0  0  0  0  0  0
   44.0864   13.5086  -10.9841 C   0  0  0  0  0  0  0  0  0  0  0  0
   43.6376   13.3055  -12.3902 C   0  0  0  0  0  0  0  0  0  0  0  0
   33.7205   12.4314  -13.5445 F   0  0  0  0  0  0  0  0  0  0  0  0
   34.8875   12.2829  -14.2529 C   0  0  0  0  0  0  0  0  0  0  0  0
   36.0944   12.3137  -13.5923 C   0  0  0  0  0  0  0  0  0  0  0  0
   37.2482   12.1649  -14.3084 C   0  0  0  0  0  0  0  0  0  0  0  0
   37.2612   11.9803  -15.6987 C   0  0  0  0  0  0  0  0  0  0  0  0
   36.0402   11.9574  -16.3032 C   0  0  0  0  0  0  0  0  0  0  0  0
   34.8565   12.1041  -15.6152 C   0  0  0  0  0  0  0  0  0  0  0  0
 22 23  1  0  0  0
 23 24  2  0  0  0
 24 25  1  0  0  0
 25 26  2  0  0  0
 26 27  1  0  0  0
 27 28  2  0  0  0
 26  1  1  0  0  0
  1  2  2  0  0  0
  2  3  1  0  0  0
  3  4  1  0  0  0
  4  5  2  0  0  0
  5  6  1  0  0  0
  6  7  2  0  0  0
  7  8  1  0  0  0
  8  9  2  0  0  0
  7 11  1  0  0  0
 11 12  2  0  0  0
 11 13  1  0  0  0
 13 14  1  0  0  0
 14 15  1  0  0  0
 15 16  2  0  0  0
 16 17  1  0  0  0
 17 18  2  0  0  0
 18 19  1  0  0  0
 19 20  2  0  0  0
 20 21  1  0  0  0
 28 23  1  0  0  0
  9  1  1  0  0  0
 21 13  1  0  0  0
  9  4  1  0  0  0
 20 15  1  0  0  0
  3 10  1  0  0  0
M  END
> <minimizedAffinity>
-9.36142

> <CNNscore>
0.4413773417

> <CNNaffinity>
6.1956586838

> <CNN_VS>
2.7346234322

> <CNNaffinity_variance>
0.0684443861

$$$$
[H]c1c([H])c([H])c2c(c1[H])C([H])([H])N(C(=O)c1c([H])c([H])c3c(c1[H])c(-c1c([H])c([H])c(F)c([H])c1[H])c([H])n3[H])C2([H])[H]


 28 32  0  0  0  0  0  0  0  0999 V2000
   40.0751   12.1099  -16.7290 C   0  0  0  0  0  0  0  0  0  0  0  0
   40.5536   11.4852  -17.8583 C   0  0  0  0  0  0  0  0  0  0  0  0
   39.5413   10.8942  -18.5109 N   0  0  0  0  0  0  0  0  0  0  0  0
   38.3717   11.0954  -17.8593 C   0  0  0  0  0  0  0  0  0  0  0  0
   37.0791   10.7147  -18.1002 C   0  0  0  0  0  0  0  0  0  0  0  0
   36.0870   11.0897  -17.2256 C   0  0  0  0  0  0  0  0  0  0  0  0
   36.3634   11.8414  -16.1117 C   0  0  0  0  0  0  0  0  0  0  0  0
   37.6991   12.2192  -15.8864 C   0  0  0  0  0  0  0  0  0  0  0  0
   38.6982   11.8549  -16.7444 C   0  0  0  0  0  0  0  0  0  0  0  0
   39.6132   10.3562  -19.3869 H   0  0  0  0  0  0  0  0  0  0  0  0
   35.3989   12.3142  -15.1456 C   0  0  0  0  0  0  0  0  0  0  0  0
   34.2958   11.6436  -15.0733 O   0  0  0  0  0  0  0  0  0  0  0  0
   35.5012   13.4175  -14.2632 N   0  0  0  0  0  0  0  0  0  0  0  0
   34.3673   13.7454  -13.3642 C   0  0  0  0  0  0  0  0  0  0  0  0
   34.9225   14.6542  -12.3717 C   0  0  0  0  0  0  0  0  0  0  0  0
   34.4088   15.1848  -11.1806 C   0  0  0  0  0  0  0  0  0  0  0  0
   35.1100   16.0464  -10.3793 C   0  0  0  0  0  0  0  0  0  0  0  0
   36.3721   16.3990  -10.7709 C   0  0  0  0  0  0  0  0  0  0  0  0
   36.9081   15.8965  -11.9350 C   0  0  0  0  0  0  0  0  0  0  0  0
   36.1716   15.0237  -12.7273 C   0  0  0  0  0  0  0  0  0  0  0  0
   36.5482   14.3573  -14.0056 C   0  0  0  0  0  0  0  0  0  0  0  0
   43.0483   14.9452  -12.8937 F   0  0  0  0  0  0  0  0  0  0  0  0
   42.3089   14.2593  -13.8257 C   0  0  0  0  0  0  0  0  0  0  0  0
   42.9469   13.4701  -14.7553 C   0  0  0  0  0  0  0  0  0  0  0  0
   42.2001   12.7929  -15.6771 C   0  0  0  0  0  0  0  0  0  0  0  0
   40.8000   12.8644  -15.7215 C   0  0  0  0  0  0  0  0  0  0  0  0
   40.2187   13.6590  -14.7795 C   0  0  0  0  0  0  0  0  0  0  0  0
   40.9380   14.3566  -13.8349 C   0  0  0  0  0  0  0  0  0  0  0  0
 22 23  1  0  0  0
 23 24  2  0  0  0
 24 25  1  0  0  0
 25 26  2  0  0  0
 26 27  1  0  0  0
 27 28  2  0  0  0
 26  1  1  0  0  0
  1  2  2  0  0  0
  2  3  1  0  0  0
  3  4  1  0  0  0
  4  5  2  0  0  0
  5  6  1  0  0  0
  6  7  2  0  0  0
  7  8  1  0  0  0
  8  9  2  0  0  0
  7 11  1  0  0  0
 11 12  2  0  0  0
 11 13  1  0  0  0
 13 14  1  0  0  0
 14 15  1  0  0  0
 15 16  2  0  0  0
 16 17  1  0  0  0
 17 18  2  0  0  0
 18 19  1  0  0  0
 19 20  2  0  0  0
 20 21  1  0  0  0
 28 23  1  0  0  0
  9  1  1  0  0  0
 21 13  1  0  0  0
  9  4  1  0  0  0
 20 15  1  0  0  0
  3 10  1  0  0  0
M  END
> <minimizedAffinity>
-10.89444

> <CNNscore>
0.4349641800

> <CNNaffinity>
6.6275014877

> <CNN_VS>
2.8827257156

> <CNNaffinity_variance>
0.3100528717

$$$$
[H]c1c([H])c([H])c2c(c1[H])C([H])([H])N(C(=O)c1c([H])c([H])c3c(c1[H])c(-c1c([H])c([H])c(F)c([H])c1[H])c([H])n3[H])C2([H])[H]


 28 32  0  0  0  0  0  0  0  0999 V2000
   41.6694   12.7518  -15.9623 C   0  0  0  0  0  0  0  0  0  0  0  0
   43.0318   12.6461  -16.1270 C   0  0  0  0  0  0  0  0  0  0  0  0
   43.6578   13.3785  -15.1934 N   0  0  0  0  0  0  0  0  0  0  0  0
   42.7598   13.9896  -14.3852 C   0  0  0  0  0  0  0  0  0  0  0  0
   42.8752   14.8246  -13.3066 C   0  0  0  0  0  0  0  0  0  0  0  0
   41.7412   15.2874  -12.6824 C   0  0  0  0  0  0  0  0  0  0  0  0
   40.4901   14.9294  -13.1167 C   0  0  0  0  0  0  0  0  0  0  0  0
   40.3985   14.0710  -14.2269 C   0  0  0  0  0  0  0  0  0  0  0  0
   41.5146   13.6019  -14.8603 C   0  0  0  0  0  0  0  0  0  0  0  0
   44.6772   13.4809  -15.0823 H   0  0  0  0  0  0  0  0  0  0  0  0
   39.2370   15.3312  -12.5205 C   0  0  0  0  0  0  0  0  0  0  0  0
   39.2743   16.3983  -11.7914 O   0  0  0  0  0  0  0  0  0  0  0  0
   37.9683   14.7106  -12.6293 N   0  0  0  0  0  0  0  0  0  0  0  0
   36.8077   15.2818  -11.9027 C   0  0  0  0  0  0  0  0  0  0  0  0
   35.6394   14.6574  -12.5065 C   0  0  0  0  0  0  0  0  0  0  0  0
   34.2642   14.8930  -12.3736 C   0  0  0  0  0  0  0  0  0  0  0  0
   33.3114   14.1715  -13.0425 C   0  0  0  0  0  0  0  0  0  0  0  0
   33.7345   13.1749  -13.8783 C   0  0  0  0  0  0  0  0  0  0  0  0
   35.0777   12.9163  -14.0328 C   0  0  0  0  0  0  0  0  0  0  0  0
   36.0210   13.6662  -13.3402 C   0  0  0  0  0  0  0  0  0  0  0  0
   37.5078   13.5706  -13.3599 C   0  0  0  0  0  0  0  0  0  0  0  0
   37.6597   10.3976  -19.1196 F   0  0  0  0  0  0  0  0  0  0  0  0
   38.6298   10.9727  -18.3360 C   0  0  0  0  0  0  0  0  0  0  0  0
   39.8904   11.1741  -18.8500 C   0  0  0  0  0  0  0  0  0  0  0  0
   40.8466   11.7470  -18.0604 C   0  0  0  0  0  0  0  0  0  0  0  0
   40.6020   12.1438  -16.7374 C   0  0  0  0  0  0  0  0  0  0  0  0
   39.3384   11.9222  -16.2781 C   0  0  0  0  0  0  0  0  0  0  0  0
   38.3488   11.3474  -17.0439 C   0  0  0  0  0  0  0  0  0  0  0  0
 22 23  1  0  0  0
 23 24  2  0  0  0
 24 25  1  0  0  0
 25 26  2  0  0  0
 26 27  1  0  0  0
 27 28  2  0  0  0
 26  1  1  0  0  0
  1  2  2  0  0  0
  2  3  1  0  0  0
  3  4  1  0  0  0
  4  5  2  0  0  0
  5  6  1  0  0  0
  6  7  2  0  0  0
  7  8  1  0  0  0
  8  9  2  0  0  0
  7 11  1  0  0  0
 11 12  2  0  0  0
 11 13  1  0  0  0
 13 14  1  0  0  0
 14 15  1  0  0  0
 15 16  2  0  0  0
 16 17  1  0  0  0
 17 18  2  0  0  0
 18 19  1  0  0  0
 19 20  2  0  0  0
 20 21  1  0  0  0
 28 23  1  0  0  0
  9  1  1  0  0  0
 21 13  1  0  0  0
  9  4  1  0  0  0
 20 15  1  0  0  0
  3 10  1  0  0  0
M  END
> <minimizedAffinity>
-10.55923

> <CNNscore>
0.4022031128

> <CNNaffinity>
6.3598661423

> <CNN_VS>
2.5579578876

> <CNNaffinity_variance>
0.0887836069

$$$$
[H]c1c([H])c([H])c2c(c1[H])C([H])([H])N(C(=O)c1c([H])c([H])c3c(c1[H])c(-c1c([H])c([H])c(F)c([H])c1[H])c([H])n3[H])C2([H])[H]


 28 32  0  0  0  0  0  0  0  0999 V2000
   35.6410   11.9948  -15.6788 C   0  0  0  0  0  0  0  0  0  0  0  0
   34.3251   11.5925  -15.7102 C   0  0  0  0  0  0  0  0  0  0  0  0
   33.6439   12.1986  -14.7260 N   0  0  0  0  0  0  0  0  0  0  0  0
   34.4582   13.0122  -14.0132 C   0  0  0  0  0  0  0  0  0  0  0  0
   34.2637   13.8346  -12.9363 C   0  0  0  0  0  0  0  0  0  0  0  0
   35.3218   14.5518  -12.4304 C   0  0  0  0  0  0  0  0  0  0  0  0
   36.5744   14.4628  -12.9829 C   0  0  0  0  0  0  0  0  0  0  0  0
   36.7481   13.6106  -14.0880 C   0  0  0  0  0  0  0  0  0  0  0  0
   35.7083   12.8896  -14.6037 C   0  0  0  0  0  0  0  0  0  0  0  0
   32.6415   12.0812  -14.5175 H   0  0  0  0  0  0  0  0  0  0  0  0
   37.7460   15.1901  -12.5524 C   0  0  0  0  0  0  0  0  0  0  0  0
   37.5568   16.0660  -11.6204 O   0  0  0  0  0  0  0  0  0  0  0  0
   39.0792   15.0706  -13.0160 N   0  0  0  0  0  0  0  0  0  0  0  0
   40.1342   15.9460  -12.4487 C   0  0  0  0  0  0  0  0  0  0  0  0
   41.3913   15.3312  -12.8496 C   0  0  0  0  0  0  0  0  0  0  0  0
   42.7243   15.5843  -12.4984 C   0  0  0  0  0  0  0  0  0  0  0  0
   43.7814   14.8771  -13.0068 C   0  0  0  0  0  0  0  0  0  0  0  0
   43.5107   13.8774  -13.9001 C   0  0  0  0  0  0  0  0  0  0  0  0
   42.2130   13.6015  -14.2673 C   0  0  0  0  0  0  0  0  0  0  0  0
   41.1611   14.3369  -13.7338 C   0  0  0  0  0  0  0  0  0  0  0  0
   39.6966   14.2092  -13.9763 C   0  0  0  0  0  0  0  0  0  0  0  0
   40.0228   10.5698  -18.8971 F   0  0  0  0  0  0  0  0  0  0  0  0
   38.9428   10.9096  -18.1200 C   0  0  0  0  0  0  0  0  0  0  0  0
   39.1347   11.6348  -16.9662 C   0  0  0  0  0  0  0  0  0  0  0  0
   38.0522   11.9665  -16.2017 C   0  0  0  0  0  0  0  0  0  0  0  0
   36.7415   11.5995  -16.5404 C   0  0  0  0  0  0  0  0  0  0  0  0
   36.6073   10.8830  -17.6917 C   0  0  0  0  0  0  0  0  0  0  0  0
   37.6742   10.5301  -18.4876 C   0  0  0  0  0  0  0  0  0  0  0  0
 22 23  1  0  0  0
 23 24  2  0  0  0
 24 25  1  0  0  0
 25 26  2  0  0  0
 26 27  1  0  0  0
 27 28  2  0  0  0
 26  1  1  0  0  0
  1  2  2  0  0  0
  2  3  1  0  0  0
  3  4  1  0  0  0
  4  5  2  0  0  0
  5  6  1  0  0  0
  6  7  2  0  0  0
  7  8  1  0  0  0
  8  9  2  0  0  0
  7 11  1  0  0  0
 11 12  2  0  0  0
 11 13  1  0  0  0
 13 14  1  0  0  0
 14 15  1  0  0  0
 15 16  2  0  0  0
 16 17  1  0  0  0
 17 18  2  0  0  0
 18 19  1  0  0  0
 19 20  2  0  0  0
 20 21  1  0  0  0
 28 23  1  0  0  0
  9  1  1  0  0  0
 21 13  1  0  0  0
  9  4  1  0  0  0
 20 15  1  0  0  0
  3 10  1  0  0  0
M  END
> <minimizedAffinity>
-11.04096

> <CNNscore>
0.3741988540

> <CNNaffinity>
6.3955025673

> <CNN_VS>
2.3931896687

> <CNNaffinity_variance>
0.0925338119

$$$$
[H]c1c([H])c([H])c2c(c1[H])C([H])([H])N(C(=O)c1c([H])c([H])c3c(c1[H])c(-c1c([H])c([H])c(F)c([H])c1[H])c([H])n3[H])C2([H])[H]


 28 32  0  0  0  0  0  0  0  0999 V2000
   35.5682   11.6216  -16.1557 C   0  0  0  0  0  0  0  0  0  0  0  0
   34.3358   11.0729  -16.4287 C   0  0  0  0  0  0  0  0  0  0  0  0
   33.4267   11.5529  -15.5668 N   0  0  0  0  0  0  0  0  0  0  0  0
   34.0014   12.4223  -14.7025 C   0  0  0  0  0  0  0  0  0  0  0  0
   33.5259   13.1688  -13.6581 C   0  0  0  0  0  0  0  0  0  0  0  0
   34.3862   13.9795  -12.9565 C   0  0  0  0  0  0  0  0  0  0  0  0
   35.7169   14.0590  -13.2805 C   0  0  0  0  0  0  0  0  0  0  0  0
   36.1806   13.2819  -14.3570 C   0  0  0  0  0  0  0  0  0  0  0  0
   35.3403   12.4699  -15.0651 C   0  0  0  0  0  0  0  0  0  0  0  0
   32.4249   11.3124  -15.5417 H   0  0  0  0  0  0  0  0  0  0  0  0
   36.7001   14.8962  -12.6327 C   0  0  0  0  0  0  0  0  0  0  0  0
   37.7873   15.1104  -13.2989 O   0  0  0  0  0  0  0  0  0  0  0  0
   36.6314   15.5166  -11.3612 N   0  0  0  0  0  0  0  0  0  0  0  0
   37.7799   16.3194  -10.8737 C   0  0  0  0  0  0  0  0  0  0  0  0
   37.2546   17.0908   -9.7565 C   0  0  0  0  0  0  0  0  0  0  0  0
   37.7904   18.1360   -8.9918 C   0  0  0  0  0  0  0  0  0  0  0  0
   37.1165   18.7316   -7.9587 C   0  0  0  0  0  0  0  0  0  0  0  0
   35.8601   18.2756   -7.6684 C   0  0  0  0  0  0  0  0  0  0  0  0
   35.3030   17.2507   -8.3992 C   0  0  0  0  0  0  0  0  0  0  0  0
   36.0120   16.6663   -9.4422 C   0  0  0  0  0  0  0  0  0  0  0  0
   35.6094   15.5653  -10.3618 C   0  0  0  0  0  0  0  0  0  0  0  0
   40.5816   10.8417  -18.5738 F   0  0  0  0  0  0  0  0  0  0  0  0
   39.3500   11.0240  -17.9944 C   0  0  0  0  0  0  0  0  0  0  0  0
   39.2572   11.6557  -16.7752 C   0  0  0  0  0  0  0  0  0  0  0  0
   38.0262   11.8309  -16.2092 C   0  0  0  0  0  0  0  0  0  0  0  0
   36.8407   11.3933  -16.8179 C   0  0  0  0  0  0  0  0  0  0  0  0
   36.9887   10.7747  -18.0230 C   0  0  0  0  0  0  0  0  0  0  0  0
   38.2121   10.5800  -18.6243 C   0  0  0  0  0  0  0  0  0  0  0  0
 22 23  1  0  0  0
 23 24  2  0  0  0
 24 25  1  0  0  0
 25 26  2  0  0  0
 26 27  1  0  0  0
 27 28  2  0  0  0
 26  1  1  0  0  0
  1  2  2  0  0  0
  2  3  1  0  0  0
  3  4  1  0  0  0
  4  5  2  0  0  0
  5  6  1  0  0  0
  6  7  2  0  0  0
  7  8  1  0  0  0
  8  9  2  0  0  0
  7 11  1  0  0  0
 11 12  2  0  0  0
 11 13  1  0  0  0
 13 14  1  0  0  0
 14 15  1  0  0  0
 15 16  2  0  0  0
 16 17  1  0  0  0
 17 18  2  0  0  0
 18 19  1  0  0  0
 19 20  2  0  0  0
 20 21  1  0  0  0
 28 23  1  0  0  0
  9  1  1  0  0  0
 21 13  1  0  0  0
  9  4  1  0  0  0
 20 15  1  0  0  0
  3 10  1  0  0  0
M  END
> <minimizedAffinity>
-10.34635

> <CNNscore>
0.3739657402

> <CNNaffinity>
5.9463272095

> <CNN_VS>
2.2237226963

> <CNNaffinity_variance>
0.2739966214

$$$$
[H]c1c([H])c([H])c2c(c1[H])C([H])([H])N(C(=O)c1c([H])c([H])c3c(c1[H])c(-c1c([H])c([H])c(F)c([H])c1[H])c([H])n3[H])C2([H])[H]


 28 32  0  0  0  0  0  0  0  0999 V2000
   36.9118   11.6579  -16.6464 C   0  0  0  0  0  0  0  0  0  0  0  0
   36.6258   10.8767  -17.7429 C   0  0  0  0  0  0  0  0  0  0  0  0
   37.7585   10.5947  -18.4044 N   0  0  0  0  0  0  0  0  0  0  0  0
   38.8232   11.1629  -17.7908 C   0  0  0  0  0  0  0  0  0  0  0  0
   40.1666   11.1790  -18.0534 C   0  0  0  0  0  0  0  0  0  0  0  0
   41.0136   11.8648  -17.2157 C   0  0  0  0  0  0  0  0  0  0  0  0
   40.5419   12.5362  -16.1162 C   0  0  0  0  0  0  0  0  0  0  0  0
   39.1579   12.5048  -15.8686 C   0  0  0  0  0  0  0  0  0  0  0  0
   38.3010   11.8291  -16.6908 C   0  0  0  0  0  0  0  0  0  0  0  0
   37.8381   10.0281  -19.2615 H   0  0  0  0  0  0  0  0  0  0  0  0
   41.3416   13.2616  -15.1564 C   0  0  0  0  0  0  0  0  0  0  0  0
   40.6969   13.7917  -14.1689 O   0  0  0  0  0  0  0  0  0  0  0  0
   42.7428   13.4696  -15.1521 N   0  0  0  0  0  0  0  0  0  0  0  0
   43.3609   14.2789  -14.0731 C   0  0  0  0  0  0  0  0  0  0  0  0
   44.7853   13.9893  -14.1523 C   0  0  0  0  0  0  0  0  0  0  0  0
   45.8654   14.3117  -13.3194 C   0  0  0  0  0  0  0  0  0  0  0  0
   47.1560   13.9382  -13.5860 C   0  0  0  0  0  0  0  0  0  0  0  0
   47.3899   13.2156  -14.7235 C   0  0  0  0  0  0  0  0  0  0  0  0
   46.3523   12.8813  -15.5642 C   0  0  0  0  0  0  0  0  0  0  0  0
   45.0530   13.2749  -15.2664 C   0  0  0  0  0  0  0  0  0  0  0  0
   43.7906   13.0211  -16.0160 C   0  0  0  0  0  0  0  0  0  0  0  0
   33.2672   13.6754  -12.8735 F   0  0  0  0  0  0  0  0  0  0  0  0
   34.1689   13.1909  -13.7888 C   0  0  0  0  0  0  0  0  0  0  0  0
   33.7779   12.2205  -14.6829 C   0  0  0  0  0  0  0  0  0  0  0  0
   34.6844   11.7467  -15.5884 C   0  0  0  0  0  0  0  0  0  0  0  0
   36.0079   12.2070  -15.6508 C   0  0  0  0  0  0  0  0  0  0  0  0
   36.3428   13.1674  -14.7440 C   0  0  0  0  0  0  0  0  0  0  0  0
   35.4571   13.6691  -13.8166 C   0  0  0  0  0  0  0  0  0  0  0  0
 22 23  1  0  0  0
 23 24  2  0  0  0
 24 25  1  0  0  0
 25 26  2  0  0  0
 26 27  1  0  0  0
 27 28  2  0  0  0
 26  1  1  0  0  0
  1  2  2  0  0  0
  2  3  1  0  0  0
  3  4  1  0  0  0
  4  5  2  0  0  0
  5  6  1  0  0  0
  6  7  2  0  0  0
  7  8  1  0  0  0
  8  9  2  0  0  0
  7 11  1  0  0  0
 11 12  2  0  0  0
 11 13  1  0  0  0
 13 14  1  0  0  0
 14 15  1  0  0  0
 15 16  2  0  0  0
 16 17  1  0  0  0
 17 18  2  0  0  0
 18 19  1  0  0  0
 19 20  2  0  0  0
 20 21  1  0  0  0
 28 23  1  0  0  0
  9  1  1  0  0  0
 21 13  1  0  0  0
  9  4  1  0  0  0
 20 15  1  0  0  0
  3 10  1  0  0  0
M  END
> <minimizedAffinity>
-10.39082

> <CNNscore>
0.3508473635

> <CNNaffinity>
6.1668257713

> <CNN_VS>
2.1636145115

> <CNNaffinity_variance>
0.0713411793

$$$$
[H]C1=C2C([H])([H])C([H])([H])[C@@]3([H])[C@]4([H])C([H])([H])C([H])([H])C(C([H])([H])[H])(C([H])([H])[H])[C@@]4(C([H])([H])[H])C([H])([H])C([H])([H])[C@]3([H])[C@@]2(C([H])([H])[H])C([H])([H])C([H])([H])C1=O


 22 25  0  0  0  0  0  0  0  0999 V2000
   34.2590   17.2998   -6.8012 C   0  0  0  0  0  0  0  0  0  0  0  0
   34.3518   16.6441   -5.4639 C   0  0  0  0  0  0  0  0  0  0  0  0
   35.3212   17.3488   -4.5882 C   0  0  0  0  0  0  0  0  0  0  0  0
   36.7098   17.1976   -5.1211 C   0  0  0  0  0  0  0  0  0  0  0  0
   37.1287   15.8059   -5.4172 C   0  0  0  0  0  0  0  0  0  0  0  0
   36.0896   15.0349   -6.2443 C   0  0  0  0  0  0  0  0  0  0  0  0
   36.4682   13.5733   -6.1737 C   0  0  0  0  0  0  0  0  0  0  0  0
   37.8131   13.3538   -6.8316 C   0  0  0  0  0  0  0  0  0  0  0  0
   38.7999   14.3236   -6.2713 C   0  0  0  0  0  0  0  0  0  0  0  0
   39.9602   13.8677   -5.8447 C   0  0  0  0  0  0  0  0  0  0  0  0
   40.9750   14.7637   -5.2805 C   0  0  0  0  0  0  0  0  0  0  0  0
   42.1872   14.5213   -5.2123 O   0  0  0  0  0  0  0  0  0  0  0  0
   40.4563   16.0597   -4.7596 C   0  0  0  0  0  0  0  0  0  0  0  0
   39.4867   16.6515   -5.7550 C   0  0  0  0  0  0  0  0  0  0  0  0
   38.4064   15.7529   -6.2237 C   0  0  0  0  0  0  0  0  0  0  0  0
   38.1200   16.1644   -7.6816 C   0  0  0  0  0  0  0  0  0  0  0  0
   34.8081   15.1991   -5.5099 C   0  0  0  0  0  0  0  0  0  0  0  0
   33.6208   14.5171   -6.0479 C   0  0  0  0  0  0  0  0  0  0  0  0
   32.5544   15.0439   -5.1043 C   0  0  0  0  0  0  0  0  0  0  0  0
   32.9747   16.4821   -4.8747 C   0  0  0  0  0  0  0  0  0  0  0  0
   31.9352   17.3393   -5.5677 C   0  0  0  0  0  0  0  0  0  0  0  0
   32.9283   16.8343   -3.4053 C   0  0  0  0  0  0  0  0  0  0  0  0
  2  1  1  0  0  0
  2  3  1  0  0  0
  3  4  1  0  0  0
  4  5  1  0  0  0
  5  6  1  0  0  0
  6  7  1  0  0  0
  7  8  1  0  0  0
  8  9  1  0  0  0
  9 10  2  0  0  0
 10 11  1  0  0  0
 11 12  2  0  0  0
 11 13  1  0  0  0
 13 14  1  0  0  0
 14 15  1  0  0  0
 15 16  1  0  0  0
  6 17  1  0  0  0
 17 18  1  0  0  0
 18 19  1  0  0  0
 19 20  1  0  0  0
 20 21  1  0  0  0
 20 22  1  0  0  0
 17  2  1  0  0  0
 20  2  1  0  0  0
 15  5  1  0  0  0
 15  9  1  0  0  0
M  END
> <minimizedAffinity>
-4.94341

> <CNNscore>
0.5241203904

> <CNNaffinity>
5.1136760712

> <CNN_VS>
2.6801819801

> <CNNaffinity_variance>
0.1075851694

$$$$
[H]C1=C2C([H])([H])C([H])([H])[C@@]3([H])[C@]4([H])C([H])([H])C([H])([H])C(C([H])([H])[H])(C([H])([H])[H])[C@@]4(C([H])([H])[H])C([H])([H])C([H])([H])[C@]3([H])[C@@]2(C([H])([H])[H])C([H])([H])C([H])([H])C1=O


 22 25  0  0  0  0  0  0  0  0999 V2000
   35.5064   13.3688   -5.3178 C   0  0  0  0  0  0  0  0  0  0  0  0
   35.3590   14.6997   -5.9764 C   0  0  0  0  0  0  0  0  0  0  0  0
   35.7626   14.6386   -7.4034 C   0  0  0  0  0  0  0  0  0  0  0  0
   37.2305   14.3800   -7.5187 C   0  0  0  0  0  0  0  0  0  0  0  0
   38.0992   15.2852   -6.7274 C   0  0  0  0  0  0  0  0  0  0  0  0
   37.6361   15.4311   -5.2705 C   0  0  0  0  0  0  0  0  0  0  0  0
   38.3734   16.6168   -4.6915 C   0  0  0  0  0  0  0  0  0  0  0  0
   39.8603   16.3378   -4.6604 C   0  0  0  0  0  0  0  0  0  0  0  0
   40.3029   15.8737   -6.0084 C   0  0  0  0  0  0  0  0  0  0  0  0
   41.3506   16.4503   -6.5616 C   0  0  0  0  0  0  0  0  0  0  0  0
   41.8385   16.0460   -7.8843 C   0  0  0  0  0  0  0  0  0  0  0  0
   42.9845   16.2330   -8.3137 O   0  0  0  0  0  0  0  0  0  0  0  0
   40.8363   15.3576   -8.7456 C   0  0  0  0  0  0  0  0  0  0  0  0
   40.1005   14.3193   -7.9320 C   0  0  0  0  0  0  0  0  0  0  0  0
   39.5243   14.7863   -6.6498 C   0  0  0  0  0  0  0  0  0  0  0  0
   39.6037   13.5826   -5.6898 C   0  0  0  0  0  0  0  0  0  0  0  0
   36.1984   15.7982   -5.3542 C   0  0  0  0  0  0  0  0  0  0  0  0
   35.4852   16.0556   -4.0935 C   0  0  0  0  0  0  0  0  0  0  0  0
   34.0736   16.2548   -4.6161 C   0  0  0  0  0  0  0  0  0  0  0  0
   33.9730   15.2401   -5.7377 C   0  0  0  0  0  0  0  0  0  0  0  0
   33.0037   14.1788   -5.2583 C   0  0  0  0  0  0  0  0  0  0  0  0
   33.3710   15.8591   -6.9786 C   0  0  0  0  0  0  0  0  0  0  0  0
  2  1  1  0  0  0
  2  3  1  0  0  0
  3  4  1  0  0  0
  4  5  1  0  0  0
  5  6  1  0  0  0
  6  7  1  0  0  0
  7  8  1  0  0  0
  8  9  1  0  0  0
  9 10  2  0  0  0
 10 11  1  0  0  0
 11 12  2  0  0  0
 11 13  1  0  0  0
 13 14  1  0  0  0
 14 15  1  0  0  0
 15 16  1  0  0  0
  6 17  1  0  0  0
 17 18  1  0  0  0
 18 19  1  0  0  0
 19 20  1  0  0  0
 20 21  1  0  0  0
 20 22  1  0  0  0
 17  2  1  0  0  0
 20  2  1  0  0  0
 15  5  1  0  0  0
 15  9  1  0  0  0
M  END
> <minimizedAffinity>
-4.97192

> <CNNscore>
0.5011278391

> <CNNaffinity>
5.0930528641

> <CNN_VS>
2.5522706509

> <CNNaffinity_variance>
0.1031518728

$$$$
[H]C1=C2C([H])([H])C([H])([H])[C@@]3([H])[C@]4([H])C([H])([H])C([H])([H])C(C([H])([H])[H])(C([H])([H])[H])[C@@]4(C([H])([H])[H])C([H])([H])C([H])([H])[C@]3([H])[C@@]2(C([H])([H])[H])C([H])([H])C([H])([H])C1=O


 22 25  0  0  0  0  0  0  0  0999 V2000
   39.6765   12.8631   -6.7353 C   0  0  0  0  0  0  0  0  0  0  0  0
   40.0098   14.2975   -6.4940 C   0  0  0  0  0  0  0  0  0  0  0  0
   39.8179   14.6591   -5.0674 C   0  0  0  0  0  0  0  0  0  0  0  0
   38.3689   14.5970   -4.7048 C   0  0  0  0  0  0  0  0  0  0  0  0
   37.4566   15.3471   -5.6021 C   0  0  0  0  0  0  0  0  0  0  0  0
   37.7086   15.0525   -7.0881 C   0  0  0  0  0  0  0  0  0  0  0  0
   36.9764   16.1138   -7.8769 C   0  0  0  0  0  0  0  0  0  0  0  0
   35.4856   15.9953   -7.6459 C   0  0  0  0  0  0  0  0  0  0  0  0
   35.2163   15.9539   -6.1782 C   0  0  0  0  0  0  0  0  0  0  0  0
   34.3033   16.7637   -5.6812 C   0  0  0  0  0  0  0  0  0  0  0  0
   33.9896   16.7777   -4.2485 C   0  0  0  0  0  0  0  0  0  0  0  0
   32.9349   17.1917   -3.7497 O   0  0  0  0  0  0  0  0  0  0  0  0
   35.0587   16.2397   -3.3610 C   0  0  0  0  0  0  0  0  0  0  0  0
   35.5939   14.9515   -3.9399 C   0  0  0  0  0  0  0  0  0  0  0  0
   36.0051   14.9989   -5.3622 C   0  0  0  0  0  0  0  0  0  0  0  0
   35.7032   13.5996   -5.9343 C   0  0  0  0  0  0  0  0  0  0  0  0
   39.1645   15.2745   -7.2873 C   0  0  0  0  0  0  0  0  0  0  0  0
   39.6998   15.1123   -8.6480 C   0  0  0  0  0  0  0  0  0  0  0  0
   41.1832   15.2923   -8.3793 C   0  0  0  0  0  0  0  0  0  0  0  0
   41.3789   14.6058   -7.0421 C   0  0  0  0  0  0  0  0  0  0  0  0
   42.1923   13.3592   -7.3249 C   0  0  0  0  0  0  0  0  0  0  0  0
   42.1982   15.4638   -6.1050 C   0  0  0  0  0  0  0  0  0  0  0  0
  2  1  1  0  0  0
  2  3  1  0  0  0
  3  4  1  0  0  0
  4  5  1  0  0  0
  5  6  1  0  0  0
  6  7  1  0  0  0
  7  8  1  0  0  0
  8  9  1  0  0  0
  9 10  2  0  0  0
 10 11  1  0  0  0
 11 12  2  0  0  0
 11 13  1  0  0  0
 13 14  1  0  0  0
 14 15  1  0  0  0
 15 16  1  0  0  0
  6 17  1  0  0  0
 17 18  1  0  0  0
 18 19  1  0  0  0
 19 20  1  0  0  0
 20 21  1  0  0  0
 20 22  1  0  0  0
 17  2  1  0  0  0
 20  2  1  0  0  0
 15  5  1  0  0  0
 15  9  1  0  0  0
M  END
> <minimizedAffinity>
-4.67734

> <CNNscore>
0.4966454506

> <CNNaffinity>
5.1182394028

> <CNN_VS>
2.5419502258

> <CNNaffinity_variance>
0.0866193697

$$$$
[H]C1=C2C([H])([H])C([H])([H])[C@@]3([H])[C@]4([H])C([H])([H])C([H])([H])C(C([H])([H])[H])(C([H])([H])[H])[C@@]4(C([H])([H])[H])C([H])([H])C([H])([H])[C@]3([H])[C@@]2(C([H])([H])[H])C([H])([H])C([H])([H])C1=O


 22 25  0  0  0  0  0  0  0  0999 V2000
   35.2236   15.3356   -6.0693 C   0  0  0  0  0  0  0  0  0  0  0  0
   36.0144   15.8044   -7.2448 C   0  0  0  0  0  0  0  0  0  0  0  0
   36.6912   14.6700   -7.9215 C   0  0  0  0  0  0  0  0  0  0  0  0
   37.7434   14.0868   -7.0338 C   0  0  0  0  0  0  0  0  0  0  0  0
   38.7089   15.0606   -6.4684 C   0  0  0  0  0  0  0  0  0  0  0  0
   38.0231   16.2865   -5.8479 C   0  0  0  0  0  0  0  0  0  0  0  0
   39.0960   17.3298   -5.6354 C   0  0  0  0  0  0  0  0  0  0  0  0
   40.1119   16.8316   -4.6307 C   0  0  0  0  0  0  0  0  0  0  0  0
   40.5777   15.4719   -5.0339 C   0  0  0  0  0  0  0  0  0  0  0  0
   41.8735   15.2387   -5.0864 C   0  0  0  0  0  0  0  0  0  0  0  0
   42.4008   13.9270   -5.4768 C   0  0  0  0  0  0  0  0  0  0  0  0
   43.5277   13.4959   -5.1992 O   0  0  0  0  0  0  0  0  0  0  0  0
   41.4673   13.0802   -6.2715 C   0  0  0  0  0  0  0  0  0  0  0  0
   40.0949   13.1150   -5.6419 C   0  0  0  0  0  0  0  0  0  0  0  0
   39.5429   14.4603   -5.3594 C   0  0  0  0  0  0  0  0  0  0  0  0
   38.6851   14.3045   -4.0879 C   0  0  0  0  0  0  0  0  0  0  0  0
   37.1087   16.7964   -6.9027 C   0  0  0  0  0  0  0  0  0  0  0  0
   36.3396   18.0155   -6.6084 C   0  0  0  0  0  0  0  0  0  0  0  0
   35.4744   18.0975   -7.8534 C   0  0  0  0  0  0  0  0  0  0  0  0
   35.1474   16.6463   -8.1443 C   0  0  0  0  0  0  0  0  0  0  0  0
   33.6690   16.4827   -7.8556 C   0  0  0  0  0  0  0  0  0  0  0  0
   35.3489   16.3263   -9.6080 C   0  0  0  0  0  0  0  0  0  0  0  0
  2  1  1  0  0  0
  2  3  1  0  0  0
  3  4  1  0  0  0
  4  5  1  0  0  0
  5  6  1  0  0  0
  6  7  1  0  0  0
  7  8  1  0  0  0
  8  9  1  0  0  0
  9 10  2  0  0  0
 10 11  1  0  0  0
 11 12  2  0  0  0
 11 13  1  0  0  0
 13 14  1  0  0  0
 14 15  1  0  0  0
 15 16  1  0  0  0
  6 17  1  0  0  0
 17 18  1  0  0  0
 18 19  1  0  0  0
 19 20  1  0  0  0
 20 21  1  0  0  0
 20 22  1  0  0  0
 17  2  1  0  0  0
 20  2  1  0  0  0
 15  5  1  0  0  0
 15  9  1  0  0  0
M  END
> <minimizedAffinity>
-4.81067

> <CNNscore>
0.4910951257

> <CNNaffinity>
5.1732358932

> <CNN_VS>
2.5405509472

> <CNNaffinity_variance>
0.3599610925

$$$$
[H]C1=C2C([H])([H])C([H])([H])[C@@]3([H])[C@]4([H])C([H])([H])C([H])([H])C(C([H])([H])[H])(C([H])([H])[H])[C@@]4(C([H])([H])[H])C([H])([H])C([H])([H])[C@]3([H])[C@@]2(C([H])([H])[H])C([H])([H])C([H])([H])C1=O


 22 25  0  0  0  0  0  0  0  0999 V2000
   40.6241   12.9219   -5.4808 C   0  0  0  0  0  0  0  0  0  0  0  0
   40.9349   14.3491   -5.7864 C   0  0  0  0  0  0  0  0  0  0  0  0
   40.2685   15.2604   -4.8228 C   0  0  0  0  0  0  0  0  0  0  0  0
   38.7846   15.2068   -4.9962 C   0  0  0  0  0  0  0  0  0  0  0  0
   38.2995   15.4045   -6.3840 C   0  0  0  0  0  0  0  0  0  0  0  0
   39.0471   14.5345   -7.4051 C   0  0  0  0  0  0  0  0  0  0  0  0
   38.7099   15.0769   -8.7751 C   0  0  0  0  0  0  0  0  0  0  0  0
   37.2306   14.9124   -9.0480 C   0  0  0  0  0  0  0  0  0  0  0  0
   36.4532   15.4706   -7.9025 C   0  0  0  0  0  0  0  0  0  0  0  0
   35.4734   16.3143   -8.1564 C   0  0  0  0  0  0  0  0  0  0  0  0
   34.6704   16.9028   -7.0793 C   0  0  0  0  0  0  0  0  0  0  0  0
   33.5341   17.3766   -7.2092 O   0  0  0  0  0  0  0  0  0  0  0  0
   35.3179   16.9082   -5.7374 C   0  0  0  0  0  0  0  0  0  0  0  0
   35.9460   15.5600   -5.4751 C   0  0  0  0  0  0  0  0  0  0  0  0
   36.8399   15.0413   -6.5364 C   0  0  0  0  0  0  0  0  0  0  0  0
   36.6785   13.5084   -6.5103 C   0  0  0  0  0  0  0  0  0  0  0  0
   40.4888   14.8020   -7.1627 C   0  0  0  0  0  0  0  0  0  0  0  0
   41.4636   14.1339   -8.0389 C   0  0  0  0  0  0  0  0  0  0  0  0
   42.7614   14.5654   -7.3795 C   0  0  0  0  0  0  0  0  0  0  0  0
   42.4253   14.5368   -5.9017 C   0  0  0  0  0  0  0  0  0  0  0  0
   43.2096   13.3809   -5.3147 C   0  0  0  0  0  0  0  0  0  0  0  0
   42.9061   15.7922   -5.2102 C   0  0  0  0  0  0  0  0  0  0  0  0
  2  1  1  0  0  0
  2  3  1  0  0  0
  3  4  1  0  0  0
  4  5  1  0  0  0
  5  6  1  0  0  0
  6  7  1  0  0  0
  7  8  1  0  0  0
  8  9  1  0  0  0
  9 10  2  0  0  0
 10 11  1  0  0  0
 11 12  2  0  0  0
 11 13  1  0  0  0
 13 14  1  0  0  0
 14 15  1  0  0  0
 15 16  1  0  0  0
  6 17  1  0  0  0
 17 18  1  0  0  0
 18 19  1  0  0  0
 19 20  1  0  0  0
 20 21  1  0  0  0
 20 22  1  0  0  0
 17  2  1  0  0  0
 20  2  1  0  0  0
 15  5  1  0  0  0
 15  9  1  0  0  0
M  END
> <minimizedAffinity>
-4.67417

> <CNNscore>
0.4768764377

> <CNNaffinity>
5.0508651733

> <CNN_VS>
2.4086384773

> <CNNaffinity_variance>
0.0854149610

$$$$
[H]C1=C2C([H])([H])C([H])([H])[C@@]3([H])[C@]4([H])C([H])([H])C([H])([H])C(C([H])([H])[H])(C([H])([H])[H])[C@@]4(C([H])([H])[H])C([H])([H])C([H])([H])[C@]3([H])[C@@]2(C([H])([H])[H])C([H])([H])C([H])([H])C1=O


 22 25  0  0  0  0  0  0  0  0999 V2000
   35.9114   12.5745  -12.3329 C   0  0  0  0  0  0  0  0  0  0  0  0
   35.5928   13.5788  -13.3897 C   0  0  0  0  0  0  0  0  0  0  0  0
   35.0459   12.9232  -14.6038 C   0  0  0  0  0  0  0  0  0  0  0  0
   36.0947   12.0834  -15.2594 C   0  0  0  0  0  0  0  0  0  0  0  0
   37.3839   12.7681  -15.5230 C   0  0  0  0  0  0  0  0  0  0  0  0
   37.9141   13.5297  -14.2994 C   0  0  0  0  0  0  0  0  0  0  0  0
   39.0131   14.4429  -14.7924 C   0  0  0  0  0  0  0  0  0  0  0  0
   40.1618   13.6234  -15.3391 C   0  0  0  0  0  0  0  0  0  0  0  0
   39.6346   12.6287  -16.3194 C   0  0  0  0  0  0  0  0  0  0  0  0
   40.2109   12.5410  -17.5011 C   0  0  0  0  0  0  0  0  0  0  0  0
   39.7431   11.5879  -18.5130 C   0  0  0  0  0  0  0  0  0  0  0  0
   40.4147   11.1631  -19.4623 O   0  0  0  0  0  0  0  0  0  0  0  0
   38.3383   11.1217  -18.3422 C   0  0  0  0  0  0  0  0  0  0  0  0
   38.0969   10.7677  -16.8939 C   0  0  0  0  0  0  0  0  0  0  0  0
   38.4799   11.7974  -15.9002 C   0  0  0  0  0  0  0  0  0  0  0  0
   38.9439   11.0236  -14.6502 C   0  0  0  0  0  0  0  0  0  0  0  0
   36.7855   14.3896  -13.8571 C   0  0  0  0  0  0  0  0  0  0  0  0
   37.0174   15.2855  -12.7135 C   0  0  0  0  0  0  0  0  0  0  0  0
   35.6219   15.8536  -12.5266 C   0  0  0  0  0  0  0  0  0  0  0  0
   34.7233   14.6680  -12.8176 C   0  0  0  0  0  0  0  0  0  0  0  0
   34.0944   14.2827  -11.4941 C   0  0  0  0  0  0  0  0  0  0  0  0
   33.5948   15.0558  -13.7458 C   0  0  0  0  0  0  0  0  0  0  0  0
  2  1  1  0  0  0
  2  3  1  0  0  0
  3  4  1  0  0  0
  4  5  1  0  0  0
  5  6  1  0  0  0
  6  7  1  0  0  0
  7  8  1  0  0  0
  8  9  1  0  0  0
  9 10  2  0  0  0
 10 11  1  0  0  0
 11 12  2  0  0  0
 11 13  1  0  0  0
 13 14  1  0  0  0
 14 15  1  0  0  0
 15 16  1  0  0  0
  6 17  1  0  0  0
 17 18  1  0  0  0
 18 19  1  0  0  0
 19 20  1  0  0  0
 20 21  1  0  0  0
 20 22  1  0  0  0
 17  2  1  0  0  0
 20  2  1  0  0  0
 15  5  1  0  0  0
 15  9  1  0  0  0
M  END
> <minimizedAffinity>
-5.24562

> <CNNscore>
0.4759577215

> <CNNaffinity>
6.3115172386

> <CNN_VS>
3.0040154457

> <CNNaffinity_variance>
0.1648357809

$$$$
[H]C1=C2C([H])([H])C([H])([H])[C@@]3([H])[C@]4([H])C([H])([H])C([H])([H])C(C([H])([H])[H])(C([H])([H])[H])[C@@]4(C([H])([H])[H])C([H])([H])C([H])([H])[C@]3([H])[C@@]2(C([H])([H])[H])C([H])([H])C([H])([H])C1=O


 22 25  0  0  0  0  0  0  0  0999 V2000
   44.2673   14.5310   -6.5329 C   0  0  0  0  0  0  0  0  0  0  0  0
   43.3222   13.4468   -6.9305 C   0  0  0  0  0  0  0  0  0  0  0  0
   43.8736   12.1086   -6.6016 C   0  0  0  0  0  0  0  0  0  0  0  0
   45.0739   11.8185   -7.4444 C   0  0  0  0  0  0  0  0  0  0  0  0
   44.8857   12.0054   -8.9038 C   0  0  0  0  0  0  0  0  0  0  0  0
   44.2283   13.3490   -9.2517 C   0  0  0  0  0  0  0  0  0  0  0  0
   43.7849   13.2610  -10.6940 C   0  0  0  0  0  0  0  0  0  0  0  0
   44.9887   13.1068  -11.5979 C   0  0  0  0  0  0  0  0  0  0  0  0
   45.8420   11.9897  -11.0957 C   0  0  0  0  0  0  0  0  0  0  0  0
   46.2309   11.0613  -11.9461 C   0  0  0  0  0  0  0  0  0  0  0  0
   47.0681    9.9347  -11.5207 C   0  0  0  0  0  0  0  0  0  0  0  0
   47.7823    9.2509  -12.2657 O   0  0  0  0  0  0  0  0  0  0  0  0
   47.0220    9.6263  -10.0638 C   0  0  0  0  0  0  0  0  0  0  0  0
   47.1328   10.9083   -9.2730 C   0  0  0  0  0  0  0  0  0  0  0  0
   46.1973   11.9913   -9.6556 C   0  0  0  0  0  0  0  0  0  0  0  0
   46.9557   13.3100   -9.4057 C   0  0  0  0  0  0  0  0  0  0  0  0
   43.0035   13.4118   -8.4123 C   0  0  0  0  0  0  0  0  0  0  0  0
   42.1287   14.5843   -8.5680 C   0  0  0  0  0  0  0  0  0  0  0  0
   41.1137   14.3130   -7.4719 C   0  0  0  0  0  0  0  0  0  0  0  0
   41.9557   13.7215   -6.3588 C   0  0  0  0  0  0  0  0  0  0  0  0
   41.9792   14.7579   -5.2537 C   0  0  0  0  0  0  0  0  0  0  0  0
   41.3072   12.4815   -5.7867 C   0  0  0  0  0  0  0  0  0  0  0  0
  2  1  1  0  0  0
  2  3  1  0  0  0
  3  4  1  0  0  0
  4  5  1  0  0  0
  5  6  1  0  0  0
  6  7  1  0  0  0
  7  8  1  0  0  0
  8  9  1  0  0  0
  9 10  2  0  0  0
 10 11  1  0  0  0
 11 12  2  0  0  0
 11 13  1  0  0  0
 13 14  1  0  0  0
 14 15  1  0  0  0
 15 16  1  0  0  0
  6 17  1  0  0  0
 17 18  1  0  0  0
 18 19  1  0  0  0
 19 20  1  0  0  0
 20 21  1  0  0  0
 20 22  1  0  0  0
 17  2  1  0  0  0
 20  2  1  0  0  0
 15  5  1  0  0  0
 15  9  1  0  0  0
M  END
> <minimizedAffinity>
-4.83416

> <CNNscore>
0.4414417148

> <CNNaffinity>
4.9577422142

> <CNN_VS>
2.1885542870

> <CNNaffinity_variance>
0.1340194046

$$$$
[H]C1=C2C([H])([H])C([H])([H])[C@@]3([H])[C@]4([H])C([H])([H])C([H])([H])C(C([H])([H])[H])(C([H])([H])[H])[C@@]4(C([H])([H])[H])C([H])([H])C([H])([H])[C@]3([H])[C@@]2(C([H])([H])[H])C([H])([H])C([H])([H])C1=O


 22 25  0  0  0  0  0  0  0  0999 V2000
   47.7501   12.9682   -9.2968 C   0  0  0  0  0  0  0  0  0  0  0  0
   47.1121   11.6370   -9.5151 C   0  0  0  0  0  0  0  0  0  0  0  0
   45.8137   11.7748  -10.2208 C   0  0  0  0  0  0  0  0  0  0  0  0
   44.8191   12.4728   -9.3499 C   0  0  0  0  0  0  0  0  0  0  0  0
   44.6608   11.9081   -7.9875 C   0  0  0  0  0  0  0  0  0  0  0  0
   46.0040   11.6722   -7.2814 C   0  0  0  0  0  0  0  0  0  0  0  0
   45.7229   10.7935   -6.0841 C   0  0  0  0  0  0  0  0  0  0  0  0
   44.8271   11.5214   -5.1056 C   0  0  0  0  0  0  0  0  0  0  0  0
   43.6373   12.0566   -5.8311 C   0  0  0  0  0  0  0  0  0  0  0  0
   42.4383   11.8167   -5.3400 C   0  0  0  0  0  0  0  0  0  0  0  0
   41.2262   12.3100   -6.0022 C   0  0  0  0  0  0  0  0  0  0  0  0
   40.1274   12.4747   -5.4560 O   0  0  0  0  0  0  0  0  0  0  0  0
   41.3794   12.6251   -7.4504 C   0  0  0  0  0  0  0  0  0  0  0  0
   42.6527   13.4089   -7.6640 C   0  0  0  0  0  0  0  0  0  0  0  0
   43.8811   12.8273   -7.0748 C   0  0  0  0  0  0  0  0  0  0  0  0
   44.7605   14.0261   -6.6673 C   0  0  0  0  0  0  0  0  0  0  0  0
   46.8124   10.8742   -8.2396 C   0  0  0  0  0  0  0  0  0  0  0  0
   48.1541   10.4485   -7.8118 C   0  0  0  0  0  0  0  0  0  0  0  0
   48.6553    9.8039   -9.0918 C   0  0  0  0  0  0  0  0  0  0  0  0
   48.0903   10.7007  -10.1755 C   0  0  0  0  0  0  0  0  0  0  0  0
   49.2755   11.4231  -10.7831 C   0  0  0  0  0  0  0  0  0  0  0  0
   47.4569    9.8860  -11.2801 C   0  0  0  0  0  0  0  0  0  0  0  0
  2  1  1  0  0  0
  2  3  1  0  0  0
  3  4  1  0  0  0
  4  5  1  0  0  0
  5  6  1  0  0  0
  6  7  1  0  0  0
  7  8  1  0  0  0
  8  9  1  0  0  0
  9 10  2  0  0  0
 10 11  1  0  0  0
 11 12  2  0  0  0
 11 13  1  0  0  0
 13 14  1  0  0  0
 14 15  1  0  0  0
 15 16  1  0  0  0
  6 17  1  0  0  0
 17 18  1  0  0  0
 18 19  1  0  0  0
 19 20  1  0  0  0
 20 21  1  0  0  0
 20 22  1  0  0  0
 17  2  1  0  0  0
 20  2  1  0  0  0
 15  5  1  0  0  0
 15  9  1  0  0  0
M  END
> <minimizedAffinity>
-4.91200

> <CNNscore>
0.4090218544

> <CNNaffinity>
4.9459962845

> <CNN_VS>
2.0230205059

> <CNNaffinity_variance>
0.1445568502

$$$$
[H]C1=C2C([H])([H])C([H])([H])[C@@]3([H])[C@]4([H])C([H])([H])C([H])([H])C(C([H])([H])[H])(C([H])([H])[H])[C@@]4(C([H])([H])[H])C([H])([H])C([H])([H])[C@]3([H])[C@@]2(C([H])([H])[H])C([H])([H])C([H])([H])C1=O


 22 25  0  0  0  0  0  0  0  0999 V2000
   43.7502   12.5089   -7.3988 C   0  0  0  0  0  0  0  0  0  0  0  0
   43.2826   12.1378   -6.0311 C   0  0  0  0  0  0  0  0  0  0  0  0
   42.0227   11.3556   -6.0899 C   0  0  0  0  0  0  0  0  0  0  0  0
   40.9035   12.2081   -6.5956 C   0  0  0  0  0  0  0  0  0  0  0  0
   40.7275   13.5051   -5.8978 C   0  0  0  0  0  0  0  0  0  0  0  0
   42.0431   14.2828   -5.7467 C   0  0  0  0  0  0  0  0  0  0  0  0
   41.7912   15.3812   -4.7393 C   0  0  0  0  0  0  0  0  0  0  0  0
   40.7601   16.3501   -5.2758 C   0  0  0  0  0  0  0  0  0  0  0  0
   39.5637   15.5885   -5.7416 C   0  0  0  0  0  0  0  0  0  0  0  0
   38.3721   15.9722   -5.3303 C   0  0  0  0  0  0  0  0  0  0  0  0
   37.1545   15.2685   -5.7466 C   0  0  0  0  0  0  0  0  0  0  0  0
   36.0128   15.7471   -5.7419 O   0  0  0  0  0  0  0  0  0  0  0  0
   37.3592   13.8654   -6.2044 C   0  0  0  0  0  0  0  0  0  0  0  0
   38.5455   13.8073   -7.1374 C   0  0  0  0  0  0  0  0  0  0  0  0
   39.7937   14.4324   -6.6420 C   0  0  0  0  0  0  0  0  0  0  0  0
   40.5042   14.9980   -7.8878 C   0  0  0  0  0  0  0  0  0  0  0  0
   42.9944   13.3221   -5.1296 C   0  0  0  0  0  0  0  0  0  0  0  0
   44.3471   13.8076   -4.8152 C   0  0  0  0  0  0  0  0  0  0  0  0
   44.9959   12.5178   -4.3456 C   0  0  0  0  0  0  0  0  0  0  0  0
   44.3999   11.4739   -5.2690 C   0  0  0  0  0  0  0  0  0  0  0  0
   45.5299   11.0129   -6.1669 C   0  0  0  0  0  0  0  0  0  0  0  0
   43.9322   10.2642   -4.4923 C   0  0  0  0  0  0  0  0  0  0  0  0
  2  1  1  0  0  0
  2  3  1  0  0  0
  3  4  1  0  0  0
  4  5  1  0  0  0
  5  6  1  0  0  0
  6  7  1  0  0  0
  7  8  1  0  0  0
  8  9  1  0  0  0
  9 10  2  0  0  0
 10 11  1  0  0  0
 11 12  2  0  0  0
 11 13  1  0  0  0
 13 14  1  0  0  0
 14 15  1  0  0  0
 15 16  1  0  0  0
  6 17  1  0  0  0
 17 18  1  0  0  0
 18 19  1  0  0  0
 19 20  1  0  0  0
 20 21  1  0  0  0
 20 22  1  0  0  0
 17  2  1  0  0  0
 20  2  1  0  0  0
 15  5  1  0  0  0
 15  9  1  0  0  0
M  END
> <minimizedAffinity>
-4.92651

> <CNNscore>
0.4080819488

> <CNNaffinity>
4.9142751694

> <CNN_VS>
2.0054268837

> <CNNaffinity_variance>
0.0561747625

$$$$
