[H]c1nc(N([H])[H])sc1-c1c([H])c([H])c2c(-c3nc(N4C([H])([H])C([H])([H])N([H])C([H])([H])C4([H])[H])c([H])c([H])c3[H])nn([H])c2c1[H]


 31 35  0  0  0  0  0  0  0  0999 V2000
   41.4497   12.4842  -16.2616 C   0  0  0  0  0  0  0  0  0  0  0  0
   40.5535   12.8520  -15.3027 C   0  0  0  0  0  0  0  0  0  0  0  0
   39.2071   12.5374  -15.4609 C   0  0  0  0  0  0  0  0  0  0  0  0
   38.7679   11.8509  -16.5894 C   0  0  0  0  0  0  0  0  0  0  0  0
   37.5536   11.4131  -17.0167 C   0  0  0  0  0  0  0  0  0  0  0  0
   37.7651   10.8040  -18.2059 N   0  0  0  0  0  0  0  0  0  0  0  0
   39.0303   10.8444  -18.5276 N   0  0  0  0  0  0  0  0  0  0  0  0
   39.7138   11.4911  -17.5491 C   0  0  0  0  0  0  0  0  0  0  0  0
   41.0419   11.8122  -17.3730 C   0  0  0  0  0  0  0  0  0  0  0  0
   39.5160   10.4649  -19.3796 H   0  0  0  0  0  0  0  0  0  0  0  0
   46.9008   13.0146  -16.3644 N   0  0  0  0  0  0  0  0  0  0  0  0
   45.4654   13.0561  -16.1743 C   0  0  0  0  0  0  0  0  0  0  0  0
   44.7669   13.8555  -15.3816 N   0  0  0  0  0  0  0  0  0  0  0  0
   43.4783   13.7522  -15.3375 C   0  0  0  0  0  0  0  0  0  0  0  0
   42.8898   12.8000  -16.1309 C   0  0  0  0  0  0  0  0  0  0  0  0
   44.2436   12.1041  -16.9001 S   0  0  0  0  0  0  0  0  0  0  0  0
   47.4679   13.8577  -16.2263 H   0  0  0  0  0  0  0  0  0  0  0  0
   47.3351   12.1054  -16.6440 H   0  0  0  0  0  0  0  0  0  0  0  0
   36.2699   11.5562  -16.3510 C   0  0  0  0  0  0  0  0  0  0  0  0
   35.1684   10.8690  -16.8648 C   0  0  0  0  0  0  0  0  0  0  0  0
   33.9245   10.9563  -16.2889 C   0  0  0  0  0  0  0  0  0  0  0  0
   33.7814   11.7503  -15.1727 C   0  0  0  0  0  0  0  0  0  0  0  0
   34.8708   12.4490  -14.6391 C   0  0  0  0  0  0  0  0  0  0  0  0
   36.0361   12.3001  -15.2687 N   0  0  0  0  0  0  0  0  0  0  0  0
   34.7026   13.2621  -13.4878 N   0  0  0  0  0  0  0  0  0  0  0  0
   35.8021   13.3840  -12.5626 C   0  0  0  0  0  0  0  0  0  0  0  0
   35.5954   14.4365  -11.5243 C   0  0  0  0  0  0  0  0  0  0  0  0
   34.8131   15.5043  -12.1375 N   0  0  0  0  0  0  0  0  0  0  0  0
   33.4509   14.9852  -12.2416 C   0  0  0  0  0  0  0  0  0  0  0  0
   33.4391   13.9300  -13.2949 C   0  0  0  0  0  0  0  0  0  0  0  0
   34.8099   16.3744  -11.5985 H   0  0  0  0  0  0  0  0  0  0  0  0
 11 12  1  0  0  0
 12 13  2  0  0  0
 13 14  1  0  0  0
 14 15  2  0  0  0
 15 16  1  0  0  0
 15  1  1  0  0  0
  1  2  2  0  0  0
  2  3  1  0  0  0
  3  4  2  0  0  0
  4  5  1  0  0  0
  5  6  2  0  0  0
  6  7  1  0  0  0
  7  8  1  0  0  0
  8  9  2  0  0  0
  5 19  1  0  0  0
 19 20  2  0  0  0
 20 21  1  0  0  0
 21 22  2  0  0  0
 22 23  1  0  0  0
 23 24  2  0  0  0
 23 25  1  0  0  0
 25 26  1  0  0  0
 26 27  1  0  0  0
 27 28  1  0  0  0
 28 29  1  0  0  0
 29 30  1  0  0  0
 16 12  1  0  0  0
  9  1  1  0  0  0
 24 19  1  0  0  0
 30 25  1  0  0  0
  8  4  1  0  0  0
 11 17  1  0  0  0
 11 18  1  0  0  0
  7 10  1  0  0  0
 28 31  1  0  0  0
M  END
> <minimizedAffinity>
-10.26921

> <CNNscore>
0.9142231345

> <CNNaffinity>
7.5981278419

> <CNN_VS>
6.9463844299

> <CNNaffinity_variance>
0.0708430260

$$$$
[H]c1nc(N([H])[H])sc1-c1c([H])c([H])c2c(-c3nc(N4C([H])([H])C([H])([H])N([H])C([H])([H])C4([H])[H])c([H])c([H])c3[H])nn([H])c2c1[H]


 31 35  0  0  0  0  0  0  0  0999 V2000
   37.5191   12.8092  -15.1928 C   0  0  0  0  0  0  0  0  0  0  0  0
   38.5084   13.3235  -14.4087 C   0  0  0  0  0  0  0  0  0  0  0  0
   39.8357   13.2114  -14.8121 C   0  0  0  0  0  0  0  0  0  0  0  0
   40.1615   12.5790  -16.0086 C   0  0  0  0  0  0  0  0  0  0  0  0
   41.3302   12.3203  -16.6536 C   0  0  0  0  0  0  0  0  0  0  0  0
   41.0009   11.6662  -17.7910 N   0  0  0  0  0  0  0  0  0  0  0  0
   39.7070   11.5113  -17.8772 N   0  0  0  0  0  0  0  0  0  0  0  0
   39.1225   12.0652  -16.7844 C   0  0  0  0  0  0  0  0  0  0  0  0
   37.8153   12.1868  -16.3668 C   0  0  0  0  0  0  0  0  0  0  0  0
   39.1376   11.0487  -18.6307 H   0  0  0  0  0  0  0  0  0  0  0  0
   32.5100   13.8375  -13.2290 N   0  0  0  0  0  0  0  0  0  0  0  0
   33.7257   13.3878  -13.8754 C   0  0  0  0  0  0  0  0  0  0  0  0
   33.8733   12.4003  -14.7462 N   0  0  0  0  0  0  0  0  0  0  0  0
   35.0449   12.1355  -15.2263 C   0  0  0  0  0  0  0  0  0  0  0  0
   36.0957   12.9076  -14.7994 C   0  0  0  0  0  0  0  0  0  0  0  0
   35.3232   13.9793  -13.7209 S   0  0  0  0  0  0  0  0  0  0  0  0
   31.6012   13.7140  -13.6877 H   0  0  0  0  0  0  0  0  0  0  0  0
   32.5890   14.2876  -12.2884 H   0  0  0  0  0  0  0  0  0  0  0  0
   42.6769   12.6652  -16.2304 C   0  0  0  0  0  0  0  0  0  0  0  0
   43.7501   11.9441  -16.7575 C   0  0  0  0  0  0  0  0  0  0  0  0
   45.0498   12.2136  -16.4040 C   0  0  0  0  0  0  0  0  0  0  0  0
   45.2788   13.2286  -15.5018 C   0  0  0  0  0  0  0  0  0  0  0  0
   44.2193   13.9655  -14.9595 C   0  0  0  0  0  0  0  0  0  0  0  0
   42.9950   13.6288  -15.3646 N   0  0  0  0  0  0  0  0  0  0  0  0
   44.4764   15.0080  -14.0311 N   0  0  0  0  0  0  0  0  0  0  0  0
   45.5752   15.9057  -14.2886 C   0  0  0  0  0  0  0  0  0  0  0  0
   45.6058   17.0891  -13.3790 C   0  0  0  0  0  0  0  0  0  0  0  0
   44.2232   17.4278  -13.0601 N   0  0  0  0  0  0  0  0  0  0  0  0
   43.7726   16.4026  -12.1209 C   0  0  0  0  0  0  0  0  0  0  0  0
   43.6269   15.1225  -12.8713 C   0  0  0  0  0  0  0  0  0  0  0  0
   44.1126   18.3538  -12.6381 H   0  0  0  0  0  0  0  0  0  0  0  0
 11 12  1  0  0  0
 12 13  2  0  0  0
 13 14  1  0  0  0
 14 15  2  0  0  0
 15 16  1  0  0  0
 15  1  1  0  0  0
  1  2  2  0  0  0
  2  3  1  0  0  0
  3  4  2  0  0  0
  4  5  1  0  0  0
  5  6  2  0  0  0
  6  7  1  0  0  0
  7  8  1  0  0  0
  8  9  2  0  0  0
  5 19  1  0  0  0
 19 20  2  0  0  0
 20 21  1  0  0  0
 21 22  2  0  0  0
 22 23  1  0  0  0
 23 24  2  0  0  0
 23 25  1  0  0  0
 25 26  1  0  0  0
 26 27  1  0  0  0
 27 28  1  0  0  0
 28 29  1  0  0  0
 29 30  1  0  0  0
 16 12  1  0  0  0
  9  1  1  0  0  0
 24 19  1  0  0  0
 30 25  1  0  0  0
  8  4  1  0  0  0
 11 17  1  0  0  0
 11 18  1  0  0  0
  7 10  1  0  0  0
 28 31  1  0  0  0
M  END
> <minimizedAffinity>
-9.39241

> <CNNscore>
0.7189732790

> <CNNaffinity>
7.0575652122

> <CNN_VS>
5.0742006302

> <CNNaffinity_variance>
0.1691826880

$$$$
[H]c1nc(N([H])[H])sc1-c1c([H])c([H])c2c(-c3nc(N4C([H])([H])C([H])([H])N([H])C([H])([H])C4([H])[H])c([H])c([H])c3[H])nn([H])c2c1[H]


 31 35  0  0  0  0  0  0  0  0999 V2000
   37.3772   12.9179  -14.9839 C   0  0  0  0  0  0  0  0  0  0  0  0
   38.4000   13.4261  -14.2399 C   0  0  0  0  0  0  0  0  0  0  0  0
   39.7115   13.2841  -14.6836 C   0  0  0  0  0  0  0  0  0  0  0  0
   39.9875   12.6280  -15.8798 C   0  0  0  0  0  0  0  0  0  0  0  0
   41.1302   12.3386  -16.5576 C   0  0  0  0  0  0  0  0  0  0  0  0
   40.7531   11.6735  -17.6736 N   0  0  0  0  0  0  0  0  0  0  0  0
   39.4545   11.5406  -17.7161 N   0  0  0  0  0  0  0  0  0  0  0  0
   38.9153   12.1213  -16.6139 C   0  0  0  0  0  0  0  0  0  0  0  0
   37.6246   12.2727  -16.1568 C   0  0  0  0  0  0  0  0  0  0  0  0
   38.8533   11.0770  -18.4437 H   0  0  0  0  0  0  0  0  0  0  0  0
   32.4739   13.9714  -12.7808 N   0  0  0  0  0  0  0  0  0  0  0  0
   33.6487   13.5407  -13.5104 C   0  0  0  0  0  0  0  0  0  0  0  0
   33.7203   12.6727  -14.5088 N   0  0  0  0  0  0  0  0  0  0  0  0
   34.8653   12.4050  -15.0479 C   0  0  0  0  0  0  0  0  0  0  0  0
   35.9691   13.0478  -14.5468 C   0  0  0  0  0  0  0  0  0  0  0  0
   35.2825   14.0087  -13.3165 S   0  0  0  0  0  0  0  0  0  0  0  0
   31.5521   13.9658  -13.2299 H   0  0  0  0  0  0  0  0  0  0  0  0
   32.5958   14.2848  -11.7906 H   0  0  0  0  0  0  0  0  0  0  0  0
   42.4956   12.6656  -16.1830 C   0  0  0  0  0  0  0  0  0  0  0  0
   43.5426   11.9805  -16.8026 C   0  0  0  0  0  0  0  0  0  0  0  0
   44.8578   12.2358  -16.4994 C   0  0  0  0  0  0  0  0  0  0  0  0
   45.1295   13.1995  -15.5538 C   0  0  0  0  0  0  0  0  0  0  0  0
   44.0969   13.8997  -14.9190 C   0  0  0  0  0  0  0  0  0  0  0  0
   42.8545   13.5805  -15.2811 N   0  0  0  0  0  0  0  0  0  0  0  0
   44.3979   14.8896  -13.9471 N   0  0  0  0  0  0  0  0  0  0  0  0
   43.5755   14.9686  -12.7651 C   0  0  0  0  0  0  0  0  0  0  0  0
   44.1212   15.8813  -11.7174 C   0  0  0  0  0  0  0  0  0  0  0  0
   45.5762   15.8148  -11.7981 N   0  0  0  0  0  0  0  0  0  0  0  0
   45.9394   16.5664  -12.9979 C   0  0  0  0  0  0  0  0  0  0  0  0
   45.5131   15.7723  -14.1856 C   0  0  0  0  0  0  0  0  0  0  0  0
   46.0527   16.2135  -10.9846 H   0  0  0  0  0  0  0  0  0  0  0  0
 11 12  1  0  0  0
 12 13  2  0  0  0
 13 14  1  0  0  0
 14 15  2  0  0  0
 15 16  1  0  0  0
 15  1  1  0  0  0
  1  2  2  0  0  0
  2  3  1  0  0  0
  3  4  2  0  0  0
  4  5  1  0  0  0
  5  6  2  0  0  0
  6  7  1  0  0  0
  7  8  1  0  0  0
  8  9  2  0  0  0
  5 19  1  0  0  0
 19 20  2  0  0  0
 20 21  1  0  0  0
 21 22  2  0  0  0
 22 23  1  0  0  0
 23 24  2  0  0  0
 23 25  1  0  0  0
 25 26  1  0  0  0
 26 27  1  0  0  0
 27 28  1  0  0  0
 28 29  1  0  0  0
 29 30  1  0  0  0
 16 12  1  0  0  0
  9  1  1  0  0  0
 24 19  1  0  0  0
 30 25  1  0  0  0
  8  4  1  0  0  0
 11 17  1  0  0  0
 11 18  1  0  0  0
  7 10  1  0  0  0
 28 31  1  0  0  0
M  END
> <minimizedAffinity>
-9.17010

> <CNNscore>
0.6710657477

> <CNNaffinity>
6.9840493202

> <CNN_VS>
4.6867561340

> <CNNaffinity_variance>
0.1546364129

$$$$
[H]c1nc(N([H])[H])sc1-c1c([H])c([H])c2c(-c3nc(N4C([H])([H])C([H])([H])N([H])C([H])([H])C4([H])[H])c([H])c([H])c3[H])nn([H])c2c1[H]


 31 35  0  0  0  0  0  0  0  0999 V2000
   38.1139   12.2589  -15.7603 C   0  0  0  0  0  0  0  0  0  0  0  0
   38.5286   12.8686  -14.6139 C   0  0  0  0  0  0  0  0  0  0  0  0
   39.8750   13.1789  -14.4468 C   0  0  0  0  0  0  0  0  0  0  0  0
   40.8012   12.8721  -15.4396 C   0  0  0  0  0  0  0  0  0  0  0  0
   42.1441   13.0439  -15.5655 C   0  0  0  0  0  0  0  0  0  0  0  0
   42.4818   12.5352  -16.7726 N   0  0  0  0  0  0  0  0  0  0  0  0
   41.4294   12.0655  -17.3872 N   0  0  0  0  0  0  0  0  0  0  0  0
   40.3397   12.2484  -16.5986 C   0  0  0  0  0  0  0  0  0  0  0  0
   39.0027   11.9499  -16.7440 C   0  0  0  0  0  0  0  0  0  0  0  0
   41.3549   11.6091  -18.3317 H   0  0  0  0  0  0  0  0  0  0  0  0
   33.1303   10.5695  -17.2821 N   0  0  0  0  0  0  0  0  0  0  0  0
   34.3331   11.1174  -16.6895 C   0  0  0  0  0  0  0  0  0  0  0  0
   34.4481   11.8264  -15.5763 N   0  0  0  0  0  0  0  0  0  0  0  0
   35.6129   12.2383  -15.1931 C   0  0  0  0  0  0  0  0  0  0  0  0
   36.6912   11.9123  -15.9764 C   0  0  0  0  0  0  0  0  0  0  0  0
   35.9531   11.0229  -17.2304 S   0  0  0  0  0  0  0  0  0  0  0  0
   32.3272   10.3228  -16.6942 H   0  0  0  0  0  0  0  0  0  0  0  0
   33.1084   10.4354  -18.3189 H   0  0  0  0  0  0  0  0  0  0  0  0
   43.0584   13.6490  -14.6118 C   0  0  0  0  0  0  0  0  0  0  0  0
   44.3322   14.0195  -15.0472 C   0  0  0  0  0  0  0  0  0  0  0  0
   45.2493   14.5963  -14.2028 C   0  0  0  0  0  0  0  0  0  0  0  0
   44.8812   14.8063  -12.8924 C   0  0  0  0  0  0  0  0  0  0  0  0
   43.6099   14.4432  -12.4323 C   0  0  0  0  0  0  0  0  0  0  0  0
   42.7914   13.8906  -13.3274 N   0  0  0  0  0  0  0  0  0  0  0  0
   43.2498   14.6682  -11.0778 N   0  0  0  0  0  0  0  0  0  0  0  0
   42.4905   15.8504  -10.7531 C   0  0  0  0  0  0  0  0  0  0  0  0
   41.9745   15.8631   -9.3523 C   0  0  0  0  0  0  0  0  0  0  0  0
   41.6901   14.4811   -8.9814 N   0  0  0  0  0  0  0  0  0  0  0  0
   42.9928   13.8557   -8.7621 C   0  0  0  0  0  0  0  0  0  0  0  0
   43.6599   13.7041  -10.0868 C   0  0  0  0  0  0  0  0  0  0  0  0
   41.1181   14.3904   -8.1375 H   0  0  0  0  0  0  0  0  0  0  0  0
 11 12  1  0  0  0
 12 13  2  0  0  0
 13 14  1  0  0  0
 14 15  2  0  0  0
 15 16  1  0  0  0
 15  1  1  0  0  0
  1  2  2  0  0  0
  2  3  1  0  0  0
  3  4  2  0  0  0
  4  5  1  0  0  0
  5  6  2  0  0  0
  6  7  1  0  0  0
  7  8  1  0  0  0
  8  9  2  0  0  0
  5 19  1  0  0  0
 19 20  2  0  0  0
 20 21  1  0  0  0
 21 22  2  0  0  0
 22 23  1  0  0  0
 23 24  2  0  0  0
 23 25  1  0  0  0
 25 26  1  0  0  0
 26 27  1  0  0  0
 27 28  1  0  0  0
 28 29  1  0  0  0
 29 30  1  0  0  0
 16 12  1  0  0  0
  9  1  1  0  0  0
 24 19  1  0  0  0
 30 25  1  0  0  0
  8  4  1  0  0  0
 11 17  1  0  0  0
 11 18  1  0  0  0
  7 10  1  0  0  0
 28 31  1  0  0  0
M  END
> <minimizedAffinity>
-8.70927

> <CNNscore>
0.6176143885

> <CNNaffinity>
6.8367910385

> <CNN_VS>
4.2225003242

> <CNNaffinity_variance>
0.1188720241

$$$$
[H]c1nc(N([H])[H])sc1-c1c([H])c([H])c2c(-c3nc(N4C([H])([H])C([H])([H])N([H])C([H])([H])C4([H])[H])c([H])c([H])c3[H])nn([H])c2c1[H]


 31 35  0  0  0  0  0  0  0  0999 V2000
   38.2972   12.3262  -15.7420 C   0  0  0  0  0  0  0  0  0  0  0  0
   38.7175   12.9338  -14.5965 C   0  0  0  0  0  0  0  0  0  0  0  0
   40.0675   13.2263  -14.4271 C   0  0  0  0  0  0  0  0  0  0  0  0
   40.9918   12.9039  -15.4167 C   0  0  0  0  0  0  0  0  0  0  0  0
   42.3373   13.0571  -15.5399 C   0  0  0  0  0  0  0  0  0  0  0  0
   42.6709   12.5401  -16.7446 N   0  0  0  0  0  0  0  0  0  0  0  0
   41.6137   12.0828  -17.3603 N   0  0  0  0  0  0  0  0  0  0  0  0
   40.5247   12.2829  -16.5749 C   0  0  0  0  0  0  0  0  0  0  0  0
   39.1841   12.0022  -16.7226 C   0  0  0  0  0  0  0  0  0  0  0  0
   41.5352   11.6246  -18.3035 H   0  0  0  0  0  0  0  0  0  0  0  0
   33.2990   10.6674  -17.2494 N   0  0  0  0  0  0  0  0  0  0  0  0
   34.5055   11.2182  -16.6671 C   0  0  0  0  0  0  0  0  0  0  0  0
   34.6215   11.9755  -15.5862 N   0  0  0  0  0  0  0  0  0  0  0  0
   35.7896   12.3815  -15.2072 C   0  0  0  0  0  0  0  0  0  0  0  0
   36.8705   11.9983  -15.9605 C   0  0  0  0  0  0  0  0  0  0  0  0
   36.1297   11.0667  -17.1819 S   0  0  0  0  0  0  0  0  0  0  0  0
   32.4840   10.4642  -16.6614 H   0  0  0  0  0  0  0  0  0  0  0  0
   33.2869   10.4860  -18.2792 H   0  0  0  0  0  0  0  0  0  0  0  0
   43.2574   13.6526  -14.5858 C   0  0  0  0  0  0  0  0  0  0  0  0
   42.9814   13.5299  -13.2226 C   0  0  0  0  0  0  0  0  0  0  0  0
   43.8051   14.0668  -12.2634 C   0  0  0  0  0  0  0  0  0  0  0  0
   44.9307   14.7420  -12.6801 C   0  0  0  0  0  0  0  0  0  0  0  0
   45.2287   14.8783  -14.0411 C   0  0  0  0  0  0  0  0  0  0  0  0
   44.3687   14.3228  -14.8944 N   0  0  0  0  0  0  0  0  0  0  0  0
   46.3941   15.5779  -14.4501 N   0  0  0  0  0  0  0  0  0  0  0  0
   46.3129   17.0061  -14.6330 C   0  0  0  0  0  0  0  0  0  0  0  0
   47.6402   17.6591  -14.8342 C   0  0  0  0  0  0  0  0  0  0  0  0
   48.6175   16.9060  -14.0559 N   0  0  0  0  0  0  0  0  0  0  0  0
   48.8361   15.6634  -14.7937 C   0  0  0  0  0  0  0  0  0  0  0  0
   47.6075   14.8287  -14.6646 C   0  0  0  0  0  0  0  0  0  0  0  0
   49.5087   17.3936  -13.9308 H   0  0  0  0  0  0  0  0  0  0  0  0
 11 12  1  0  0  0
 12 13  2  0  0  0
 13 14  1  0  0  0
 14 15  2  0  0  0
 15 16  1  0  0  0
 15  1  1  0  0  0
  1  2  2  0  0  0
  2  3  1  0  0  0
  3  4  2  0  0  0
  4  5  1  0  0  0
  5  6  2  0  0  0
  6  7  1  0  0  0
  7  8  1  0  0  0
  8  9  2  0  0  0
  5 19  1  0  0  0
 19 20  2  0  0  0
 20 21  1  0  0  0
 21 22  2  0  0  0
 22 23  1  0  0  0
 23 24  2  0  0  0
 23 25  1  0  0  0
 25 26  1  0  0  0
 26 27  1  0  0  0
 27 28  1  0  0  0
 28 29  1  0  0  0
 29 30  1  0  0  0
 16 12  1  0  0  0
  9  1  1  0  0  0
 24 19  1  0  0  0
 30 25  1  0  0  0
  8  4  1  0  0  0
 11 17  1  0  0  0
 11 18  1  0  0  0
  7 10  1  0  0  0
 28 31  1  0  0  0
M  END
> <minimizedAffinity>
-8.50831

> <CNNscore>
0.5794013143

> <CNNaffinity>
6.7152709961

> <CNN_VS>
3.8908369541

> <CNNaffinity_variance>
0.1478295028

$$$$
[H]c1nc(N([H])[H])sc1-c1c([H])c([H])c2c(-c3nc(N4C([H])([H])C([H])([H])N([H])C([H])([H])C4([H])[H])c([H])c([H])c3[H])nn([H])c2c1[H]


 31 35  0  0  0  0  0  0  0  0999 V2000
   38.2402   12.2767  -15.7296 C   0  0  0  0  0  0  0  0  0  0  0  0
   38.6893   12.8280  -14.5667 C   0  0  0  0  0  0  0  0  0  0  0  0
   40.0442   13.1078  -14.4151 C   0  0  0  0  0  0  0  0  0  0  0  0
   40.9440   12.8298  -15.4401 C   0  0  0  0  0  0  0  0  0  0  0  0
   42.2869   12.9844  -15.5871 C   0  0  0  0  0  0  0  0  0  0  0  0
   42.5904   12.5242  -16.8224 N   0  0  0  0  0  0  0  0  0  0  0  0
   41.5173   12.0999  -17.4343 N   0  0  0  0  0  0  0  0  0  0  0  0
   40.4476   12.2659  -16.6152 C   0  0  0  0  0  0  0  0  0  0  0  0
   39.1028   11.9967  -16.7449 C   0  0  0  0  0  0  0  0  0  0  0  0
   41.4151   11.6871  -18.3961 H   0  0  0  0  0  0  0  0  0  0  0  0
   33.2043   10.6855  -17.1836 N   0  0  0  0  0  0  0  0  0  0  0  0
   34.4247   11.2157  -16.6113 C   0  0  0  0  0  0  0  0  0  0  0  0
   34.5649   11.9512  -15.5183 N   0  0  0  0  0  0  0  0  0  0  0  0
   35.7424   12.3409  -15.1515 C   0  0  0  0  0  0  0  0  0  0  0  0
   36.8075   11.9639  -15.9302 C   0  0  0  0  0  0  0  0  0  0  0  0
   36.0388   11.0616  -17.1563 S   0  0  0  0  0  0  0  0  0  0  0  0
   32.3977   10.4773  -16.5858 H   0  0  0  0  0  0  0  0  0  0  0  0
   33.1735   10.5240  -18.2163 H   0  0  0  0  0  0  0  0  0  0  0  0
   43.2313   13.5312  -14.6276 C   0  0  0  0  0  0  0  0  0  0  0  0
   42.7627   14.4207  -13.6587 C   0  0  0  0  0  0  0  0  0  0  0  0
   43.5964   14.9774  -12.7197 C   0  0  0  0  0  0  0  0  0  0  0  0
   44.9299   14.6348  -12.7527 C   0  0  0  0  0  0  0  0  0  0  0  0
   45.4234   13.7452  -13.7144 C   0  0  0  0  0  0  0  0  0  0  0  0
   44.5362   13.2586  -14.5819 N   0  0  0  0  0  0  0  0  0  0  0  0
   46.8013   13.4046  -13.7314 N   0  0  0  0  0  0  0  0  0  0  0  0
   47.3828   12.8224  -12.5471 C   0  0  0  0  0  0  0  0  0  0  0  0
   48.7639   12.2960  -12.7564 C   0  0  0  0  0  0  0  0  0  0  0  0
   48.8395   11.8076  -14.1289 N   0  0  0  0  0  0  0  0  0  0  0  0
   48.8973   13.0017  -14.9697 C   0  0  0  0  0  0  0  0  0  0  0  0
   47.5582   13.6564  -14.9328 C   0  0  0  0  0  0  0  0  0  0  0  0
   49.6556   11.2177  -14.3120 H   0  0  0  0  0  0  0  0  0  0  0  0
 11 12  1  0  0  0
 12 13  2  0  0  0
 13 14  1  0  0  0
 14 15  2  0  0  0
 15 16  1  0  0  0
 15  1  1  0  0  0
  1  2  2  0  0  0
  2  3  1  0  0  0
  3  4  2  0  0  0
  4  5  1  0  0  0
  5  6  2  0  0  0
  6  7  1  0  0  0
  7  8  1  0  0  0
  8  9  2  0  0  0
  5 19  1  0  0  0
 19 20  2  0  0  0
 20 21  1  0  0  0
 21 22  2  0  0  0
 22 23  1  0  0  0
 23 24  2  0  0  0
 23 25  1  0  0  0
 25 26  1  0  0  0
 26 27  1  0  0  0
 27 28  1  0  0  0
 28 29  1  0  0  0
 29 30  1  0  0  0
 16 12  1  0  0  0
  9  1  1  0  0  0
 24 19  1  0  0  0
 30 25  1  0  0  0
  8  4  1  0  0  0
 11 17  1  0  0  0
 11 18  1  0  0  0
  7 10  1  0  0  0
 28 31  1  0  0  0
M  END
> <minimizedAffinity>
-8.22150

> <CNNscore>
0.4729563594

> <CNNaffinity>
6.7185707092

> <CNN_VS>
3.1775908470

> <CNNaffinity_variance>
0.2128716707

$$$$
[H]c1nc(N([H])[H])sc1-c1c([H])c([H])c2c(-c3nc(N4C([H])([H])C([H])([H])N([H])C([H])([H])C4([H])[H])c([H])c([H])c3[H])nn([H])c2c1[H]


 31 35  0  0  0  0  0  0  0  0999 V2000
   38.7682   12.9959  -15.2793 C   0  0  0  0  0  0  0  0  0  0  0  0
   39.6061   13.5810  -14.3773 C   0  0  0  0  0  0  0  0  0  0  0  0
   40.9793   13.5684  -14.6035 C   0  0  0  0  0  0  0  0  0  0  0  0
   41.5041   12.9638  -15.7421 C   0  0  0  0  0  0  0  0  0  0  0  0
   42.7629   12.7936  -16.2274 C   0  0  0  0  0  0  0  0  0  0  0  0
   42.6341   12.1185  -17.3925 N   0  0  0  0  0  0  0  0  0  0  0  0
   41.3774   11.8681  -17.6452 N   0  0  0  0  0  0  0  0  0  0  0  0
   40.6160   12.3754  -16.6424 C   0  0  0  0  0  0  0  0  0  0  0  0
   39.2602   12.3989  -16.3995 C   0  0  0  0  0  0  0  0  0  0  0  0
   40.9470   11.3656  -18.4626 H   0  0  0  0  0  0  0  0  0  0  0  0
   33.4733   13.6986  -14.0647 N   0  0  0  0  0  0  0  0  0  0  0  0
   34.7983   13.3134  -14.5051 C   0  0  0  0  0  0  0  0  0  0  0  0
   35.1455   12.2661  -15.2385 N   0  0  0  0  0  0  0  0  0  0  0  0
   36.3887   12.0756  -15.5404 C   0  0  0  0  0  0  0  0  0  0  0  0
   37.3023   12.9877  -15.0754 C   0  0  0  0  0  0  0  0  0  0  0  0
   36.3034   14.0755  -14.2225 S   0  0  0  0  0  0  0  0  0  0  0  0
   32.6472   13.4400  -14.6144 H   0  0  0  0  0  0  0  0  0  0  0  0
   33.3879   14.2435  -13.1762 H   0  0  0  0  0  0  0  0  0  0  0  0
   44.0137   13.2369  -15.6353 C   0  0  0  0  0  0  0  0  0  0  0  0
   45.0956   12.3545  -15.6158 C   0  0  0  0  0  0  0  0  0  0  0  0
   46.3081   12.7037  -15.0731 C   0  0  0  0  0  0  0  0  0  0  0  0
   46.4390   13.9658  -14.5376 C   0  0  0  0  0  0  0  0  0  0  0  0
   45.3688   14.8681  -14.5453 C   0  0  0  0  0  0  0  0  0  0  0  0
   44.2337   14.4362  -15.0943 N   0  0  0  0  0  0  0  0  0  0  0  0
   45.5241   16.1646  -13.9885 N   0  0  0  0  0  0  0  0  0  0  0  0
   46.7886   16.8385  -14.1517 C   0  0  0  0  0  0  0  0  0  0  0  0
   46.7603   18.2713  -13.7336 C   0  0  0  0  0  0  0  0  0  0  0  0
   45.4248   18.7821  -14.0227 N   0  0  0  0  0  0  0  0  0  0  0  0
   44.5527   18.2065  -13.0008 C   0  0  0  0  0  0  0  0  0  0  0  0
   44.4100   16.7497  -13.2842 C   0  0  0  0  0  0  0  0  0  0  0  0
   45.3594   19.8032  -13.9958 H   0  0  0  0  0  0  0  0  0  0  0  0
 11 12  1  0  0  0
 12 13  2  0  0  0
 13 14  1  0  0  0
 14 15  2  0  0  0
 15 16  1  0  0  0
 15  1  1  0  0  0
  1  2  2  0  0  0
  2  3  1  0  0  0
  3  4  2  0  0  0
  4  5  1  0  0  0
  5  6  2  0  0  0
  6  7  1  0  0  0
  7  8  1  0  0  0
  8  9  2  0  0  0
  5 19  1  0  0  0
 19 20  2  0  0  0
 20 21  1  0  0  0
 21 22  2  0  0  0
 22 23  1  0  0  0
 23 24  2  0  0  0
 23 25  1  0  0  0
 25 26  1  0  0  0
 26 27  1  0  0  0
 27 28  1  0  0  0
 28 29  1  0  0  0
 29 30  1  0  0  0
 16 12  1  0  0  0
  9  1  1  0  0  0
 24 19  1  0  0  0
 30 25  1  0  0  0
  8  4  1  0  0  0
 11 17  1  0  0  0
 11 18  1  0  0  0
  7 10  1  0  0  0
 28 31  1  0  0  0
M  END
> <minimizedAffinity>
-8.73585

> <CNNscore>
0.4362334907

> <CNNaffinity>
6.6079301834

> <CNN_VS>
2.8826005459

> <CNNaffinity_variance>
0.1291220933

$$$$
[H]c1nc(N([H])[H])sc1-c1c([H])c([H])c2c(-c3nc(N4C([H])([H])C([H])([H])N([H])C([H])([H])C4([H])[H])c([H])c([H])c3[H])nn([H])c2c1[H]


 31 35  0  0  0  0  0  0  0  0999 V2000
   41.2458   12.7010  -15.8012 C   0  0  0  0  0  0  0  0  0  0  0  0
   40.6185   13.3596  -14.7860 C   0  0  0  0  0  0  0  0  0  0  0  0
   39.2340   13.2834  -14.6670 C   0  0  0  0  0  0  0  0  0  0  0  0
   38.4847   12.5409  -15.5752 C   0  0  0  0  0  0  0  0  0  0  0  0
   37.1573   12.2828  -15.7182 C   0  0  0  0  0  0  0  0  0  0  0  0
   37.0391   11.4855  -16.8047 N   0  0  0  0  0  0  0  0  0  0  0  0
   38.2101   11.2435  -17.3302 N   0  0  0  0  0  0  0  0  0  0  0  0
   39.1613   11.8807  -16.6007 C   0  0  0  0  0  0  0  0  0  0  0  0
   40.5324   11.9691  -16.7005 C   0  0  0  0  0  0  0  0  0  0  0  0
   38.4583   10.6652  -18.1727 H   0  0  0  0  0  0  0  0  0  0  0  0
   46.6704   13.4576  -15.7172 N   0  0  0  0  0  0  0  0  0  0  0  0
   45.2803   13.1100  -15.9288 C   0  0  0  0  0  0  0  0  0  0  0  0
   44.7683   12.3022  -16.8457 N   0  0  0  0  0  0  0  0  0  0  0  0
   43.4907   12.1052  -16.8886 C   0  0  0  0  0  0  0  0  0  0  0  0
   42.7160   12.7570  -15.9625 C   0  0  0  0  0  0  0  0  0  0  0  0
   43.8884   13.6231  -15.0771 S   0  0  0  0  0  0  0  0  0  0  0  0
   47.4154   12.8036  -15.9792 H   0  0  0  0  0  0  0  0  0  0  0  0
   46.8868   14.3885  -15.2927 H   0  0  0  0  0  0  0  0  0  0  0  0
   36.0631   12.7545  -14.8865 C   0  0  0  0  0  0  0  0  0  0  0  0
   34.7526   12.5021  -15.2970 C   0  0  0  0  0  0  0  0  0  0  0  0
   33.6687   12.9175  -14.5626 C   0  0  0  0  0  0  0  0  0  0  0  0
   33.9036   13.6015  -13.3906 C   0  0  0  0  0  0  0  0  0  0  0  0
   35.2085   13.8667  -12.9584 C   0  0  0  0  0  0  0  0  0  0  0  0
   36.1930   13.4229  -13.7395 N   0  0  0  0  0  0  0  0  0  0  0  0
   35.4295   14.5731  -11.7471 N   0  0  0  0  0  0  0  0  0  0  0  0
   34.4374   15.5253  -11.3129 C   0  0  0  0  0  0  0  0  0  0  0  0
   34.6605   16.0302   -9.9259 C   0  0  0  0  0  0  0  0  0  0  0  0
   35.2609   14.9439   -9.1594 N   0  0  0  0  0  0  0  0  0  0  0  0
   36.6456   14.8555   -9.6187 C   0  0  0  0  0  0  0  0  0  0  0  0
   36.6370   14.3067  -11.0049 C   0  0  0  0  0  0  0  0  0  0  0  0
   35.2428   15.0948   -8.1471 H   0  0  0  0  0  0  0  0  0  0  0  0
 11 12  1  0  0  0
 12 13  2  0  0  0
 13 14  1  0  0  0
 14 15  2  0  0  0
 15 16  1  0  0  0
 15  1  1  0  0  0
  1  2  2  0  0  0
  2  3  1  0  0  0
  3  4  2  0  0  0
  4  5  1  0  0  0
  5  6  2  0  0  0
  6  7  1  0  0  0
  7  8  1  0  0  0
  8  9  2  0  0  0
  5 19  1  0  0  0
 19 20  2  0  0  0
 20 21  1  0  0  0
 21 22  2  0  0  0
 22 23  1  0  0  0
 23 24  2  0  0  0
 23 25  1  0  0  0
 25 26  1  0  0  0
 26 27  1  0  0  0
 27 28  1  0  0  0
 28 29  1  0  0  0
 29 30  1  0  0  0
 16 12  1  0  0  0
  9  1  1  0  0  0
 24 19  1  0  0  0
 30 25  1  0  0  0
  8  4  1  0  0  0
 11 17  1  0  0  0
 11 18  1  0  0  0
  7 10  1  0  0  0
 28 31  1  0  0  0
M  END
> <minimizedAffinity>
-9.32163

> <CNNscore>
0.3396683335

> <CNNaffinity>
6.7192435265

> <CNN_VS>
2.2823143005

> <CNNaffinity_variance>
0.0948645920

$$$$
[H]c1nc(N([H])[H])sc1-c1c([H])c([H])c2c(-c3nc(N4C([H])([H])C([H])([H])N([H])C([H])([H])C4([H])[H])c([H])c([H])c3[H])nn([H])c2c1[H]


 31 35  0  0  0  0  0  0  0  0999 V2000
   39.1862   12.3728  -15.9001 C   0  0  0  0  0  0  0  0  0  0  0  0
   39.3197   13.0725  -14.7379 C   0  0  0  0  0  0  0  0  0  0  0  0
   40.5779   13.5161  -14.3414 C   0  0  0  0  0  0  0  0  0  0  0  0
   41.7004   13.2516  -15.1209 C   0  0  0  0  0  0  0  0  0  0  0  0
   43.0232   13.5433  -15.0033 C   0  0  0  0  0  0  0  0  0  0  0  0
   43.6286   13.0124  -16.0903 N   0  0  0  0  0  0  0  0  0  0  0  0
   42.7575   12.4169  -16.8599 N   0  0  0  0  0  0  0  0  0  0  0  0
   41.5248   12.5330  -16.3033 C   0  0  0  0  0  0  0  0  0  0  0  0
   40.2707   12.1030  -16.6776 C   0  0  0  0  0  0  0  0  0  0  0  0
   42.9048   11.9113  -17.7702 H   0  0  0  0  0  0  0  0  0  0  0  0
   33.9743   11.0410  -16.9337 N   0  0  0  0  0  0  0  0  0  0  0  0
   35.4053   11.2497  -16.8508 C   0  0  0  0  0  0  0  0  0  0  0  0
   36.3534   10.7417  -17.6243 N   0  0  0  0  0  0  0  0  0  0  0  0
   37.5926   11.0392  -17.4030 C   0  0  0  0  0  0  0  0  0  0  0  0
   37.8660   11.8835  -16.3566 C   0  0  0  0  0  0  0  0  0  0  0  0
   36.3043   12.2003  -15.7489 S   0  0  0  0  0  0  0  0  0  0  0  0
   33.5322   10.8226  -17.8328 H   0  0  0  0  0  0  0  0  0  0  0  0
   33.4128   11.1195  -16.0551 H   0  0  0  0  0  0  0  0  0  0  0  0
   43.6826   14.2765  -13.9359 C   0  0  0  0  0  0  0  0  0  0  0  0
   43.4359   13.9014  -12.6138 C   0  0  0  0  0  0  0  0  0  0  0  0
   44.0230   14.5480  -11.5537 C   0  0  0  0  0  0  0  0  0  0  0  0
   44.8766   15.5941  -11.8249 C   0  0  0  0  0  0  0  0  0  0  0  0
   45.1397   15.9887  -13.1420 C   0  0  0  0  0  0  0  0  0  0  0  0
   44.5223   15.2997  -14.1014 N   0  0  0  0  0  0  0  0  0  0  0  0
   46.0228   17.0695  -13.4005 N   0  0  0  0  0  0  0  0  0  0  0  0
   46.0432   18.1792  -12.4798 C   0  0  0  0  0  0  0  0  0  0  0  0
   47.1630   19.1363  -12.7222 C   0  0  0  0  0  0  0  0  0  0  0  0
   48.2937   18.3638  -13.2252 N   0  0  0  0  0  0  0  0  0  0  0  0
   47.9546   18.0214  -14.6050 C   0  0  0  0  0  0  0  0  0  0  0  0
   46.8604   17.0092  -14.5730 C   0  0  0  0  0  0  0  0  0  0  0  0
   49.1817   18.8723  -13.2048 H   0  0  0  0  0  0  0  0  0  0  0  0
 11 12  1  0  0  0
 12 13  2  0  0  0
 13 14  1  0  0  0
 14 15  2  0  0  0
 15 16  1  0  0  0
 15  1  1  0  0  0
  1  2  2  0  0  0
  2  3  1  0  0  0
  3  4  2  0  0  0
  4  5  1  0  0  0
  5  6  2  0  0  0
  6  7  1  0  0  0
  7  8  1  0  0  0
  8  9  2  0  0  0
  5 19  1  0  0  0
 19 20  2  0  0  0
 20 21  1  0  0  0
 21 22  2  0  0  0
 22 23  1  0  0  0
 23 24  2  0  0  0
 23 25  1  0  0  0
 25 26  1  0  0  0
 26 27  1  0  0  0
 27 28  1  0  0  0
 28 29  1  0  0  0
 29 30  1  0  0  0
 16 12  1  0  0  0
  9  1  1  0  0  0
 24 19  1  0  0  0
 30 25  1  0  0  0
  8  4  1  0  0  0
 11 17  1  0  0  0
 11 18  1  0  0  0
  7 10  1  0  0  0
 28 31  1  0  0  0
M  END
> <minimizedAffinity>
-8.28095

> <CNNscore>
0.3252715766

> <CNNaffinity>
6.3143239021

> <CNN_VS>
2.0538702011

> <CNNaffinity_variance>
0.1294416487

$$$$
[H]OC([H])([H])[C@@]1(O[H])C([H])([H])[C@@]2([H])O[C@]1(C([H])([H])[H])n1c3c([H])c([H])c([H])c([H])c3c3c4c(c5c6c([H])c([H])c([H])c([H])c6n2c5c31)C(=O)N([H])C4([H])[H]


 36 43  0  0  0  0  0  0  0  0999 V2000
   35.5672   12.6524  -12.3372 C   0  0  0  0  0  0  0  0  0  0  0  0
   36.5228   13.1987  -13.3420 C   0  0  0  0  0  0  0  0  0  0  0  0
   37.7590   12.9025  -12.7039 O   0  0  0  0  0  0  0  0  0  0  0  0
   38.6875   13.8221  -13.0535 C   0  0  0  0  0  0  0  0  0  0  0  0
   37.9911   15.0999  -13.2528 C   0  0  0  0  0  0  0  0  0  0  0  0
   36.5430   14.6966  -13.4214 C   0  0  0  0  0  0  0  0  0  0  0  0
   36.1367   15.1823  -14.6552 O   0  0  0  0  0  0  0  0  0  0  0  0
   39.4591   13.3645  -14.2165 N   0  0  0  0  0  0  0  0  0  0  0  0
   40.7487   13.5035  -14.4713 C   0  0  0  0  0  0  0  0  0  0  0  0
   41.7091   14.1196  -13.7115 C   0  0  0  0  0  0  0  0  0  0  0  0
   43.0139   14.1417  -14.1885 C   0  0  0  0  0  0  0  0  0  0  0  0
   43.3320   13.5613  -15.3895 C   0  0  0  0  0  0  0  0  0  0  0  0
   42.3532   12.9313  -16.1676 C   0  0  0  0  0  0  0  0  0  0  0  0
   41.0751   12.9155  -15.6896 C   0  0  0  0  0  0  0  0  0  0  0  0
   39.8970   12.3990  -16.1794 C   0  0  0  0  0  0  0  0  0  0  0  0
   39.5575   11.7186  -17.3346 C   0  0  0  0  0  0  0  0  0  0  0  0
   40.2900   11.2483  -18.4965 C   0  0  0  0  0  0  0  0  0  0  0  0
   41.4846   11.3368  -18.7847 O   0  0  0  0  0  0  0  0  0  0  0  0
   39.3518   10.5983  -19.3598 N   0  0  0  0  0  0  0  0  0  0  0  0
   38.0253   10.6399  -18.7940 C   0  0  0  0  0  0  0  0  0  0  0  0
   38.2352   11.3563  -17.5121 C   0  0  0  0  0  0  0  0  0  0  0  0
   37.2524   11.6525  -16.5740 C   0  0  0  0  0  0  0  0  0  0  0  0
   35.9114   11.4485  -16.4858 C   0  0  0  0  0  0  0  0  0  0  0  0
   35.0458   10.8366  -17.3628 C   0  0  0  0  0  0  0  0  0  0  0  0
   33.6868   10.7733  -17.0412 C   0  0  0  0  0  0  0  0  0  0  0  0
   33.2597   11.3304  -15.8492 C   0  0  0  0  0  0  0  0  0  0  0  0
   34.1506   11.9408  -14.9834 C   0  0  0  0  0  0  0  0  0  0  0  0
   35.4906   12.0130  -15.2790 C   0  0  0  0  0  0  0  0  0  0  0  0
   36.5521   12.5558  -14.6246 N   0  0  0  0  0  0  0  0  0  0  0  0
   37.6232   12.3183  -15.4546 C   0  0  0  0  0  0  0  0  0  0  0  0
   38.9307   12.6971  -15.2429 C   0  0  0  0  0  0  0  0  0  0  0  0
   35.7714   16.0903  -14.5244 H   0  0  0  0  0  0  0  0  0  0  0  0
   39.5591   10.1403  -20.2883 H   0  0  0  0  0  0  0  0  0  0  0  0
   35.7448   15.3705  -12.3573 C   0  0  0  0  0  0  0  0  0  0  0  0
   36.2284   16.6701  -12.2022 O   0  0  0  0  0  0  0  0  0  0  0  0
   36.7090   16.7988  -11.3453 H   0  0  0  0  0  0  0  0  0  0  0  0
  2  1  1  0  0  0
  2  3  1  0  0  0
  3  4  1  0  0  0
  4  5  1  0  0  0
  5  6  1  0  0  0
  6  7  1  0  0  0
  6 34  1  0  0  0
 34 35  1  0  0  0
  4  8  1  0  0  0
  8  9  1  0  0  0
  9 10  2  0  0  0
 10 11  1  0  0  0
 11 12  2  0  0  0
 12 13  1  0  0  0
 13 14  2  0  0  0
 14 15  1  0  0  0
 15 16  2  0  0  0
 16 17  1  0  0  0
 17 18  2  0  0  0
 17 19  1  0  0  0
 19 20  1  0  0  0
 20 21  1  0  0  0
 21 22  2  0  0  0
 22 23  1  0  0  0
 23 24  2  0  0  0
 24 25  1  0  0  0
 25 26  2  0  0  0
 26 27  1  0  0  0
 27 28  2  0  0  0
 28 29  1  0  0  0
 29 30  1  0  0  0
 30 31  2  0  0  0
  6  2  1  0  0  0
 31  8  1  0  0  0
 29  2  1  0  0  0
 14  9  1  0  0  0
 31 15  1  0  0  0
 21 16  1  0  0  0
 30 22  1  0  0  0
 28 23  1  0  0  0
  7 32  1  0  0  0
 35 36  1  0  0  0
 19 33  1  0  0  0
M  END
> <minimizedAffinity>
-13.52958

> <CNNscore>
0.9700492024

> <CNNaffinity>
7.5617651939

> <CNN_VS>
7.3352842331

> <CNNaffinity_variance>
0.0875248611

$$$$
[H]OC([H])([H])[C@@]1(O[H])C([H])([H])[C@@]2([H])O[C@]1(C([H])([H])[H])n1c3c([H])c([H])c([H])c([H])c3c3c4c(c5c6c([H])c([H])c([H])c([H])c6n2c5c31)C(=O)N([H])C4([H])[H]


 36 43  0  0  0  0  0  0  0  0999 V2000
   36.9422   16.8519  -11.5709 C   0  0  0  0  0  0  0  0  0  0  0  0
   36.9761   15.4391  -12.0442 C   0  0  0  0  0  0  0  0  0  0  0  0
   35.9112   15.4615  -12.9868 O   0  0  0  0  0  0  0  0  0  0  0  0
   35.3358   14.2392  -13.0578 C   0  0  0  0  0  0  0  0  0  0  0  0
   35.4259   13.6299  -11.7243 C   0  0  0  0  0  0  0  0  0  0  0  0
   36.5000   14.4393  -11.0321 C   0  0  0  0  0  0  0  0  0  0  0  0
   37.4856   13.5433  -10.6461 O   0  0  0  0  0  0  0  0  0  0  0  0
   35.9429   13.4413  -14.1311 N   0  0  0  0  0  0  0  0  0  0  0  0
   35.3686   12.6037  -14.9773 C   0  0  0  0  0  0  0  0  0  0  0  0
   34.0459   12.2561  -15.0715 C   0  0  0  0  0  0  0  0  0  0  0  0
   33.6715   11.3450  -16.0514 C   0  0  0  0  0  0  0  0  0  0  0  0
   34.6027   10.8076  -16.9027 C   0  0  0  0  0  0  0  0  0  0  0  0
   35.9543   11.1609  -16.8088 C   0  0  0  0  0  0  0  0  0  0  0  0
   36.3109   12.0564  -15.8428 C   0  0  0  0  0  0  0  0  0  0  0  0
   37.5164   12.6111  -15.4773 C   0  0  0  0  0  0  0  0  0  0  0  0
   38.8140   12.4662  -15.9332 C   0  0  0  0  0  0  0  0  0  0  0  0
   39.4466   11.6948  -16.9880 C   0  0  0  0  0  0  0  0  0  0  0  0
   38.9678   10.9113  -17.8096 O   0  0  0  0  0  0  0  0  0  0  0  0
   40.8467   11.9883  -16.9524 N   0  0  0  0  0  0  0  0  0  0  0  0
   41.1440   12.9253  -15.8963 C   0  0  0  0  0  0  0  0  0  0  0  0
   39.8105   13.1867  -15.3014 C   0  0  0  0  0  0  0  0  0  0  0  0
   39.5468   14.0409  -14.2364 C   0  0  0  0  0  0  0  0  0  0  0  0
   40.2980   14.8380  -13.4313 C   0  0  0  0  0  0  0  0  0  0  0  0
   41.6548   15.0658  -13.4221 C   0  0  0  0  0  0  0  0  0  0  0  0
   42.1909   15.9296  -12.4626 C   0  0  0  0  0  0  0  0  0  0  0  0
   41.3353   16.5258  -11.5536 C   0  0  0  0  0  0  0  0  0  0  0  0
   39.9735   16.2803  -11.5835 C   0  0  0  0  0  0  0  0  0  0  0  0
   39.4252   15.4359  -12.5187 C   0  0  0  0  0  0  0  0  0  0  0  0
   38.1513   15.0217  -12.7540 N   0  0  0  0  0  0  0  0  0  0  0  0
   38.2638   14.1583  -13.8190 C   0  0  0  0  0  0  0  0  0  0  0  0
   37.2441   13.4557  -14.4227 C   0  0  0  0  0  0  0  0  0  0  0  0
   37.2723   13.2226   -9.7369 H   0  0  0  0  0  0  0  0  0  0  0  0
   41.5913   11.5964  -17.5902 H   0  0  0  0  0  0  0  0  0  0  0  0
   35.9064   15.0514   -9.8087 C   0  0  0  0  0  0  0  0  0  0  0  0
   35.7403   14.0489   -8.8526 O   0  0  0  0  0  0  0  0  0  0  0  0
   34.7880   13.8224   -8.6986 H   0  0  0  0  0  0  0  0  0  0  0  0
  2  1  1  0  0  0
  2  3  1  0  0  0
  3  4  1  0  0  0
  4  5  1  0  0  0
  5  6  1  0  0  0
  6  7  1  0  0  0
  6 34  1  0  0  0
 34 35  1  0  0  0
  4  8  1  0  0  0
  8  9  1  0  0  0
  9 10  2  0  0  0
 10 11  1  0  0  0
 11 12  2  0  0  0
 12 13  1  0  0  0
 13 14  2  0  0  0
 14 15  1  0  0  0
 15 16  2  0  0  0
 16 17  1  0  0  0
 17 18  2  0  0  0
 17 19  1  0  0  0
 19 20  1  0  0  0
 20 21  1  0  0  0
 21 22  2  0  0  0
 22 23  1  0  0  0
 23 24  2  0  0  0
 24 25  1  0  0  0
 25 26  2  0  0  0
 26 27  1  0  0  0
 27 28  2  0  0  0
 28 29  1  0  0  0
 29 30  1  0  0  0
 30 31  2  0  0  0
  6  2  1  0  0  0
 31  8  1  0  0  0
 29  2  1  0  0  0
 14  9  1  0  0  0
 31 15  1  0  0  0
 21 16  1  0  0  0
 30 22  1  0  0  0
 28 23  1  0  0  0
  7 32  1  0  0  0
 35 36  1  0  0  0
 19 33  1  0  0  0
M  END
> <minimizedAffinity>
-11.27583

> <CNNscore>
0.5484931469

> <CNNaffinity>
6.7071733475

> <CNN_VS>
3.6788387299

> <CNNaffinity_variance>
0.0609079190

$$$$
[H]OC([H])([H])[C@@]1(O[H])C([H])([H])[C@@]2([H])O[C@]1(C([H])([H])[H])n1c3c([H])c([H])c([H])c([H])c3c3c4c(c5c6c([H])c([H])c([H])c([H])c6n2c5c31)C(=O)N([H])C4([H])[H]


 36 43  0  0  0  0  0  0  0  0999 V2000
   35.2944   12.0957  -13.1172 C   0  0  0  0  0  0  0  0  0  0  0  0
   36.3208   13.0974  -13.5225 C   0  0  0  0  0  0  0  0  0  0  0  0
   37.0648   13.2015  -12.3148 O   0  0  0  0  0  0  0  0  0  0  0  0
   37.5926   14.4424  -12.2067 C   0  0  0  0  0  0  0  0  0  0  0  0
   36.6552   15.3784  -12.8414 C   0  0  0  0  0  0  0  0  0  0  0  0
   35.7867   14.4878  -13.7020 C   0  0  0  0  0  0  0  0  0  0  0  0
   35.9064   14.9537  -15.0027 O   0  0  0  0  0  0  0  0  0  0  0  0
   38.9526   14.4781  -12.7600 N   0  0  0  0  0  0  0  0  0  0  0  0
   40.0173   15.1267  -12.3205 C   0  0  0  0  0  0  0  0  0  0  0  0
   40.1288   15.9452  -11.2265 C   0  0  0  0  0  0  0  0  0  0  0  0
   41.3633   16.5239  -10.9587 C   0  0  0  0  0  0  0  0  0  0  0  0
   42.4425   16.2817  -11.7694 C   0  0  0  0  0  0  0  0  0  0  0  0
   42.3316   15.4462  -12.8874 C   0  0  0  0  0  0  0  0  0  0  0  0
   41.1146   14.8831  -13.1409 C   0  0  0  0  0  0  0  0  0  0  0  0
   40.6602   14.0359  -14.1260 C   0  0  0  0  0  0  0  0  0  0  0  0
   41.2506   13.4481  -15.2299 C   0  0  0  0  0  0  0  0  0  0  0  0
   42.5851   13.4571  -15.8016 C   0  0  0  0  0  0  0  0  0  0  0  0
   43.6134   14.0286  -15.4355 O   0  0  0  0  0  0  0  0  0  0  0  0
   42.5562   12.6307  -16.9695 N   0  0  0  0  0  0  0  0  0  0  0  0
   41.2351   12.0895  -17.1780 C   0  0  0  0  0  0  0  0  0  0  0  0
   40.4671   12.6436  -16.0363 C   0  0  0  0  0  0  0  0  0  0  0  0
   39.1218   12.4125  -15.7706 C   0  0  0  0  0  0  0  0  0  0  0  0
   38.1275   11.7084  -16.3733 C   0  0  0  0  0  0  0  0  0  0  0  0
   38.1463   10.9460  -17.5184 C   0  0  0  0  0  0  0  0  0  0  0  0
   36.9648   10.3311  -17.9432 C   0  0  0  0  0  0  0  0  0  0  0  0
   35.8156   10.5123  -17.1948 C   0  0  0  0  0  0  0  0  0  0  0  0
   35.8225   11.2843  -16.0461 C   0  0  0  0  0  0  0  0  0  0  0  0
   36.9727   11.8966  -15.6096 C   0  0  0  0  0  0  0  0  0  0  0  0
   37.2439   12.7008  -14.5470 N   0  0  0  0  0  0  0  0  0  0  0  0
   38.5793   13.0037  -14.6797 C   0  0  0  0  0  0  0  0  0  0  0  0
   39.3278   13.8128  -13.8533 C   0  0  0  0  0  0  0  0  0  0  0  0
   35.2023   15.6290  -15.1547 H   0  0  0  0  0  0  0  0  0  0  0  0
   43.3646   12.4204  -17.6154 H   0  0  0  0  0  0  0  0  0  0  0  0
   34.3710   14.6542  -13.2643 C   0  0  0  0  0  0  0  0  0  0  0  0
   33.5627   14.7011  -14.4006 O   0  0  0  0  0  0  0  0  0  0  0  0
   33.1840   15.6024  -14.5627 H   0  0  0  0  0  0  0  0  0  0  0  0
  2  1  1  0  0  0
  2  3  1  0  0  0
  3  4  1  0  0  0
  4  5  1  0  0  0
  5  6  1  0  0  0
  6  7  1  0  0  0
  6 34  1  0  0  0
 34 35  1  0  0  0
  4  8  1  0  0  0
  8  9  1  0  0  0
  9 10  2  0  0  0
 10 11  1  0  0  0
 11 12  2  0  0  0
 12 13  1  0  0  0
 13 14  2  0  0  0
 14 15  1  0  0  0
 15 16  2  0  0  0
 16 17  1  0  0  0
 17 18  2  0  0  0
 17 19  1  0  0  0
 19 20  1  0  0  0
 20 21  1  0  0  0
 21 22  2  0  0  0
 22 23  1  0  0  0
 23 24  2  0  0  0
 24 25  1  0  0  0
 25 26  2  0  0  0
 26 27  1  0  0  0
 27 28  2  0  0  0
 28 29  1  0  0  0
 29 30  1  0  0  0
 30 31  2  0  0  0
  6  2  1  0  0  0
 31  8  1  0  0  0
 29  2  1  0  0  0
 14  9  1  0  0  0
 31 15  1  0  0  0
 21 16  1  0  0  0
 30 22  1  0  0  0
 28 23  1  0  0  0
  7 32  1  0  0  0
 35 36  1  0  0  0
 19 33  1  0  0  0
M  END
> <minimizedAffinity>
-12.18900

> <CNNscore>
0.4270305932

> <CNNaffinity>
6.7820701599

> <CNN_VS>
2.8961515427

> <CNNaffinity_variance>
0.0852743238

$$$$
[H]OC([H])([H])[C@@]1(O[H])C([H])([H])[C@@]2([H])O[C@]1(C([H])([H])[H])n1c3c([H])c([H])c([H])c([H])c3c3c4c(c5c6c([H])c([H])c([H])c([H])c6n2c5c31)C(=O)N([H])C4([H])[H]


 36 43  0  0  0  0  0  0  0  0999 V2000
   39.2991   14.4663  -11.0883 C   0  0  0  0  0  0  0  0  0  0  0  0
   38.8683   14.4014  -12.5136 C   0  0  0  0  0  0  0  0  0  0  0  0
   39.5132   13.2004  -12.9193 O   0  0  0  0  0  0  0  0  0  0  0  0
   39.8177   13.2655  -14.2358 C   0  0  0  0  0  0  0  0  0  0  0  0
   40.1133   14.6690  -14.5524 C   0  0  0  0  0  0  0  0  0  0  0  0
   39.5057   15.4329  -13.3969 C   0  0  0  0  0  0  0  0  0  0  0  0
   38.5920   16.3208  -13.9447 O   0  0  0  0  0  0  0  0  0  0  0  0
   38.7451   12.6742  -15.0465 N   0  0  0  0  0  0  0  0  0  0  0  0
   38.8335   11.9324  -16.1370 C   0  0  0  0  0  0  0  0  0  0  0  0
   39.9591   11.5216  -16.8030 C   0  0  0  0  0  0  0  0  0  0  0  0
   39.8038   10.7382  -17.9400 C   0  0  0  0  0  0  0  0  0  0  0  0
   38.5553   10.3853  -18.3840 C   0  0  0  0  0  0  0  0  0  0  0  0
   37.4039   10.8034  -17.7058 C   0  0  0  0  0  0  0  0  0  0  0  0
   37.5680   11.5724  -16.5904 C   0  0  0  0  0  0  0  0  0  0  0  0
   36.6811   12.1427  -15.7057 C   0  0  0  0  0  0  0  0  0  0  0  0
   35.3013   12.1667  -15.6157 C   0  0  0  0  0  0  0  0  0  0  0  0
   34.2162   11.5935  -16.3915 C   0  0  0  0  0  0  0  0  0  0  0  0
   34.2343   10.8903  -17.4030 O   0  0  0  0  0  0  0  0  0  0  0  0
   32.9896   11.9886  -15.7692 N   0  0  0  0  0  0  0  0  0  0  0  0
   33.2473   12.8111  -14.6122 C   0  0  0  0  0  0  0  0  0  0  0  0
   34.7289   12.8735  -14.5745 C   0  0  0  0  0  0  0  0  0  0  0  0
   35.4920   13.5502  -13.6293 C   0  0  0  0  0  0  0  0  0  0  0  0
   35.2196   14.3198  -12.5425 C   0  0  0  0  0  0  0  0  0  0  0  0
   34.0127   14.6938  -11.9980 C   0  0  0  0  0  0  0  0  0  0  0  0
   34.0043   15.5209  -10.8710 C   0  0  0  0  0  0  0  0  0  0  0  0
   35.2136   15.9353  -10.3423 C   0  0  0  0  0  0  0  0  0  0  0  0
   36.4148   15.5453  -10.9085 C   0  0  0  0  0  0  0  0  0  0  0  0
   36.4464   14.7317  -12.0155 C   0  0  0  0  0  0  0  0  0  0  0  0
   37.4657   14.2238  -12.7589 N   0  0  0  0  0  0  0  0  0  0  0  0
   36.8401   13.5024  -13.7492 C   0  0  0  0  0  0  0  0  0  0  0  0
   37.4468   12.8095  -14.7737 C   0  0  0  0  0  0  0  0  0  0  0  0
   39.0616   17.1680  -14.1361 H   0  0  0  0  0  0  0  0  0  0  0  0
   32.0128   11.7361  -16.0804 H   0  0  0  0  0  0  0  0  0  0  0  0
   40.5894   16.2129  -12.7329 C   0  0  0  0  0  0  0  0  0  0  0  0
   40.0028   17.0917  -11.8216 O   0  0  0  0  0  0  0  0  0  0  0  0
   40.0655   18.0378  -12.1092 H   0  0  0  0  0  0  0  0  0  0  0  0
  2  1  1  0  0  0
  2  3  1  0  0  0
  3  4  1  0  0  0
  4  5  1  0  0  0
  5  6  1  0  0  0
  6  7  1  0  0  0
  6 34  1  0  0  0
 34 35  1  0  0  0
  4  8  1  0  0  0
  8  9  1  0  0  0
  9 10  2  0  0  0
 10 11  1  0  0  0
 11 12  2  0  0  0
 12 13  1  0  0  0
 13 14  2  0  0  0
 14 15  1  0  0  0
 15 16  2  0  0  0
 16 17  1  0  0  0
 17 18  2  0  0  0
 17 19  1  0  0  0
 19 20  1  0  0  0
 20 21  1  0  0  0
 21 22  2  0  0  0
 22 23  1  0  0  0
 23 24  2  0  0  0
 24 25  1  0  0  0
 25 26  2  0  0  0
 26 27  1  0  0  0
 27 28  2  0  0  0
 28 29  1  0  0  0
 29 30  1  0  0  0
 30 31  2  0  0  0
  6  2  1  0  0  0
 31  8  1  0  0  0
 29  2  1  0  0  0
 14  9  1  0  0  0
 31 15  1  0  0  0
 21 16  1  0  0  0
 30 22  1  0  0  0
 28 23  1  0  0  0
  7 32  1  0  0  0
 35 36  1  0  0  0
 19 33  1  0  0  0
M  END
> <minimizedAffinity>
-4.07083

> <CNNscore>
0.4159988463

> <CNNaffinity>
6.5018639565

> <CNN_VS>
2.7047679424

> <CNNaffinity_variance>
0.2410023957

$$$$
[H]OC([H])([H])[C@@]1(O[H])C([H])([H])[C@@]2([H])O[C@]1(C([H])([H])[H])n1c3c([H])c([H])c([H])c([H])c3c3c4c(c5c6c([H])c([H])c([H])c([H])c6n2c5c31)C(=O)N([H])C4([H])[H]


 36 43  0  0  0  0  0  0  0  0999 V2000
   41.2229   10.3093  -17.2239 C   0  0  0  0  0  0  0  0  0  0  0  0
   40.2468   11.4149  -17.0090 C   0  0  0  0  0  0  0  0  0  0  0  0
   39.1370   10.6799  -16.5079 O   0  0  0  0  0  0  0  0  0  0  0  0
   37.9844   11.3026  -16.8452 C   0  0  0  0  0  0  0  0  0  0  0  0
   38.1978   11.9541  -18.1444 C   0  0  0  0  0  0  0  0  0  0  0  0
   39.7037   12.0111  -18.2739 C   0  0  0  0  0  0  0  0  0  0  0  0
   40.0381   13.3475  -18.4336 O   0  0  0  0  0  0  0  0  0  0  0  0
   37.5529   12.2113  -15.7751 N   0  0  0  0  0  0  0  0  0  0  0  0
   36.3326   12.4630  -15.3336 C   0  0  0  0  0  0  0  0  0  0  0  0
   35.1417   11.9398  -15.7662 C   0  0  0  0  0  0  0  0  0  0  0  0
   33.9722   12.3585  -15.1437 C   0  0  0  0  0  0  0  0  0  0  0  0
   34.0096   13.2725  -14.1220 C   0  0  0  0  0  0  0  0  0  0  0  0
   35.2244   13.8086  -13.6781 C   0  0  0  0  0  0  0  0  0  0  0  0
   36.3668   13.3903  -14.2965 C   0  0  0  0  0  0  0  0  0  0  0  0
   37.6960   13.7014  -14.1210 C   0  0  0  0  0  0  0  0  0  0  0  0
   38.3748   14.5556  -13.2711 C   0  0  0  0  0  0  0  0  0  0  0  0
   37.9840   15.4600  -12.2047 C   0  0  0  0  0  0  0  0  0  0  0  0
   36.8733   15.7280  -11.7435 O   0  0  0  0  0  0  0  0  0  0  0  0
   39.1772   16.0678  -11.7000 N   0  0  0  0  0  0  0  0  0  0  0  0
   40.3348   15.5887  -12.4154 C   0  0  0  0  0  0  0  0  0  0  0  0
   39.7503   14.6319  -13.3867 C   0  0  0  0  0  0  0  0  0  0  0  0
   40.4590   13.8834  -14.3200 C   0  0  0  0  0  0  0  0  0  0  0  0
   41.7676   13.7663  -14.6685 C   0  0  0  0  0  0  0  0  0  0  0  0
   42.8814   14.3984  -14.1654 C   0  0  0  0  0  0  0  0  0  0  0  0
   44.1322   14.1123  -14.7204 C   0  0  0  0  0  0  0  0  0  0  0  0
   44.2053   13.2017  -15.7592 C   0  0  0  0  0  0  0  0  0  0  0  0
   43.0699   12.5790  -16.2479 C   0  0  0  0  0  0  0  0  0  0  0  0
   41.8307   12.8443  -15.7163 C   0  0  0  0  0  0  0  0  0  0  0  0
   40.5832   12.3913  -16.0127 N   0  0  0  0  0  0  0  0  0  0  0  0
   39.7602   13.0567  -15.1338 C   0  0  0  0  0  0  0  0  0  0  0  0
   38.3889   12.9546  -15.0492 C   0  0  0  0  0  0  0  0  0  0  0  0
   40.0407   13.5516  -19.3997 H   0  0  0  0  0  0  0  0  0  0  0  0
   39.2452   16.7722  -10.9163 H   0  0  0  0  0  0  0  0  0  0  0  0
   40.0935   11.2712  -19.5085 C   0  0  0  0  0  0  0  0  0  0  0  0
   39.2790   11.7041  -20.5554 O   0  0  0  0  0  0  0  0  0  0  0  0
   38.6298   11.0135  -20.8446 H   0  0  0  0  0  0  0  0  0  0  0  0
  2  1  1  0  0  0
  2  3  1  0  0  0
  3  4  1  0  0  0
  4  5  1  0  0  0
  5  6  1  0  0  0
  6  7  1  0  0  0
  6 34  1  0  0  0
 34 35  1  0  0  0
  4  8  1  0  0  0
  8  9  1  0  0  0
  9 10  2  0  0  0
 10 11  1  0  0  0
 11 12  2  0  0  0
 12 13  1  0  0  0
 13 14  2  0  0  0
 14 15  1  0  0  0
 15 16  2  0  0  0
 16 17  1  0  0  0
 17 18  2  0  0  0
 17 19  1  0  0  0
 19 20  1  0  0  0
 20 21  1  0  0  0
 21 22  2  0  0  0
 22 23  1  0  0  0
 23 24  2  0  0  0
 24 25  1  0  0  0
 25 26  2  0  0  0
 26 27  1  0  0  0
 27 28  2  0  0  0
 28 29  1  0  0  0
 29 30  1  0  0  0
 30 31  2  0  0  0
  6  2  1  0  0  0
 31  8  1  0  0  0
 29  2  1  0  0  0
 14  9  1  0  0  0
 31 15  1  0  0  0
 21 16  1  0  0  0
 30 22  1  0  0  0
 28 23  1  0  0  0
  7 32  1  0  0  0
 35 36  1  0  0  0
 19 33  1  0  0  0
M  END
> <minimizedAffinity>
-7.74014

> <CNNscore>
0.2284593731

> <CNNaffinity>
6.4101853371

> <CNN_VS>
1.4644669294

> <CNNaffinity_variance>
0.0629564151

$$$$
[H]OC([H])([H])[C@@]1(O[H])C([H])([H])[C@@]2([H])O[C@]1(C([H])([H])[H])n1c3c([H])c([H])c([H])c([H])c3c3c4c(c5c6c([H])c([H])c([H])c([H])c6n2c5c31)C(=O)N([H])C4([H])[H]


 36 43  0  0  0  0  0  0  0  0999 V2000
   34.6846   11.4798  -13.9859 C   0  0  0  0  0  0  0  0  0  0  0  0
   35.4734   12.7400  -13.8813 C   0  0  0  0  0  0  0  0  0  0  0  0
   35.6341   12.8226  -12.4705 O   0  0  0  0  0  0  0  0  0  0  0  0
   35.7200   14.1191  -12.0938 C   0  0  0  0  0  0  0  0  0  0  0  0
   34.8847   14.9030  -13.0132 C   0  0  0  0  0  0  0  0  0  0  0  0
   34.6940   13.9821  -14.1980 C   0  0  0  0  0  0  0  0  0  0  0  0
   35.1755   14.6590  -15.3085 O   0  0  0  0  0  0  0  0  0  0  0  0
   37.1228   14.5499  -12.0326 N   0  0  0  0  0  0  0  0  0  0  0  0
   37.7148   15.3484  -11.1612 C   0  0  0  0  0  0  0  0  0  0  0  0
   37.1678   15.9907  -10.0808 C   0  0  0  0  0  0  0  0  0  0  0  0
   37.9949   16.7875   -9.2986 C   0  0  0  0  0  0  0  0  0  0  0  0
   39.3252   16.9271   -9.6010 C   0  0  0  0  0  0  0  0  0  0  0  0
   39.8866   16.2723  -10.7038 C   0  0  0  0  0  0  0  0  0  0  0  0
   39.0652   15.4923  -11.4650 C   0  0  0  0  0  0  0  0  0  0  0  0
   39.2758   14.7271  -12.5896 C   0  0  0  0  0  0  0  0  0  0  0  0
   40.3826   14.4684  -13.3775 C   0  0  0  0  0  0  0  0  0  0  0  0
   41.7771   14.8707  -13.3449 C   0  0  0  0  0  0  0  0  0  0  0  0
   42.3865   15.5981  -12.5590 O   0  0  0  0  0  0  0  0  0  0  0  0
   42.4278   14.2511  -14.4587 N   0  0  0  0  0  0  0  0  0  0  0  0
   41.4912   13.4615  -15.2209 C   0  0  0  0  0  0  0  0  0  0  0  0
   40.2225   13.6413  -14.4737 C   0  0  0  0  0  0  0  0  0  0  0  0
   38.9971   13.0706  -14.7997 C   0  0  0  0  0  0  0  0  0  0  0  0
   38.5451   12.2602  -15.7931 C   0  0  0  0  0  0  0  0  0  0  0  0
   39.2115   11.7095  -16.8634 C   0  0  0  0  0  0  0  0  0  0  0  0
   38.5017   10.9145  -17.7681 C   0  0  0  0  0  0  0  0  0  0  0  0
   37.1504   10.7099  -17.5543 C   0  0  0  0  0  0  0  0  0  0  0  0
   36.5026   11.2752  -16.4696 C   0  0  0  0  0  0  0  0  0  0  0  0
   37.1810   12.0587  -15.5674 C   0  0  0  0  0  0  0  0  0  0  0  0
   36.7908   12.7287  -14.4501 N   0  0  0  0  0  0  0  0  0  0  0  0
   37.9366   13.3456  -14.0037 C   0  0  0  0  0  0  0  0  0  0  0  0
   38.0568   14.1660  -12.9036 C   0  0  0  0  0  0  0  0  0  0  0  0
   34.4301   15.1709  -15.7051 H   0  0  0  0  0  0  0  0  0  0  0  0
   43.4470   14.3339  -14.7217 H   0  0  0  0  0  0  0  0  0  0  0  0
   33.2319   13.7506  -14.3775 C   0  0  0  0  0  0  0  0  0  0  0  0
   32.5972   13.9849  -13.1573 O   0  0  0  0  0  0  0  0  0  0  0  0
   32.2566   13.1539  -12.7385 H   0  0  0  0  0  0  0  0  0  0  0  0
  2  1  1  0  0  0
  2  3  1  0  0  0
  3  4  1  0  0  0
  4  5  1  0  0  0
  5  6  1  0  0  0
  6  7  1  0  0  0
  6 34  1  0  0  0
 34 35  1  0  0  0
  4  8  1  0  0  0
  8  9  1  0  0  0
  9 10  2  0  0  0
 10 11  1  0  0  0
 11 12  2  0  0  0
 12 13  1  0  0  0
 13 14  2  0  0  0
 14 15  1  0  0  0
 15 16  2  0  0  0
 16 17  1  0  0  0
 17 18  2  0  0  0
 17 19  1  0  0  0
 19 20  1  0  0  0
 20 21  1  0  0  0
 21 22  2  0  0  0
 22 23  1  0  0  0
 23 24  2  0  0  0
 24 25  1  0  0  0
 25 26  2  0  0  0
 26 27  1  0  0  0
 27 28  2  0  0  0
 28 29  1  0  0  0
 29 30  1  0  0  0
 30 31  2  0  0  0
  6  2  1  0  0  0
 31  8  1  0  0  0
 29  2  1  0  0  0
 14  9  1  0  0  0
 31 15  1  0  0  0
 21 16  1  0  0  0
 30 22  1  0  0  0
 28 23  1  0  0  0
  7 32  1  0  0  0
 35 36  1  0  0  0
 19 33  1  0  0  0
M  END
> <minimizedAffinity>
-10.87837

> <CNNscore>
0.2167924047

> <CNNaffinity>
6.2299375534

> <CNN_VS>
1.3506031036

> <CNNaffinity_variance>
0.2321807891

$$$$
[H]OC([H])([H])[C@@]1(O[H])C([H])([H])[C@@]2([H])O[C@]1(C([H])([H])[H])n1c3c([H])c([H])c([H])c([H])c3c3c4c(c5c6c([H])c([H])c([H])c([H])c6n2c5c31)C(=O)N([H])C4([H])[H]


 36 43  0  0  0  0  0  0  0  0999 V2000
   43.4987   16.9934  -12.8875 C   0  0  0  0  0  0  0  0  0  0  0  0
   44.4553   16.4724  -11.8702 C   0  0  0  0  0  0  0  0  0  0  0  0
   43.6615   16.5832  -10.6951 O   0  0  0  0  0  0  0  0  0  0  0  0
   44.4575   16.7974   -9.6225 C   0  0  0  0  0  0  0  0  0  0  0  0
   45.6130   17.5811  -10.0788 C   0  0  0  0  0  0  0  0  0  0  0  0
   45.6053   17.3908  -11.5794 C   0  0  0  0  0  0  0  0  0  0  0  0
   46.8356   16.8469  -11.9169 O   0  0  0  0  0  0  0  0  0  0  0  0
   44.8052   15.5272   -8.9722 N   0  0  0  0  0  0  0  0  0  0  0  0
   44.9211   15.2515   -7.6846 C   0  0  0  0  0  0  0  0  0  0  0  0
   44.7491   16.0877   -6.6121 C   0  0  0  0  0  0  0  0  0  0  0  0
   44.9258   15.5682   -5.3355 C   0  0  0  0  0  0  0  0  0  0  0  0
   45.2638   14.2515   -5.1543 C   0  0  0  0  0  0  0  0  0  0  0  0
   45.4401   13.3952   -6.2479 C   0  0  0  0  0  0  0  0  0  0  0  0
   45.2641   13.9159   -7.4970 C   0  0  0  0  0  0  0  0  0  0  0  0
   45.3552   13.3756   -8.7596 C   0  0  0  0  0  0  0  0  0  0  0  0
   45.6690   12.1180   -9.2421 C   0  0  0  0  0  0  0  0  0  0  0  0
   46.0114   10.8456   -8.6325 C   0  0  0  0  0  0  0  0  0  0  0  0
   46.1241   10.5252   -7.4482 O   0  0  0  0  0  0  0  0  0  0  0  0
   46.2251    9.9072   -9.6916 N   0  0  0  0  0  0  0  0  0  0  0  0
   46.0383   10.5375  -10.9760 C   0  0  0  0  0  0  0  0  0  0  0  0
   45.6820   11.9306  -10.6117 C   0  0  0  0  0  0  0  0  0  0  0  0
   45.3918   12.9571  -11.5038 C   0  0  0  0  0  0  0  0  0  0  0  0
   45.3457   13.0734  -12.8573 C   0  0  0  0  0  0  0  0  0  0  0  0
   45.5877   12.1398  -13.8384 C   0  0  0  0  0  0  0  0  0  0  0  0
   45.4912   12.5242  -15.1791 C   0  0  0  0  0  0  0  0  0  0  0  0
   45.1553   13.8338  -15.4719 C   0  0  0  0  0  0  0  0  0  0  0  0
   44.9167   14.7546  -14.4664 C   0  0  0  0  0  0  0  0  0  0  0  0
   45.0046   14.3981  -13.1423 C   0  0  0  0  0  0  0  0  0  0  0  0
   44.8369   15.0940  -11.9860 N   0  0  0  0  0  0  0  0  0  0  0  0
   45.0874   14.1742  -10.9941 C   0  0  0  0  0  0  0  0  0  0  0  0
   45.0654   14.3998   -9.6352 C   0  0  0  0  0  0  0  0  0  0  0  0
   47.4589   17.5885  -12.1080 H   0  0  0  0  0  0  0  0  0  0  0  0
   46.4842    8.8886   -9.5911 H   0  0  0  0  0  0  0  0  0  0  0  0
   45.4856   18.7327  -12.2186 C   0  0  0  0  0  0  0  0  0  0  0  0
   46.7319   19.3577  -12.1642 O   0  0  0  0  0  0  0  0  0  0  0  0
   46.7496   20.1194  -11.5307 H   0  0  0  0  0  0  0  0  0  0  0  0
  2  1  1  0  0  0
  2  3  1  0  0  0
  3  4  1  0  0  0
  4  5  1  0  0  0
  5  6  1  0  0  0
  6  7  1  0  0  0
  6 34  1  0  0  0
 34 35  1  0  0  0
  4  8  1  0  0  0
  8  9  1  0  0  0
  9 10  2  0  0  0
 10 11  1  0  0  0
 11 12  2  0  0  0
 12 13  1  0  0  0
 13 14  2  0  0  0
 14 15  1  0  0  0
 15 16  2  0  0  0
 16 17  1  0  0  0
 17 18  2  0  0  0
 17 19  1  0  0  0
 19 20  1  0  0  0
 20 21  1  0  0  0
 21 22  2  0  0  0
 22 23  1  0  0  0
 23 24  2  0  0  0
 24 25  1  0  0  0
 25 26  2  0  0  0
 26 27  1  0  0  0
 27 28  2  0  0  0
 28 29  1  0  0  0
 29 30  1  0  0  0
 30 31  2  0  0  0
  6  2  1  0  0  0
 31  8  1  0  0  0
 29  2  1  0  0  0
 14  9  1  0  0  0
 31 15  1  0  0  0
 21 16  1  0  0  0
 30 22  1  0  0  0
 28 23  1  0  0  0
  7 32  1  0  0  0
 35 36  1  0  0  0
 19 33  1  0  0  0
M  END
> <minimizedAffinity>
-5.76255

> <CNNscore>
0.1786021143

> <CNNaffinity>
4.8461127281

> <CNN_VS>
0.8655259609

> <CNNaffinity_variance>
0.2549131215

$$$$
[H]OC([H])([H])[C@@]1(O[H])C([H])([H])[C@@]2([H])O[C@]1(C([H])([H])[H])n1c3c([H])c([H])c([H])c([H])c3c3c4c(c5c6c([H])c([H])c([H])c([H])c6n2c5c31)C(=O)N([H])C4([H])[H]


 36 43  0  0  0  0  0  0  0  0999 V2000
   45.5979   14.1559  -11.2664 C   0  0  0  0  0  0  0  0  0  0  0  0
   44.9063   14.3459   -9.9600 C   0  0  0  0  0  0  0  0  0  0  0  0
   43.5499   14.2267  -10.3710 O   0  0  0  0  0  0  0  0  0  0  0  0
   42.7593   14.9723   -9.5654 C   0  0  0  0  0  0  0  0  0  0  0  0
   43.5366   16.1460   -9.1464 C   0  0  0  0  0  0  0  0  0  0  0  0
   44.9682   15.7475   -9.4288 C   0  0  0  0  0  0  0  0  0  0  0  0
   45.6520   15.8446   -8.2262 O   0  0  0  0  0  0  0  0  0  0  0  0
   42.2382   14.1628   -8.4561 N   0  0  0  0  0  0  0  0  0  0  0  0
   41.0412   14.1848   -7.8955 C   0  0  0  0  0  0  0  0  0  0  0  0
   39.9668   14.9783   -8.2038 C   0  0  0  0  0  0  0  0  0  0  0  0
   38.7980   14.8210   -7.4691 C   0  0  0  0  0  0  0  0  0  0  0  0
   38.7223   13.8945   -6.4609 C   0  0  0  0  0  0  0  0  0  0  0  0
   39.8180   13.0826   -6.1438 C   0  0  0  0  0  0  0  0  0  0  0  0
   40.9608   13.2456   -6.8717 C   0  0  0  0  0  0  0  0  0  0  0  0
   42.1936   12.6347   -6.8313 C   0  0  0  0  0  0  0  0  0  0  0  0
   42.7450   11.6437   -6.0398 C   0  0  0  0  0  0  0  0  0  0  0  0
   42.2613   10.8235   -4.9438 C   0  0  0  0  0  0  0  0  0  0  0  0
   41.1621   10.7897   -4.3884 O   0  0  0  0  0  0  0  0  0  0  0  0
   43.3350    9.9656   -4.5448 N   0  0  0  0  0  0  0  0  0  0  0  0
   44.5084   10.2112   -5.3474 C   0  0  0  0  0  0  0  0  0  0  0  0
   44.0576   11.2783   -6.2740 C   0  0  0  0  0  0  0  0  0  0  0  0
   44.8263   11.8710   -7.2697 C   0  0  0  0  0  0  0  0  0  0  0  0
   46.1065   11.7377   -7.7067 C   0  0  0  0  0  0  0  0  0  0  0  0
   47.1140   10.9100   -7.2676 C   0  0  0  0  0  0  0  0  0  0  0  0
   48.3675   10.9823   -7.8824 C   0  0  0  0  0  0  0  0  0  0  0  0
   48.5505   11.8866   -8.9131 C   0  0  0  0  0  0  0  0  0  0  0  0
   47.5208   12.7087   -9.3368 C   0  0  0  0  0  0  0  0  0  0  0  0
   46.2806   12.6534   -8.7476 C   0  0  0  0  0  0  0  0  0  0  0  0
   45.1272   13.3425   -8.9582 N   0  0  0  0  0  0  0  0  0  0  0  0
   44.2515   12.8364   -8.0257 C   0  0  0  0  0  0  0  0  0  0  0  0
   42.9466   13.2282   -7.8214 C   0  0  0  0  0  0  0  0  0  0  0  0
   46.0191   16.7583   -8.1528 H   0  0  0  0  0  0  0  0  0  0  0  0
   43.3136    9.2415   -3.7767 H   0  0  0  0  0  0  0  0  0  0  0  0
   45.5459   16.7335  -10.3868 C   0  0  0  0  0  0  0  0  0  0  0  0
   45.2978   18.0169   -9.8989 O   0  0  0  0  0  0  0  0  0  0  0  0
   44.6281   18.5079  -10.4395 H   0  0  0  0  0  0  0  0  0  0  0  0
  2  1  1  0  0  0
  2  3  1  0  0  0
  3  4  1  0  0  0
  4  5  1  0  0  0
  5  6  1  0  0  0
  6  7  1  0  0  0
  6 34  1  0  0  0
 34 35  1  0  0  0
  4  8  1  0  0  0
  8  9  1  0  0  0
  9 10  2  0  0  0
 10 11  1  0  0  0
 11 12  2  0  0  0
 12 13  1  0  0  0
 13 14  2  0  0  0
 14 15  1  0  0  0
 15 16  2  0  0  0
 16 17  1  0  0  0
 17 18  2  0  0  0
 17 19  1  0  0  0
 19 20  1  0  0  0
 20 21  1  0  0  0
 21 22  2  0  0  0
 22 23  1  0  0  0
 23 24  2  0  0  0
 24 25  1  0  0  0
 25 26  2  0  0  0
 26 27  1  0  0  0
 27 28  2  0  0  0
 28 29  1  0  0  0
 29 30  1  0  0  0
 30 31  2  0  0  0
  6  2  1  0  0  0
 31  8  1  0  0  0
 29  2  1  0  0  0
 14  9  1  0  0  0
 31 15  1  0  0  0
 21 16  1  0  0  0
 30 22  1  0  0  0
 28 23  1  0  0  0
  7 32  1  0  0  0
 35 36  1  0  0  0
 19 33  1  0  0  0
M  END
> <minimizedAffinity>
-6.75336

> <CNNscore>
0.1514871866

> <CNNaffinity>
4.6788630486

> <CNN_VS>
0.7087877989

> <CNNaffinity_variance>
0.3488199413

$$$$
[H]OC([H])([H])[C@@]1(O[H])C([H])([H])[C@@]2([H])O[C@]1(C([H])([H])[H])n1c3c([H])c([H])c([H])c([H])c3c3c4c(c5c6c([H])c([H])c([H])c([H])c6n2c5c31)C(=O)N([H])C4([H])[H]


 36 43  0  0  0  0  0  0  0  0999 V2000
   39.0417   14.7119   -8.4425 C   0  0  0  0  0  0  0  0  0  0  0  0
   37.9341   15.7088   -8.4645 C   0  0  0  0  0  0  0  0  0  0  0  0
   36.8174   14.8440   -8.6328 O   0  0  0  0  0  0  0  0  0  0  0  0
   35.8374   15.4866   -9.3086 C   0  0  0  0  0  0  0  0  0  0  0  0
   36.4825   16.4162  -10.2452 C   0  0  0  0  0  0  0  0  0  0  0  0
   37.8888   16.5514   -9.7048 C   0  0  0  0  0  0  0  0  0  0  0  0
   38.0899   17.9005   -9.4545 O   0  0  0  0  0  0  0  0  0  0  0  0
   34.8948   16.1208   -8.3778 N   0  0  0  0  0  0  0  0  0  0  0  0
   33.5800   16.2272   -8.4626 C   0  0  0  0  0  0  0  0  0  0  0  0
   32.7473   15.7726   -9.4521 C   0  0  0  0  0  0  0  0  0  0  0  0
   31.3831   16.0034   -9.3241 C   0  0  0  0  0  0  0  0  0  0  0  0
   30.8833   16.6694   -8.2345 C   0  0  0  0  0  0  0  0  0  0  0  0
   31.7314   17.1347   -7.2223 C   0  0  0  0  0  0  0  0  0  0  0  0
   33.0693   16.9026   -7.3583 C   0  0  0  0  0  0  0  0  0  0  0  0
   34.1590   17.2119   -6.5764 C   0  0  0  0  0  0  0  0  0  0  0  0
   34.3165   17.8794   -5.3754 C   0  0  0  0  0  0  0  0  0  0  0  0
   33.4128   18.5116   -4.4312 C   0  0  0  0  0  0  0  0  0  0  0  0
   32.1869   18.6332   -4.4487 O   0  0  0  0  0  0  0  0  0  0  0  0
   34.2075   19.0327   -3.3612 N   0  0  0  0  0  0  0  0  0  0  0  0
   35.6066   18.7632   -3.5877 C   0  0  0  0  0  0  0  0  0  0  0  0
   35.5969   18.0258   -4.8748 C   0  0  0  0  0  0  0  0  0  0  0  0
   36.7136   17.5268   -5.5363 C   0  0  0  0  0  0  0  0  0  0  0  0
   38.0533   17.5341   -5.3063 C   0  0  0  0  0  0  0  0  0  0  0  0
   38.7738   18.0765   -4.2672 C   0  0  0  0  0  0  0  0  0  0  0  0
   40.1671   17.9629   -4.2761 C   0  0  0  0  0  0  0  0  0  0  0  0
   40.7733   17.3076   -5.3329 C   0  0  0  0  0  0  0  0  0  0  0  0
   40.0261   16.7705   -6.3668 C   0  0  0  0  0  0  0  0  0  0  0  0
   38.6556   16.8694   -6.3776 C   0  0  0  0  0  0  0  0  0  0  0  0
   37.7070   16.4514   -7.2578 N   0  0  0  0  0  0  0  0  0  0  0  0
   36.5197   16.8775   -6.7088 C   0  0  0  0  0  0  0  0  0  0  0  0
   35.2592   16.7129   -7.2398 C   0  0  0  0  0  0  0  0  0  0  0  0
   38.4636   18.3134  -10.2699 H   0  0  0  0  0  0  0  0  0  0  0  0
   33.8592   19.5480   -2.5080 H   0  0  0  0  0  0  0  0  0  0  0  0
   38.8401   16.1166  -10.7676 C   0  0  0  0  0  0  0  0  0  0  0  0
   38.1194   15.9101  -11.9443 O   0  0  0  0  0  0  0  0  0  0  0  0
   38.0546   14.9521  -12.1891 H   0  0  0  0  0  0  0  0  0  0  0  0
  2  1  1  0  0  0
  2  3  1  0  0  0
  3  4  1  0  0  0
  4  5  1  0  0  0
  5  6  1  0  0  0
  6  7  1  0  0  0
  6 34  1  0  0  0
 34 35  1  0  0  0
  4  8  1  0  0  0
  8  9  1  0  0  0
  9 10  2  0  0  0
 10 11  1  0  0  0
 11 12  2  0  0  0
 12 13  1  0  0  0
 13 14  2  0  0  0
 14 15  1  0  0  0
 15 16  2  0  0  0
 16 17  1  0  0  0
 17 18  2  0  0  0
 17 19  1  0  0  0
 19 20  1  0  0  0
 20 21  1  0  0  0
 21 22  2  0  0  0
 22 23  1  0  0  0
 23 24  2  0  0  0
 24 25  1  0  0  0
 25 26  2  0  0  0
 26 27  1  0  0  0
 27 28  2  0  0  0
 28 29  1  0  0  0
 29 30  1  0  0  0
 30 31  2  0  0  0
  6  2  1  0  0  0
 31  8  1  0  0  0
 29  2  1  0  0  0
 14  9  1  0  0  0
 31 15  1  0  0  0
 21 16  1  0  0  0
 30 22  1  0  0  0
 28 23  1  0  0  0
  7 32  1  0  0  0
 35 36  1  0  0  0
 19 33  1  0  0  0
M  END
> <minimizedAffinity>
-6.81196

> <CNNscore>
0.1480229497

> <CNNaffinity>
5.0470795631

> <CNN_VS>
0.7470836043

> <CNNaffinity_variance>
0.3049581945

$$$$
[H]c1c([H])c([H])c2c(c1[H])c1c3c(c4c5c([H])c([H])c([H])c([H])c5n5c4c1n2[C@@]1(C([H])([H])[H])O[C@]5([H])C([H])([H])[C@@]([H])(N([H])C([H])([H])[H])[C@@]1([H])OC([H])([H])[H])C(=O)N([H])C3([H])[H]


 37 44  0  0  0  0  0  0  0  0999 V2000
   36.7870   15.0641  -13.2459 C   0  0  0  0  0  0  0  0  0  0  0  0
   38.2101   14.7669  -13.0733 C   0  0  0  0  0  0  0  0  0  0  0  0
   38.4965   13.3209  -12.9763 C   0  0  0  0  0  0  0  0  0  0  0  0
   37.5571   12.4416  -12.7545 O   0  0  0  0  0  0  0  0  0  0  0  0
   36.2647   12.5707  -13.2559 C   0  0  0  0  0  0  0  0  0  0  0  0
   35.5025   11.6181  -12.3252 C   0  0  0  0  0  0  0  0  0  0  0  0
   35.8019   13.9416  -13.0781 C   0  0  0  0  0  0  0  0  0  0  0  0
   36.2687   12.0760  -14.6439 N   0  0  0  0  0  0  0  0  0  0  0  0
   35.2485   11.5666  -15.3317 C   0  0  0  0  0  0  0  0  0  0  0  0
   33.9287   11.3751  -15.0306 C   0  0  0  0  0  0  0  0  0  0  0  0
   33.0532   10.8191  -15.9362 C   0  0  0  0  0  0  0  0  0  0  0  0
   33.4803   10.4256  -17.2083 C   0  0  0  0  0  0  0  0  0  0  0  0
   34.7916   10.6144  -17.5124 C   0  0  0  0  0  0  0  0  0  0  0  0
   35.6531   11.1686  -16.6031 C   0  0  0  0  0  0  0  0  0  0  0  0
   36.9898   11.4569  -16.6838 C   0  0  0  0  0  0  0  0  0  0  0  0
   37.9467   11.2938  -17.6880 C   0  0  0  0  0  0  0  0  0  0  0  0
   37.8096   10.7280  -19.0496 C   0  0  0  0  0  0  0  0  0  0  0  0
   39.0948   10.7964  -19.6627 N   0  0  0  0  0  0  0  0  0  0  0  0
   40.0056   11.3807  -18.7257 C   0  0  0  0  0  0  0  0  0  0  0  0
   41.1917   11.5519  -19.0136 O   0  0  0  0  0  0  0  0  0  0  0  0
   39.2738   11.6812  -17.5094 C   0  0  0  0  0  0  0  0  0  0  0  0
   39.6022   12.2360  -16.2931 C   0  0  0  0  0  0  0  0  0  0  0  0
   40.7663   12.7436  -15.7450 C   0  0  0  0  0  0  0  0  0  0  0  0
   42.0400   12.8669  -16.2247 C   0  0  0  0  0  0  0  0  0  0  0  0
   43.0116   13.4298  -15.4204 C   0  0  0  0  0  0  0  0  0  0  0  0
   42.7116   13.8628  -14.1542 C   0  0  0  0  0  0  0  0  0  0  0  0
   41.4322   13.7448  -13.6574 C   0  0  0  0  0  0  0  0  0  0  0  0
   40.4776   13.1864  -14.4610 C   0  0  0  0  0  0  0  0  0  0  0  0
   39.2016   12.9650  -14.2242 N   0  0  0  0  0  0  0  0  0  0  0  0
   38.6318   12.3958  -15.2887 C   0  0  0  0  0  0  0  0  0  0  0  0
   37.3190   12.0024  -15.4849 C   0  0  0  0  0  0  0  0  0  0  0  0
   39.3084   10.4681  -20.6338 H   0  0  0  0  0  0  0  0  0  0  0  0
   37.8662   15.6094  -15.3190 C   0  0  0  0  0  0  0  0  0  0  0  0
   36.6258   15.7036  -14.5715 N   0  0  0  0  0  0  0  0  0  0  0  0
   35.9119   15.2028  -15.1426 H   0  0  0  0  0  0  0  0  0  0  0  0
   34.7124   14.3312  -13.8538 O   0  0  0  0  0  0  0  0  0  0  0  0
   33.5327   14.4353  -13.1272 C   0  0  0  0  0  0  0  0  0  0  0  0
 33 34  1  0  0  0
 34  1  1  0  0  0
  1  2  1  0  0  0
  2  3  1  0  0  0
  3  4  1  0  0  0
  4  5  1  0  0  0
  5  6  1  0  0  0
  5  7  1  0  0  0
  7 36  1  0  0  0
 36 37  1  0  0  0
  5  8  1  0  0  0
  8  9  1  0  0  0
  9 10  2  0  0  0
 10 11  1  0  0  0
 11 12  2  0  0  0
 12 13  1  0  0  0
 13 14  2  0  0  0
 14 15  1  0  0  0
 15 16  2  0  0  0
 16 17  1  0  0  0
 17 18  1  0  0  0
 18 19  1  0  0  0
 19 20  2  0  0  0
 19 21  1  0  0  0
 21 22  2  0  0  0
 22 23  1  0  0  0
 23 24  2  0  0  0
 24 25  1  0  0  0
 25 26  2  0  0  0
 26 27  1  0  0  0
 27 28  2  0  0  0
 28 29  1  0  0  0
 29 30  1  0  0  0
 30 31  2  0  0  0
  7  1  1  0  0  0
 31  8  1  0  0  0
 29  3  1  0  0  0
 14  9  1  0  0  0
 31 15  1  0  0  0
 21 16  1  0  0  0
 30 22  1  0  0  0
 28 23  1  0  0  0
 34 35  1  0  0  0
 18 32  1  0  0  0
M  END
> <minimizedAffinity>
-7.00294

> <CNNscore>
0.7400333285

> <CNNaffinity>
7.6930375099

> <CNN_VS>
5.6931042671

> <CNNaffinity_variance>
0.1844412386

$$$$
[H]c1c([H])c([H])c2c(c1[H])c1c3c(c4c5c([H])c([H])c([H])c([H])c5n5c4c1n2[C@@]1(C([H])([H])[H])O[C@]5([H])C([H])([H])[C@@]([H])(N([H])C([H])([H])[H])[C@@]1([H])OC([H])([H])[H])C(=O)N([H])C3([H])[H]


 37 44  0  0  0  0  0  0  0  0999 V2000
   36.0231   20.3044   -6.5330 C   0  0  0  0  0  0  0  0  0  0  0  0
   37.3674   20.1639   -5.9706 C   0  0  0  0  0  0  0  0  0  0  0  0
   37.4025   19.3473   -4.7400 C   0  0  0  0  0  0  0  0  0  0  0  0
   36.3203   19.0566   -4.0700 O   0  0  0  0  0  0  0  0  0  0  0  0
   35.0904   18.8254   -4.6803 C   0  0  0  0  0  0  0  0  0  0  0  0
   34.1402   19.0409   -3.4949 C   0  0  0  0  0  0  0  0  0  0  0  0
   34.8572   19.8269   -5.7137 C   0  0  0  0  0  0  0  0  0  0  0  0
   35.0703   17.4245   -5.1365 N   0  0  0  0  0  0  0  0  0  0  0  0
   34.0092   16.6408   -5.3194 C   0  0  0  0  0  0  0  0  0  0  0  0
   32.6644   16.8549   -5.1974 C   0  0  0  0  0  0  0  0  0  0  0  0
   31.7473   15.8603   -5.4531 C   0  0  0  0  0  0  0  0  0  0  0  0
   32.1560   14.5834   -5.8506 C   0  0  0  0  0  0  0  0  0  0  0  0
   33.4920   14.3660   -5.9737 C   0  0  0  0  0  0  0  0  0  0  0  0
   34.3949   15.3633   -5.7166 C   0  0  0  0  0  0  0  0  0  0  0  0
   35.7633   15.3816   -5.7775 C   0  0  0  0  0  0  0  0  0  0  0  0
   36.7210   14.4202   -6.1078 C   0  0  0  0  0  0  0  0  0  0  0  0
   36.5489   13.0069   -6.5150 C   0  0  0  0  0  0  0  0  0  0  0  0
   37.8523   12.4732   -6.7360 N   0  0  0  0  0  0  0  0  0  0  0  0
   38.8075   13.5075   -6.4778 C   0  0  0  0  0  0  0  0  0  0  0  0
   40.0168   13.3009   -6.5971 O   0  0  0  0  0  0  0  0  0  0  0  0
   38.0856   14.7048   -6.0901 C   0  0  0  0  0  0  0  0  0  0  0  0
   38.4504   15.9829   -5.7319 C   0  0  0  0  0  0  0  0  0  0  0  0
   39.6588   16.6447   -5.6096 C   0  0  0  0  0  0  0  0  0  0  0  0
   40.9544   16.2509   -5.7941 C   0  0  0  0  0  0  0  0  0  0  0  0
   41.9716   17.1627   -5.5900 C   0  0  0  0  0  0  0  0  0  0  0  0
   41.6950   18.4500   -5.2065 C   0  0  0  0  0  0  0  0  0  0  0  0
   40.3940   18.8610   -5.0167 C   0  0  0  0  0  0  0  0  0  0  0  0
   39.3943   17.9514   -5.2212 C   0  0  0  0  0  0  0  0  0  0  0  0
   38.0903   18.0932   -5.1080 N   0  0  0  0  0  0  0  0  0  0  0  0
   37.4788   16.9435   -5.4011 C   0  0  0  0  0  0  0  0  0  0  0  0
   36.1281   16.6403   -5.4226 C   0  0  0  0  0  0  0  0  0  0  0  0
   38.0487   11.4893   -7.0356 H   0  0  0  0  0  0  0  0  0  0  0  0
   37.3675   19.6760   -8.4191 C   0  0  0  0  0  0  0  0  0  0  0  0
   36.0281   19.6498   -7.8610 N   0  0  0  0  0  0  0  0  0  0  0  0
   35.7740   18.6420   -7.7808 H   0  0  0  0  0  0  0  0  0  0  0  0
   33.8826   19.5216   -6.6609 O   0  0  0  0  0  0  0  0  0  0  0  0
   32.7593   20.3345   -6.5718 C   0  0  0  0  0  0  0  0  0  0  0  0
 33 34  1  0  0  0
 34  1  1  0  0  0
  1  2  1  0  0  0
  2  3  1  0  0  0
  3  4  1  0  0  0
  4  5  1  0  0  0
  5  6  1  0  0  0
  5  7  1  0  0  0
  7 36  1  0  0  0
 36 37  1  0  0  0
  5  8  1  0  0  0
  8  9  1  0  0  0
  9 10  2  0  0  0
 10 11  1  0  0  0
 11 12  2  0  0  0
 12 13  1  0  0  0
 13 14  2  0  0  0
 14 15  1  0  0  0
 15 16  2  0  0  0
 16 17  1  0  0  0
 17 18  1  0  0  0
 18 19  1  0  0  0
 19 20  2  0  0  0
 19 21  1  0  0  0
 21 22  2  0  0  0
 22 23  1  0  0  0
 23 24  2  0  0  0
 24 25  1  0  0  0
 25 26  2  0  0  0
 26 27  1  0  0  0
 27 28  2  0  0  0
 28 29  1  0  0  0
 29 30  1  0  0  0
 30 31  2  0  0  0
  7  1  1  0  0  0
 31  8  1  0  0  0
 29  3  1  0  0  0
 14  9  1  0  0  0
 31 15  1  0  0  0
 21 16  1  0  0  0
 30 22  1  0  0  0
 28 23  1  0  0  0
 34 35  1  0  0  0
 18 32  1  0  0  0
M  END
> <minimizedAffinity>
-5.25037

> <CNNscore>
0.2917253673

> <CNNaffinity>
5.4645805359

> <CNN_VS>
1.5941567421

> <CNNaffinity_variance>
0.0890124887

$$$$
[H]c1c([H])c([H])c2c(c1[H])c1c3c(c4c5c([H])c([H])c([H])c([H])c5n5c4c1n2[C@@]1(C([H])([H])[H])O[C@]5([H])C([H])([H])[C@@]([H])(N([H])C([H])([H])[H])[C@@]1([H])OC([H])([H])[H])C(=O)N([H])C3([H])[H]


 37 44  0  0  0  0  0  0  0  0999 V2000
   41.6430   15.0751   -8.8702 C   0  0  0  0  0  0  0  0  0  0  0  0
   42.3812   14.1790   -7.9784 C   0  0  0  0  0  0  0  0  0  0  0  0
   43.5838   13.5929   -8.6052 C   0  0  0  0  0  0  0  0  0  0  0  0
   43.7794   13.6274   -9.8956 O   0  0  0  0  0  0  0  0  0  0  0  0
   43.3805   14.6959  -10.6942 C   0  0  0  0  0  0  0  0  0  0  0  0
   43.3744   14.0303  -12.0768 C   0  0  0  0  0  0  0  0  0  0  0  0
   42.0352   15.1149  -10.3204 C   0  0  0  0  0  0  0  0  0  0  0  0
   44.4189   15.7375  -10.6045 N   0  0  0  0  0  0  0  0  0  0  0  0
   44.7183   16.6711  -11.5056 C   0  0  0  0  0  0  0  0  0  0  0  0
   44.1826   16.9945  -12.7211 C   0  0  0  0  0  0  0  0  0  0  0  0
   44.6801   18.0313  -13.4785 C   0  0  0  0  0  0  0  0  0  0  0  0
   45.7596   18.8003  -13.0327 C   0  0  0  0  0  0  0  0  0  0  0  0
   46.2953   18.4828  -11.8245 C   0  0  0  0  0  0  0  0  0  0  0  0
   45.7917   17.4492  -11.0801 C   0  0  0  0  0  0  0  0  0  0  0  0
   46.1555   16.9567   -9.8547 C   0  0  0  0  0  0  0  0  0  0  0  0
   47.1479   17.3075   -8.9368 C   0  0  0  0  0  0  0  0  0  0  0  0
   48.1713   18.3757   -9.0043 C   0  0  0  0  0  0  0  0  0  0  0  0
   48.9351   18.3002   -7.8029 N   0  0  0  0  0  0  0  0  0  0  0  0
   48.4152   17.2276   -7.0104 C   0  0  0  0  0  0  0  0  0  0  0  0
   48.9055   16.9512   -5.9138 O   0  0  0  0  0  0  0  0  0  0  0  0
   47.3089   16.6263   -7.7312 C   0  0  0  0  0  0  0  0  0  0  0  0
   46.4411   15.5870   -7.4827 C   0  0  0  0  0  0  0  0  0  0  0  0
   46.2678   14.7024   -6.4336 C   0  0  0  0  0  0  0  0  0  0  0  0
   46.9214   14.5339   -5.2453 C   0  0  0  0  0  0  0  0  0  0  0  0
   46.5056   13.5388   -4.3825 C   0  0  0  0  0  0  0  0  0  0  0  0
   45.4505   12.7244   -4.7053 C   0  0  0  0  0  0  0  0  0  0  0  0
   44.7823   12.8826   -5.8995 C   0  0  0  0  0  0  0  0  0  0  0  0
   45.2013   13.8701   -6.7467 C   0  0  0  0  0  0  0  0  0  0  0  0
   44.7371   14.2194   -7.9282 N   0  0  0  0  0  0  0  0  0  0  0  0
   45.4455   15.2415   -8.4131 C   0  0  0  0  0  0  0  0  0  0  0  0
   45.3034   15.9293   -9.6062 C   0  0  0  0  0  0  0  0  0  0  0  0
   49.7346   18.9336   -7.5661 H   0  0  0  0  0  0  0  0  0  0  0  0
   41.9333   16.3384   -6.8503 C   0  0  0  0  0  0  0  0  0  0  0  0
   41.6978   16.4316   -8.2793 N   0  0  0  0  0  0  0  0  0  0  0  0
   42.5007   16.9737   -8.6642 H   0  0  0  0  0  0  0  0  0  0  0  0
   41.6448   16.3846  -10.7400 O   0  0  0  0  0  0  0  0  0  0  0  0
   40.6116   16.3603  -11.6686 C   0  0  0  0  0  0  0  0  0  0  0  0
 33 34  1  0  0  0
 34  1  1  0  0  0
  1  2  1  0  0  0
  2  3  1  0  0  0
  3  4  1  0  0  0
  4  5  1  0  0  0
  5  6  1  0  0  0
  5  7  1  0  0  0
  7 36  1  0  0  0
 36 37  1  0  0  0
  5  8  1  0  0  0
  8  9  1  0  0  0
  9 10  2  0  0  0
 10 11  1  0  0  0
 11 12  2  0  0  0
 12 13  1  0  0  0
 13 14  2  0  0  0
 14 15  1  0  0  0
 15 16  2  0  0  0
 16 17  1  0  0  0
 17 18  1  0  0  0
 18 19  1  0  0  0
 19 20  2  0  0  0
 19 21  1  0  0  0
 21 22  2  0  0  0
 22 23  1  0  0  0
 23 24  2  0  0  0
 24 25  1  0  0  0
 25 26  2  0  0  0
 26 27  1  0  0  0
 27 28  2  0  0  0
 28 29  1  0  0  0
 29 30  1  0  0  0
 30 31  2  0  0  0
  7  1  1  0  0  0
 31  8  1  0  0  0
 29  3  1  0  0  0
 14  9  1  0  0  0
 31 15  1  0  0  0
 21 16  1  0  0  0
 30 22  1  0  0  0
 28 23  1  0  0  0
 34 35  1  0  0  0
 18 32  1  0  0  0
M  END
> <minimizedAffinity>
-4.75037

> <CNNscore>
0.2795498371

> <CNNaffinity>
5.3606123924

> <CNN_VS>
1.4985582829

> <CNNaffinity_variance>
0.0923332125

$$$$
[H]c1c([H])c([H])c2c(c1[H])c1c3c(c4c5c([H])c([H])c([H])c([H])c5n5c4c1n2[C@@]1(C([H])([H])[H])O[C@]5([H])C([H])([H])[C@@]([H])(N([H])C([H])([H])[H])[C@@]1([H])OC([H])([H])[H])C(=O)N([H])C3([H])[H]


 37 44  0  0  0  0  0  0  0  0999 V2000
   35.5878   12.5336  -12.7236 C   0  0  0  0  0  0  0  0  0  0  0  0
   35.5983   12.2752  -14.1646 C   0  0  0  0  0  0  0  0  0  0  0  0
   36.0594   13.4308  -14.9611 C   0  0  0  0  0  0  0  0  0  0  0  0
   36.1422   14.6320  -14.4561 O   0  0  0  0  0  0  0  0  0  0  0  0
   36.5048   14.8747  -13.1339 C   0  0  0  0  0  0  0  0  0  0  0  0
   35.9652   16.2991  -12.9485 C   0  0  0  0  0  0  0  0  0  0  0  0
   35.8095   13.9437  -12.2535 C   0  0  0  0  0  0  0  0  0  0  0  0
   37.9760   14.8439  -13.0575 N   0  0  0  0  0  0  0  0  0  0  0  0
   38.7608   15.4637  -12.1781 C   0  0  0  0  0  0  0  0  0  0  0  0
   38.4977   16.2539  -11.0939 C   0  0  0  0  0  0  0  0  0  0  0  0
   39.5078   16.7847  -10.3233 C   0  0  0  0  0  0  0  0  0  0  0  0
   40.8515   16.5358  -10.6196 C   0  0  0  0  0  0  0  0  0  0  0  0
   41.1180   15.7503  -11.6964 C   0  0  0  0  0  0  0  0  0  0  0  0
   40.1046   15.2279  -12.4555 C   0  0  0  0  0  0  0  0  0  0  0  0
   40.1279   14.4199  -13.5615 C   0  0  0  0  0  0  0  0  0  0  0  0
   41.1597   13.8491  -14.3100 C   0  0  0  0  0  0  0  0  0  0  0  0
   42.6270   13.9442  -14.1347 C   0  0  0  0  0  0  0  0  0  0  0  0
   43.2237   13.1714  -15.1736 N   0  0  0  0  0  0  0  0  0  0  0  0
   42.1754   12.6125  -15.9720 C   0  0  0  0  0  0  0  0  0  0  0  0
   42.4281   11.8974  -16.9437 O   0  0  0  0  0  0  0  0  0  0  0  0
   40.9053   13.0447  -15.4198 C   0  0  0  0  0  0  0  0  0  0  0  0
   39.5847   12.8352  -15.7473 C   0  0  0  0  0  0  0  0  0  0  0  0
   38.9362   12.1137  -16.7332 C   0  0  0  0  0  0  0  0  0  0  0  0
   39.3882   11.3421  -17.7666 C   0  0  0  0  0  0  0  0  0  0  0  0
   38.4735   10.7339  -18.6039 C   0  0  0  0  0  0  0  0  0  0  0  0
   37.1258   10.8963  -18.4089 C   0  0  0  0  0  0  0  0  0  0  0  0
   36.6557   11.6712  -17.3715 C   0  0  0  0  0  0  0  0  0  0  0  0
   37.5688   12.2690  -16.5483 C   0  0  0  0  0  0  0  0  0  0  0  0
   37.3784   13.0463  -15.5029 N   0  0  0  0  0  0  0  0  0  0  0  0
   38.5534   13.4143  -14.9876 C   0  0  0  0  0  0  0  0  0  0  0  0
   38.8270   14.2123  -13.8898 C   0  0  0  0  0  0  0  0  0  0  0  0
   44.2552   13.0503  -15.3067 H   0  0  0  0  0  0  0  0  0  0  0  0
   37.4431   11.0644  -13.1223 C   0  0  0  0  0  0  0  0  0  0  0  0
   36.5715   11.6178  -12.1024 N   0  0  0  0  0  0  0  0  0  0  0  0
   37.1957   12.1318  -11.4444 H   0  0  0  0  0  0  0  0  0  0  0  0
   36.3377   13.7928  -10.9734 O   0  0  0  0  0  0  0  0  0  0  0  0
   35.7418   14.6251  -10.0340 C   0  0  0  0  0  0  0  0  0  0  0  0
 33 34  1  0  0  0
 34  1  1  0  0  0
  1  2  1  0  0  0
  2  3  1  0  0  0
  3  4  1  0  0  0
  4  5  1  0  0  0
  5  6  1  0  0  0
  5  7  1  0  0  0
  7 36  1  0  0  0
 36 37  1  0  0  0
  5  8  1  0  0  0
  8  9  1  0  0  0
  9 10  2  0  0  0
 10 11  1  0  0  0
 11 12  2  0  0  0
 12 13  1  0  0  0
 13 14  2  0  0  0
 14 15  1  0  0  0
 15 16  2  0  0  0
 16 17  1  0  0  0
 17 18  1  0  0  0
 18 19  1  0  0  0
 19 20  2  0  0  0
 19 21  1  0  0  0
 21 22  2  0  0  0
 22 23  1  0  0  0
 23 24  2  0  0  0
 24 25  1  0  0  0
 25 26  2  0  0  0
 26 27  1  0  0  0
 27 28  2  0  0  0
 28 29  1  0  0  0
 29 30  1  0  0  0
 30 31  2  0  0  0
  7  1  1  0  0  0
 31  8  1  0  0  0
 29  3  1  0  0  0
 14  9  1  0  0  0
 31 15  1  0  0  0
 21 16  1  0  0  0
 30 22  1  0  0  0
 28 23  1  0  0  0
 34 35  1  0  0  0
 18 32  1  0  0  0
M  END
> <minimizedAffinity>
-7.81701

> <CNNscore>
0.2322955579

> <CNNaffinity>
6.3245744705

> <CNN_VS>
1.4691705704

> <CNNaffinity_variance>
0.1288398057

$$$$
[H]c1c([H])c([H])c2c(c1[H])c1c3c(c4c5c([H])c([H])c([H])c([H])c5n5c4c1n2[C@@]1(C([H])([H])[H])O[C@]5([H])C([H])([H])[C@@]([H])(N([H])C([H])([H])[H])[C@@]1([H])OC([H])([H])[H])C(=O)N([H])C3([H])[H]


 37 44  0  0  0  0  0  0  0  0999 V2000
   42.1695   15.7675   -8.3202 C   0  0  0  0  0  0  0  0  0  0  0  0
   43.3819   16.5604   -8.5316 C   0  0  0  0  0  0  0  0  0  0  0  0
   44.3905   16.3790   -7.4675 C   0  0  0  0  0  0  0  0  0  0  0  0
   44.0980   15.8232   -6.3228 O   0  0  0  0  0  0  0  0  0  0  0  0
   43.1787   14.7850   -6.1974 C   0  0  0  0  0  0  0  0  0  0  0  0
   42.8537   14.8728   -4.7004 C   0  0  0  0  0  0  0  0  0  0  0  0
   41.9952   15.0757   -6.9975 C   0  0  0  0  0  0  0  0  0  0  0  0
   43.8732   13.5269   -6.5231 N   0  0  0  0  0  0  0  0  0  0  0  0
   43.5795   12.2992   -6.0991 C   0  0  0  0  0  0  0  0  0  0  0  0
   42.5821   11.8044   -5.3057 C   0  0  0  0  0  0  0  0  0  0  0  0
   42.4907   10.4626   -5.0104 C   0  0  0  0  0  0  0  0  0  0  0  0
   43.4194    9.5459   -5.5130 C   0  0  0  0  0  0  0  0  0  0  0  0
   44.4126   10.0331   -6.3027 C   0  0  0  0  0  0  0  0  0  0  0  0
   44.4931   11.3701   -6.5895 C   0  0  0  0  0  0  0  0  0  0  0  0
   45.3835   12.0789   -7.3519 C   0  0  0  0  0  0  0  0  0  0  0  0
   46.5103   11.7180   -8.0938 C   0  0  0  0  0  0  0  0  0  0  0  0
   47.1284   10.3880   -8.2984 C   0  0  0  0  0  0  0  0  0  0  0  0
   48.2614   10.5783   -9.1427 N   0  0  0  0  0  0  0  0  0  0  0  0
   48.3544   11.9716   -9.4570 C   0  0  0  0  0  0  0  0  0  0  0  0
   49.2565   12.4022  -10.1782 O   0  0  0  0  0  0  0  0  0  0  0  0
   47.2604   12.6592   -8.7973 C   0  0  0  0  0  0  0  0  0  0  0  0
   46.8389   13.9679   -8.7294 C   0  0  0  0  0  0  0  0  0  0  0  0
   47.2858   15.1569   -9.2769 C   0  0  0  0  0  0  0  0  0  0  0  0
   48.3392   15.4645  -10.0914 C   0  0  0  0  0  0  0  0  0  0  0  0
   48.5307   16.7761  -10.4794 C   0  0  0  0  0  0  0  0  0  0  0  0
   47.6794   17.7652  -10.0577 C   0  0  0  0  0  0  0  0  0  0  0  0
   46.6135   17.4700   -9.2366 C   0  0  0  0  0  0  0  0  0  0  0  0
   46.4324   16.1690   -8.8580 C   0  0  0  0  0  0  0  0  0  0  0  0
   45.5047   15.6365   -8.0905 N   0  0  0  0  0  0  0  0  0  0  0  0
   45.7034   14.3211   -7.9798 C   0  0  0  0  0  0  0  0  0  0  0  0
   44.9730   13.3715   -7.2860 C   0  0  0  0  0  0  0  0  0  0  0  0
   48.8994    9.8122   -9.4628 H   0  0  0  0  0  0  0  0  0  0  0  0
   42.8822   15.2466  -10.5519 C   0  0  0  0  0  0  0  0  0  0  0  0
   42.0775   14.7942   -9.4321 N   0  0  0  0  0  0  0  0  0  0  0  0
   42.4735   13.8710   -9.1532 H   0  0  0  0  0  0  0  0  0  0  0  0
   41.1665   13.9948   -7.2895 O   0  0  0  0  0  0  0  0  0  0  0  0
   39.9133   14.0905   -6.6972 C   0  0  0  0  0  0  0  0  0  0  0  0
 33 34  1  0  0  0
 34  1  1  0  0  0
  1  2  1  0  0  0
  2  3  1  0  0  0
  3  4  1  0  0  0
  4  5  1  0  0  0
  5  6  1  0  0  0
  5  7  1  0  0  0
  7 36  1  0  0  0
 36 37  1  0  0  0
  5  8  1  0  0  0
  8  9  1  0  0  0
  9 10  2  0  0  0
 10 11  1  0  0  0
 11 12  2  0  0  0
 12 13  1  0  0  0
 13 14  2  0  0  0
 14 15  1  0  0  0
 15 16  2  0  0  0
 16 17  1  0  0  0
 17 18  1  0  0  0
 18 19  1  0  0  0
 19 20  2  0  0  0
 19 21  1  0  0  0
 21 22  2  0  0  0
 22 23  1  0  0  0
 23 24  2  0  0  0
 24 25  1  0  0  0
 25 26  2  0  0  0
 26 27  1  0  0  0
 27 28  2  0  0  0
 28 29  1  0  0  0
 29 30  1  0  0  0
 30 31  2  0  0  0
  7  1  1  0  0  0
 31  8  1  0  0  0
 29  3  1  0  0  0
 14  9  1  0  0  0
 31 15  1  0  0  0
 21 16  1  0  0  0
 30 22  1  0  0  0
 28 23  1  0  0  0
 34 35  1  0  0  0
 18 32  1  0  0  0
M  END
> <minimizedAffinity>
-5.01162

> <CNNscore>
0.1776753068

> <CNNaffinity>
5.1258711815

> <CNN_VS>
0.9107407331

> <CNNaffinity_variance>
0.2284524441

$$$$
[H]c1c([H])c([H])c2c(c1[H])c1c3c(c4c5c([H])c([H])c([H])c([H])c5n5c4c1n2[C@@]1(C([H])([H])[H])O[C@]5([H])C([H])([H])[C@@]([H])(N([H])C([H])([H])[H])[C@@]1([H])OC([H])([H])[H])C(=O)N([H])C3([H])[H]


 37 44  0  0  0  0  0  0  0  0999 V2000
   38.6116   15.9205   -9.9546 C   0  0  0  0  0  0  0  0  0  0  0  0
   37.1892   15.5945   -9.8365 C   0  0  0  0  0  0  0  0  0  0  0  0
   36.8629   14.8442   -8.6064 C   0  0  0  0  0  0  0  0  0  0  0  0
   37.7837   14.2723   -7.8786 O   0  0  0  0  0  0  0  0  0  0  0  0
   39.0554   14.8116   -7.7045 C   0  0  0  0  0  0  0  0  0  0  0  0
   39.8291   13.5703   -7.2405 C   0  0  0  0  0  0  0  0  0  0  0  0
   39.5680   15.2876   -8.9835 C   0  0  0  0  0  0  0  0  0  0  0  0
   38.9733   15.8232   -6.6362 N   0  0  0  0  0  0  0  0  0  0  0  0
   39.9450   16.2314   -5.8224 C   0  0  0  0  0  0  0  0  0  0  0  0
   41.2705   15.9110   -5.7246 C   0  0  0  0  0  0  0  0  0  0  0  0
   42.0866   16.4884   -4.7777 C   0  0  0  0  0  0  0  0  0  0  0  0
   41.5903   17.4315   -3.8723 C   0  0  0  0  0  0  0  0  0  0  0  0
   40.2731   17.7536   -3.9660 C   0  0  0  0  0  0  0  0  0  0  0  0
   39.4712   17.1726   -4.9123 C   0  0  0  0  0  0  0  0  0  0  0  0
   38.1417   17.3402   -5.1969 C   0  0  0  0  0  0  0  0  0  0  0  0
   37.1358   18.1354   -4.6435 C   0  0  0  0  0  0  0  0  0  0  0  0
   37.1935   19.0950   -3.5171 C   0  0  0  0  0  0  0  0  0  0  0  0
   35.8846   19.6383   -3.3625 N   0  0  0  0  0  0  0  0  0  0  0  0
   35.0358   19.0450   -4.3505 C   0  0  0  0  0  0  0  0  0  0  0  0
   33.8436   19.3479   -4.4299 O   0  0  0  0  0  0  0  0  0  0  0  0
   35.8307   18.1173   -5.1331 C   0  0  0  0  0  0  0  0  0  0  0  0
   35.5751   17.2771   -6.1932 C   0  0  0  0  0  0  0  0  0  0  0  0
   34.4533   16.9886   -6.9491 C   0  0  0  0  0  0  0  0  0  0  0  0
   33.1636   17.4383   -6.9033 C   0  0  0  0  0  0  0  0  0  0  0  0
   32.2474   16.9519   -7.8151 C   0  0  0  0  0  0  0  0  0  0  0  0
   32.6176   16.0284   -8.7591 C   0  0  0  0  0  0  0  0  0  0  0  0
   33.9139   15.5661   -8.8172 C   0  0  0  0  0  0  0  0  0  0  0  0
   34.8134   16.0535   -7.9105 C   0  0  0  0  0  0  0  0  0  0  0  0
   36.0913   15.7757   -7.7590 N   0  0  0  0  0  0  0  0  0  0  0  0
   36.5945   16.4804   -6.7431 C   0  0  0  0  0  0  0  0  0  0  0  0
   37.8842   16.5112   -6.2409 C   0  0  0  0  0  0  0  0  0  0  0  0
   35.6173   20.3487   -2.6411 H   0  0  0  0  0  0  0  0  0  0  0  0
   37.4175   18.0013  -10.0194 C   0  0  0  0  0  0  0  0  0  0  0  0
   38.7323   17.3956   -9.9167 N   0  0  0  0  0  0  0  0  0  0  0  0
   39.1208   17.7145   -9.0034 H   0  0  0  0  0  0  0  0  0  0  0  0
   40.6329   16.1839   -8.9271 O   0  0  0  0  0  0  0  0  0  0  0  0
   41.7906   15.6963   -9.5208 C   0  0  0  0  0  0  0  0  0  0  0  0
 33 34  1  0  0  0
 34  1  1  0  0  0
  1  2  1  0  0  0
  2  3  1  0  0  0
  3  4  1  0  0  0
  4  5  1  0  0  0
  5  6  1  0  0  0
  5  7  1  0  0  0
  7 36  1  0  0  0
 36 37  1  0  0  0
  5  8  1  0  0  0
  8  9  1  0  0  0
  9 10  2  0  0  0
 10 11  1  0  0  0
 11 12  2  0  0  0
 12 13  1  0  0  0
 13 14  2  0  0  0
 14 15  1  0  0  0
 15 16  2  0  0  0
 16 17  1  0  0  0
 17 18  1  0  0  0
 18 19  1  0  0  0
 19 20  2  0  0  0
 19 21  1  0  0  0
 21 22  2  0  0  0
 22 23  1  0  0  0
 23 24  2  0  0  0
 24 25  1  0  0  0
 25 26  2  0  0  0
 26 27  1  0  0  0
 27 28  2  0  0  0
 28 29  1  0  0  0
 29 30  1  0  0  0
 30 31  2  0  0  0
  7  1  1  0  0  0
 31  8  1  0  0  0
 29  3  1  0  0  0
 14  9  1  0  0  0
 31 15  1  0  0  0
 21 16  1  0  0  0
 30 22  1  0  0  0
 28 23  1  0  0  0
 34 35  1  0  0  0
 18 32  1  0  0  0
M  END
> <minimizedAffinity>
-5.85309

> <CNNscore>
0.1499677747

> <CNNaffinity>
5.3980431557

> <CNN_VS>
0.8095325232

> <CNNaffinity_variance>
0.2332634628

$$$$
[H]c1c([H])c([H])c2c(c1[H])c1c3c(c4c5c([H])c([H])c([H])c([H])c5n5c4c1n2[C@@]1(C([H])([H])[H])O[C@]5([H])C([H])([H])[C@@]([H])(N([H])C([H])([H])[H])[C@@]1([H])OC([H])([H])[H])C(=O)N([H])C3([H])[H]


 37 44  0  0  0  0  0  0  0  0999 V2000
   45.1877   15.7222   -6.3298 C   0  0  0  0  0  0  0  0  0  0  0  0
   45.6469   15.3130   -7.6583 C   0  0  0  0  0  0  0  0  0  0  0  0
   44.9077   14.1540   -8.1996 C   0  0  0  0  0  0  0  0  0  0  0  0
   44.1554   13.3984   -7.4460 O   0  0  0  0  0  0  0  0  0  0  0  0
   43.4147   13.8935   -6.3761 C   0  0  0  0  0  0  0  0  0  0  0  0
   43.1651   12.6040   -5.5827 C   0  0  0  0  0  0  0  0  0  0  0  0
   44.2282   14.8232   -5.6020 C   0  0  0  0  0  0  0  0  0  0  0  0
   42.1585   14.4441   -6.9146 N   0  0  0  0  0  0  0  0  0  0  0  0
   40.9894   14.5720   -6.2898 C   0  0  0  0  0  0  0  0  0  0  0  0
   40.5834   14.2969   -5.0136 C   0  0  0  0  0  0  0  0  0  0  0  0
   39.2903   14.5270   -4.6002 C   0  0  0  0  0  0  0  0  0  0  0  0
   38.3341   15.0546   -5.4736 C   0  0  0  0  0  0  0  0  0  0  0  0
   38.7333   15.3301   -6.7433 C   0  0  0  0  0  0  0  0  0  0  0  0
   40.0225   15.0970   -7.1429 C   0  0  0  0  0  0  0  0  0  0  0  0
   40.6461   15.2973   -8.3461 C   0  0  0  0  0  0  0  0  0  0  0  0
   40.2146   15.7924   -9.5786 C   0  0  0  0  0  0  0  0  0  0  0  0
   38.8791   16.2796   -9.9932 C   0  0  0  0  0  0  0  0  0  0  0  0
   38.9821   16.6714  -11.3601 N   0  0  0  0  0  0  0  0  0  0  0  0
   40.3275   16.4399  -11.7903 C   0  0  0  0  0  0  0  0  0  0  0  0
   40.6801   16.6978  -12.9428 O   0  0  0  0  0  0  0  0  0  0  0  0
   41.0738   15.8953  -10.6716 C   0  0  0  0  0  0  0  0  0  0  0  0
   42.3745   15.4863  -10.4817 C   0  0  0  0  0  0  0  0  0  0  0  0
   43.5006   15.4424  -11.2836 C   0  0  0  0  0  0  0  0  0  0  0  0
   43.7250   15.7873  -12.5868 C   0  0  0  0  0  0  0  0  0  0  0  0
   44.9890   15.6246  -13.1191 C   0  0  0  0  0  0  0  0  0  0  0  0
   46.0134   15.1238  -12.3571 C   0  0  0  0  0  0  0  0  0  0  0  0
   45.8020   14.7719  -11.0421 C   0  0  0  0  0  0  0  0  0  0  0  0
   44.5476   14.9365  -10.5245 C   0  0  0  0  0  0  0  0  0  0  0  0
   44.0951   14.6795   -9.3151 N   0  0  0  0  0  0  0  0  0  0  0  0
   42.7990   14.9894   -9.2371 C   0  0  0  0  0  0  0  0  0  0  0  0
   41.9294   14.8929   -8.1643 C   0  0  0  0  0  0  0  0  0  0  0  0
   38.1927   17.0591  -11.9284 H   0  0  0  0  0  0  0  0  0  0  0  0
   45.1809   17.7412   -7.6272 C   0  0  0  0  0  0  0  0  0  0  0  0
   44.6277   17.0870   -6.4558 N   0  0  0  0  0  0  0  0  0  0  0  0
   43.5971   17.0543   -6.6095 H   0  0  0  0  0  0  0  0  0  0  0  0
   43.5403   15.6842   -4.7501 O   0  0  0  0  0  0  0  0  0  0  0  0
   43.8917   15.5290   -3.4148 C   0  0  0  0  0  0  0  0  0  0  0  0
 33 34  1  0  0  0
 34  1  1  0  0  0
  1  2  1  0  0  0
  2  3  1  0  0  0
  3  4  1  0  0  0
  4  5  1  0  0  0
  5  6  1  0  0  0
  5  7  1  0  0  0
  7 36  1  0  0  0
 36 37  1  0  0  0
  5  8  1  0  0  0
  8  9  1  0  0  0
  9 10  2  0  0  0
 10 11  1  0  0  0
 11 12  2  0  0  0
 12 13  1  0  0  0
 13 14  2  0  0  0
 14 15  1  0  0  0
 15 16  2  0  0  0
 16 17  1  0  0  0
 17 18  1  0  0  0
 18 19  1  0  0  0
 19 20  2  0  0  0
 19 21  1  0  0  0
 21 22  2  0  0  0
 22 23  1  0  0  0
 23 24  2  0  0  0
 24 25  1  0  0  0
 25 26  2  0  0  0
 26 27  1  0  0  0
 27 28  2  0  0  0
 28 29  1  0  0  0
 29 30  1  0  0  0
 30 31  2  0  0  0
  7  1  1  0  0  0
 31  8  1  0  0  0
 29  3  1  0  0  0
 14  9  1  0  0  0
 31 15  1  0  0  0
 21 16  1  0  0  0
 30 22  1  0  0  0
 28 23  1  0  0  0
 34 35  1  0  0  0
 18 32  1  0  0  0
M  END
> <minimizedAffinity>
-6.29361

> <CNNscore>
0.1366097182

> <CNNaffinity>
5.2215762138

> <CNN_VS>
0.7133180499

> <CNNaffinity_variance>
0.1984195262

$$$$
[H]c1c([H])c([H])c2c(c1[H])c1c3c(c4c5c([H])c([H])c([H])c([H])c5n5c4c1n2[C@@]1(C([H])([H])[H])O[C@]5([H])C([H])([H])[C@@]([H])(N([H])C([H])([H])[H])[C@@]1([H])OC([H])([H])[H])C(=O)N([H])C3([H])[H]


 37 44  0  0  0  0  0  0  0  0999 V2000
   37.3921   15.3528   -9.4633 C   0  0  0  0  0  0  0  0  0  0  0  0
   35.9458   15.1298   -9.4194 C   0  0  0  0  0  0  0  0  0  0  0  0
   35.4854   14.5368   -8.1470 C   0  0  0  0  0  0  0  0  0  0  0  0
   36.3127   13.9900   -7.2977 O   0  0  0  0  0  0  0  0  0  0  0  0
   37.6041   14.4651   -7.0848 C   0  0  0  0  0  0  0  0  0  0  0  0
   38.2564   13.2350   -6.4400 C   0  0  0  0  0  0  0  0  0  0  0  0
   38.2342   14.7692   -8.3638 C   0  0  0  0  0  0  0  0  0  0  0  0
   37.5198   15.5881   -6.1345 N   0  0  0  0  0  0  0  0  0  0  0  0
   38.4599   16.0200   -5.2961 C   0  0  0  0  0  0  0  0  0  0  0  0
   39.7503   15.6305   -5.0672 C   0  0  0  0  0  0  0  0  0  0  0  0
   40.5381   16.2541   -4.1257 C   0  0  0  0  0  0  0  0  0  0  0  0
   40.0480   17.3174   -3.3611 C   0  0  0  0  0  0  0  0  0  0  0  0
   38.7658   17.7084   -3.5855 C   0  0  0  0  0  0  0  0  0  0  0  0
   37.9917   17.0804   -4.5249 C   0  0  0  0  0  0  0  0  0  0  0  0
   36.6995   17.2986   -4.9238 C   0  0  0  0  0  0  0  0  0  0  0  0
   35.7159   18.2090   -4.5313 C   0  0  0  0  0  0  0  0  0  0  0  0
   35.7632   19.2779   -3.5075 C   0  0  0  0  0  0  0  0  0  0  0  0
   34.4876   19.9145   -3.5076 N   0  0  0  0  0  0  0  0  0  0  0  0
   33.6688   19.2728   -4.4908 C   0  0  0  0  0  0  0  0  0  0  0  0
   32.5087   19.6386   -4.6896 O   0  0  0  0  0  0  0  0  0  0  0  0
   34.4490   18.2194   -5.1129 C   0  0  0  0  0  0  0  0  0  0  0  0
   34.2083   17.2883   -6.0978 C   0  0  0  0  0  0  0  0  0  0  0  0
   33.1233   16.9907   -6.9022 C   0  0  0  0  0  0  0  0  0  0  0  0
   31.8677   17.5216   -6.9992 C   0  0  0  0  0  0  0  0  0  0  0  0
   30.9840   16.9982   -7.9227 C   0  0  0  0  0  0  0  0  0  0  0  0
   31.3527   15.9582   -8.7371 C   0  0  0  0  0  0  0  0  0  0  0  0
   32.6148   15.4130   -8.6505 C   0  0  0  0  0  0  0  0  0  0  0  0
   33.4821   15.9379   -7.7335 C   0  0  0  0  0  0  0  0  0  0  0  0
   34.7245   15.5993   -7.4592 N   0  0  0  0  0  0  0  0  0  0  0  0
   35.2051   16.3760   -6.4857 C   0  0  0  0  0  0  0  0  0  0  0  0
   36.4567   16.3804   -5.8941 C   0  0  0  0  0  0  0  0  0  0  0  0
   34.2218   20.7130   -2.8845 H   0  0  0  0  0  0  0  0  0  0  0  0
   36.7829   17.3633  -10.6237 C   0  0  0  0  0  0  0  0  0  0  0  0
   37.6120   16.8133   -9.5671 N   0  0  0  0  0  0  0  0  0  0  0  0
   37.3158   17.2979   -8.6930 H   0  0  0  0  0  0  0  0  0  0  0  0
   39.3523   15.5989   -8.3196 O   0  0  0  0  0  0  0  0  0  0  0  0
   40.5370   14.9368   -8.6171 C   0  0  0  0  0  0  0  0  0  0  0  0
 33 34  1  0  0  0
 34  1  1  0  0  0
  1  2  1  0  0  0
  2  3  1  0  0  0
  3  4  1  0  0  0
  4  5  1  0  0  0
  5  6  1  0  0  0
  5  7  1  0  0  0
  7 36  1  0  0  0
 36 37  1  0  0  0
  5  8  1  0  0  0
  8  9  1  0  0  0
  9 10  2  0  0  0
 10 11  1  0  0  0
 11 12  2  0  0  0
 12 13  1  0  0  0
 13 14  2  0  0  0
 14 15  1  0  0  0
 15 16  2  0  0  0
 16 17  1  0  0  0
 17 18  1  0  0  0
 18 19  1  0  0  0
 19 20  2  0  0  0
 19 21  1  0  0  0
 21 22  2  0  0  0
 22 23  1  0  0  0
 23 24  2  0  0  0
 24 25  1  0  0  0
 25 26  2  0  0  0
 26 27  1  0  0  0
 27 28  2  0  0  0
 28 29  1  0  0  0
 29 30  1  0  0  0
 30 31  2  0  0  0
  7  1  1  0  0  0
 31  8  1  0  0  0
 29  3  1  0  0  0
 14  9  1  0  0  0
 31 15  1  0  0  0
 21 16  1  0  0  0
 30 22  1  0  0  0
 28 23  1  0  0  0
 34 35  1  0  0  0
 18 32  1  0  0  0
M  END
> <minimizedAffinity>
-6.06829

> <CNNscore>
0.1305533350

> <CNNaffinity>
5.4454736710

> <CNN_VS>
0.7109247446

> <CNNaffinity_variance>
0.1668576896

$$$$
[H]c1c([H])c([H])c2c(c1[H])c1c3c(c4c5c([H])c([H])c([H])c([H])c5n5c4c1n2[C@@]1(C([H])([H])[H])O[C@]5([H])C([H])([H])[C@@]([H])(N([H])C([H])([H])[H])[C@@]1([H])OC([H])([H])[H])C(=O)N([H])C3([H])[H]


 37 44  0  0  0  0  0  0  0  0999 V2000
   37.8317   17.2838   -9.8047 C   0  0  0  0  0  0  0  0  0  0  0  0
   36.7256   16.7781  -10.6197 C   0  0  0  0  0  0  0  0  0  0  0  0
   36.4018   15.3622  -10.3495 C   0  0  0  0  0  0  0  0  0  0  0  0
   37.2138   14.5788   -9.6925 O   0  0  0  0  0  0  0  0  0  0  0  0
   38.0123   15.0241   -8.6425 C   0  0  0  0  0  0  0  0  0  0  0  0
   39.0661   13.9097   -8.5949 C   0  0  0  0  0  0  0  0  0  0  0  0
   38.6273   16.2974   -8.9970 C   0  0  0  0  0  0  0  0  0  0  0  0
   37.1867   15.0347   -7.4220 N   0  0  0  0  0  0  0  0  0  0  0  0
   37.5944   14.9154   -6.1599 C   0  0  0  0  0  0  0  0  0  0  0  0
   38.8315   14.7918   -5.5912 C   0  0  0  0  0  0  0  0  0  0  0  0
   38.9940   14.6861   -4.2280 C   0  0  0  0  0  0  0  0  0  0  0  0
   37.8941   14.7011   -3.3646 C   0  0  0  0  0  0  0  0  0  0  0  0
   36.6621   14.8243   -3.9254 C   0  0  0  0  0  0  0  0  0  0  0  0
   36.5131   14.9288   -5.2829 C   0  0  0  0  0  0  0  0  0  0  0  0
   35.3944   15.0657   -6.0615 C   0  0  0  0  0  0  0  0  0  0  0  0
   34.0298   15.1413   -5.7740 C   0  0  0  0  0  0  0  0  0  0  0  0
   33.3283   15.0934   -4.4708 C   0  0  0  0  0  0  0  0  0  0  0  0
   31.9336   15.2126   -4.7414 N   0  0  0  0  0  0  0  0  0  0  0  0
   31.7625   15.3299   -6.1576 C   0  0  0  0  0  0  0  0  0  0  0  0
   30.6409   15.4461   -6.6554 O   0  0  0  0  0  0  0  0  0  0  0  0
   33.0732   15.2835   -6.7780 C   0  0  0  0  0  0  0  0  0  0  0  0
   33.5350   15.3476   -8.0733 C   0  0  0  0  0  0  0  0  0  0  0  0
   32.9306   15.4955   -9.3086 C   0  0  0  0  0  0  0  0  0  0  0  0
   31.6253   15.6219   -9.6930 C   0  0  0  0  0  0  0  0  0  0  0  0
   31.3278   15.7571  -11.0349 C   0  0  0  0  0  0  0  0  0  0  0  0
   32.3235   15.7657  -11.9781 C   0  0  0  0  0  0  0  0  0  0  0  0
   33.6436   15.6392  -11.6053 C   0  0  0  0  0  0  0  0  0  0  0  0
   33.9278   15.5059  -10.2749 C   0  0  0  0  0  0  0  0  0  0  0  0
   35.0900   15.3710   -9.6713 N   0  0  0  0  0  0  0  0  0  0  0  0
   34.9106   15.2705   -8.3524 C   0  0  0  0  0  0  0  0  0  0  0  0
   35.8449   15.1270   -7.3409 C   0  0  0  0  0  0  0  0  0  0  0  0
   31.1840   15.2114   -4.0102 H   0  0  0  0  0  0  0  0  0  0  0  0
   37.8510   19.6331   -9.3146 C   0  0  0  0  0  0  0  0  0  0  0  0
   37.2883   18.3507   -8.9338 N   0  0  0  0  0  0  0  0  0  0  0  0
   36.2576   18.4451   -9.0587 H   0  0  0  0  0  0  0  0  0  0  0  0
   39.1313   17.0548   -7.9421 O   0  0  0  0  0  0  0  0  0  0  0  0
   40.4899   16.8584   -7.7276 C   0  0  0  0  0  0  0  0  0  0  0  0
 33 34  1  0  0  0
 34  1  1  0  0  0
  1  2  1  0  0  0
  2  3  1  0  0  0
  3  4  1  0  0  0
  4  5  1  0  0  0
  5  6  1  0  0  0
  5  7  1  0  0  0
  7 36  1  0  0  0
 36 37  1  0  0  0
  5  8  1  0  0  0
  8  9  1  0  0  0
  9 10  2  0  0  0
 10 11  1  0  0  0
 11 12  2  0  0  0
 12 13  1  0  0  0
 13 14  2  0  0  0
 14 15  1  0  0  0
 15 16  2  0  0  0
 16 17  1  0  0  0
 17 18  1  0  0  0
 18 19  1  0  0  0
 19 20  2  0  0  0
 19 21  1  0  0  0
 21 22  2  0  0  0
 22 23  1  0  0  0
 23 24  2  0  0  0
 24 25  1  0  0  0
 25 26  2  0  0  0
 26 27  1  0  0  0
 27 28  2  0  0  0
 28 29  1  0  0  0
 29 30  1  0  0  0
 30 31  2  0  0  0
  7  1  1  0  0  0
 31  8  1  0  0  0
 29  3  1  0  0  0
 14  9  1  0  0  0
 31 15  1  0  0  0
 21 16  1  0  0  0
 30 22  1  0  0  0
 28 23  1  0  0  0
 34 35  1  0  0  0
 18 32  1  0  0  0
M  END
> <minimizedAffinity>
-5.38107

> <CNNscore>
0.1270100325

> <CNNaffinity>
5.5534143448

> <CNN_VS>
0.7053393126

> <CNNaffinity_variance>
0.1316618770

$$$$
[H]c1c([H])c([H])c2c(c1[H])c1c3c(c4c5c([H])c([H])c([H])c([H])c5n5c4c1n2[C@@]1(C([H])([H])[H])O[C@]5([H])C([H])([H])[C@@]([H])(N([H])C([H])([H])[H])[C@@]1([H])OC([H])([H])[H])C(=O)N([H])C3([H])[H]


 37 44  0  0  0  0  0  0  0  0999 V2000
   36.7870   15.0641  -13.2459 C   0  0  0  0  0  0  0  0  0  0  0  0
   38.2101   14.7669  -13.0733 C   0  0  0  0  0  0  0  0  0  0  0  0
   38.4965   13.3209  -12.9763 C   0  0  0  0  0  0  0  0  0  0  0  0
   37.5571   12.4416  -12.7545 O   0  0  0  0  0  0  0  0  0  0  0  0
   36.2647   12.5707  -13.2559 C   0  0  0  0  0  0  0  0  0  0  0  0
   35.5025   11.6181  -12.3252 C   0  0  0  0  0  0  0  0  0  0  0  0
   35.8019   13.9416  -13.0781 C   0  0  0  0  0  0  0  0  0  0  0  0
   36.2687   12.0760  -14.6439 N   0  0  0  0  0  0  0  0  0  0  0  0
   35.2485   11.5666  -15.3317 C   0  0  0  0  0  0  0  0  0  0  0  0
   33.9287   11.3751  -15.0306 C   0  0  0  0  0  0  0  0  0  0  0  0
   33.0532   10.8191  -15.9362 C   0  0  0  0  0  0  0  0  0  0  0  0
   33.4803   10.4256  -17.2083 C   0  0  0  0  0  0  0  0  0  0  0  0
   34.7916   10.6144  -17.5124 C   0  0  0  0  0  0  0  0  0  0  0  0
   35.6531   11.1686  -16.6031 C   0  0  0  0  0  0  0  0  0  0  0  0
   36.9898   11.4569  -16.6838 C   0  0  0  0  0  0  0  0  0  0  0  0
   37.9467   11.2938  -17.6880 C   0  0  0  0  0  0  0  0  0  0  0  0
   37.8096   10.7280  -19.0496 C   0  0  0  0  0  0  0  0  0  0  0  0
   39.0948   10.7964  -19.6627 N   0  0  0  0  0  0  0  0  0  0  0  0
   40.0056   11.3807  -18.7257 C   0  0  0  0  0  0  0  0  0  0  0  0
   41.1917   11.5519  -19.0136 O   0  0  0  0  0  0  0  0  0  0  0  0
   39.2738   11.6812  -17.5094 C   0  0  0  0  0  0  0  0  0  0  0  0
   39.6022   12.2360  -16.2931 C   0  0  0  0  0  0  0  0  0  0  0  0
   40.7663   12.7436  -15.7450 C   0  0  0  0  0  0  0  0  0  0  0  0
   42.0400   12.8669  -16.2247 C   0  0  0  0  0  0  0  0  0  0  0  0
   43.0116   13.4298  -15.4204 C   0  0  0  0  0  0  0  0  0  0  0  0
   42.7116   13.8628  -14.1542 C   0  0  0  0  0  0  0  0  0  0  0  0
   41.4322   13.7448  -13.6574 C   0  0  0  0  0  0  0  0  0  0  0  0
   40.4776   13.1864  -14.4610 C   0  0  0  0  0  0  0  0  0  0  0  0
   39.2016   12.9650  -14.2242 N   0  0  0  0  0  0  0  0  0  0  0  0
   38.6318   12.3958  -15.2887 C   0  0  0  0  0  0  0  0  0  0  0  0
   37.3190   12.0024  -15.4849 C   0  0  0  0  0  0  0  0  0  0  0  0
   39.3084   10.4681  -20.6338 H   0  0  0  0  0  0  0  0  0  0  0  0
   37.8662   15.6094  -15.3190 C   0  0  0  0  0  0  0  0  0  0  0  0
   36.6258   15.7036  -14.5715 N   0  0  0  0  0  0  0  0  0  0  0  0
   35.9119   15.2028  -15.1426 H   0  0  0  0  0  0  0  0  0  0  0  0
   34.7124   14.3312  -13.8538 O   0  0  0  0  0  0  0  0  0  0  0  0
   33.5327   14.4353  -13.1272 C   0  0  0  0  0  0  0  0  0  0  0  0
 33 34  1  0  0  0
 34  1  1  0  0  0
  1  2  1  0  0  0
  2  3  1  0  0  0
  3  4  1  0  0  0
  4  5  1  0  0  0
  5  6  1  0  0  0
  5  7  1  0  0  0
  7 36  1  0  0  0
 36 37  1  0  0  0
  5  8  1  0  0  0
  8  9  1  0  0  0
  9 10  2  0  0  0
 10 11  1  0  0  0
 11 12  2  0  0  0
 12 13  1  0  0  0
 13 14  2  0  0  0
 14 15  1  0  0  0
 15 16  2  0  0  0
 16 17  1  0  0  0
 17 18  1  0  0  0
 18 19  1  0  0  0
 19 20  2  0  0  0
 19 21  1  0  0  0
 21 22  2  0  0  0
 22 23  1  0  0  0
 23 24  2  0  0  0
 24 25  1  0  0  0
 25 26  2  0  0  0
 26 27  1  0  0  0
 27 28  2  0  0  0
 28 29  1  0  0  0
 29 30  1  0  0  0
 30 31  2  0  0  0
  7  1  1  0  0  0
 31  8  1  0  0  0
 29  3  1  0  0  0
 14  9  1  0  0  0
 31 15  1  0  0  0
 21 16  1  0  0  0
 30 22  1  0  0  0
 28 23  1  0  0  0
 34 35  1  0  0  0
 18 32  1  0  0  0
M  END
> <minimizedAffinity>
-7.00294

> <CNNscore>
0.7400333285

> <CNNaffinity>
7.6930375099

> <CNN_VS>
5.6931042671

> <CNNaffinity_variance>
0.1844412386

$$$$
[H]c1c([H])c([H])c2c(c1[H])c1c3c(c4c5c([H])c([H])c([H])c([H])c5n5c4c1n2[C@@]1(C([H])([H])[H])O[C@]5([H])C([H])([H])[C@@]([H])(N([H])C([H])([H])[H])[C@@]1([H])OC([H])([H])[H])C(=O)N([H])C3([H])[H]


 37 44  0  0  0  0  0  0  0  0999 V2000
   36.0231   20.3044   -6.5330 C   0  0  0  0  0  0  0  0  0  0  0  0
   37.3674   20.1639   -5.9706 C   0  0  0  0  0  0  0  0  0  0  0  0
   37.4025   19.3473   -4.7400 C   0  0  0  0  0  0  0  0  0  0  0  0
   36.3203   19.0566   -4.0700 O   0  0  0  0  0  0  0  0  0  0  0  0
   35.0904   18.8254   -4.6803 C   0  0  0  0  0  0  0  0  0  0  0  0
   34.1402   19.0409   -3.4949 C   0  0  0  0  0  0  0  0  0  0  0  0
   34.8572   19.8269   -5.7137 C   0  0  0  0  0  0  0  0  0  0  0  0
   35.0703   17.4245   -5.1365 N   0  0  0  0  0  0  0  0  0  0  0  0
   34.0092   16.6408   -5.3194 C   0  0  0  0  0  0  0  0  0  0  0  0
   32.6644   16.8549   -5.1974 C   0  0  0  0  0  0  0  0  0  0  0  0
   31.7473   15.8603   -5.4531 C   0  0  0  0  0  0  0  0  0  0  0  0
   32.1560   14.5834   -5.8506 C   0  0  0  0  0  0  0  0  0  0  0  0
   33.4920   14.3660   -5.9737 C   0  0  0  0  0  0  0  0  0  0  0  0
   34.3949   15.3633   -5.7166 C   0  0  0  0  0  0  0  0  0  0  0  0
   35.7633   15.3816   -5.7775 C   0  0  0  0  0  0  0  0  0  0  0  0
   36.7210   14.4202   -6.1078 C   0  0  0  0  0  0  0  0  0  0  0  0
   36.5489   13.0069   -6.5150 C   0  0  0  0  0  0  0  0  0  0  0  0
   37.8523   12.4732   -6.7360 N   0  0  0  0  0  0  0  0  0  0  0  0
   38.8075   13.5075   -6.4778 C   0  0  0  0  0  0  0  0  0  0  0  0
   40.0168   13.3009   -6.5971 O   0  0  0  0  0  0  0  0  0  0  0  0
   38.0856   14.7048   -6.0901 C   0  0  0  0  0  0  0  0  0  0  0  0
   38.4504   15.9829   -5.7319 C   0  0  0  0  0  0  0  0  0  0  0  0
   39.6588   16.6447   -5.6096 C   0  0  0  0  0  0  0  0  0  0  0  0
   40.9544   16.2509   -5.7941 C   0  0  0  0  0  0  0  0  0  0  0  0
   41.9716   17.1627   -5.5900 C   0  0  0  0  0  0  0  0  0  0  0  0
   41.6950   18.4500   -5.2065 C   0  0  0  0  0  0  0  0  0  0  0  0
   40.3940   18.8610   -5.0167 C   0  0  0  0  0  0  0  0  0  0  0  0
   39.3943   17.9514   -5.2212 C   0  0  0  0  0  0  0  0  0  0  0  0
   38.0903   18.0932   -5.1080 N   0  0  0  0  0  0  0  0  0  0  0  0
   37.4788   16.9435   -5.4011 C   0  0  0  0  0  0  0  0  0  0  0  0
   36.1281   16.6403   -5.4226 C   0  0  0  0  0  0  0  0  0  0  0  0
   38.0487   11.4893   -7.0356 H   0  0  0  0  0  0  0  0  0  0  0  0
   37.3675   19.6760   -8.4191 C   0  0  0  0  0  0  0  0  0  0  0  0
   36.0281   19.6498   -7.8610 N   0  0  0  0  0  0  0  0  0  0  0  0
   35.7740   18.6420   -7.7808 H   0  0  0  0  0  0  0  0  0  0  0  0
   33.8826   19.5216   -6.6609 O   0  0  0  0  0  0  0  0  0  0  0  0
   32.7593   20.3345   -6.5718 C   0  0  0  0  0  0  0  0  0  0  0  0
 33 34  1  0  0  0
 34  1  1  0  0  0
  1  2  1  0  0  0
  2  3  1  0  0  0
  3  4  1  0  0  0
  4  5  1  0  0  0
  5  6  1  0  0  0
  5  7  1  0  0  0
  7 36  1  0  0  0
 36 37  1  0  0  0
  5  8  1  0  0  0
  8  9  1  0  0  0
  9 10  2  0  0  0
 10 11  1  0  0  0
 11 12  2  0  0  0
 12 13  1  0  0  0
 13 14  2  0  0  0
 14 15  1  0  0  0
 15 16  2  0  0  0
 16 17  1  0  0  0
 17 18  1  0  0  0
 18 19  1  0  0  0
 19 20  2  0  0  0
 19 21  1  0  0  0
 21 22  2  0  0  0
 22 23  1  0  0  0
 23 24  2  0  0  0
 24 25  1  0  0  0
 25 26  2  0  0  0
 26 27  1  0  0  0
 27 28  2  0  0  0
 28 29  1  0  0  0
 29 30  1  0  0  0
 30 31  2  0  0  0
  7  1  1  0  0  0
 31  8  1  0  0  0
 29  3  1  0  0  0
 14  9  1  0  0  0
 31 15  1  0  0  0
 21 16  1  0  0  0
 30 22  1  0  0  0
 28 23  1  0  0  0
 34 35  1  0  0  0
 18 32  1  0  0  0
M  END
> <minimizedAffinity>
-5.25037

> <CNNscore>
0.2917253673

> <CNNaffinity>
5.4645805359

> <CNN_VS>
1.5941567421

> <CNNaffinity_variance>
0.0890124887

$$$$
[H]c1c([H])c([H])c2c(c1[H])c1c3c(c4c5c([H])c([H])c([H])c([H])c5n5c4c1n2[C@@]1(C([H])([H])[H])O[C@]5([H])C([H])([H])[C@@]([H])(N([H])C([H])([H])[H])[C@@]1([H])OC([H])([H])[H])C(=O)N([H])C3([H])[H]


 37 44  0  0  0  0  0  0  0  0999 V2000
   41.6430   15.0751   -8.8702 C   0  0  0  0  0  0  0  0  0  0  0  0
   42.3812   14.1790   -7.9784 C   0  0  0  0  0  0  0  0  0  0  0  0
   43.5838   13.5929   -8.6052 C   0  0  0  0  0  0  0  0  0  0  0  0
   43.7794   13.6274   -9.8956 O   0  0  0  0  0  0  0  0  0  0  0  0
   43.3805   14.6959  -10.6942 C   0  0  0  0  0  0  0  0  0  0  0  0
   43.3744   14.0303  -12.0768 C   0  0  0  0  0  0  0  0  0  0  0  0
   42.0352   15.1149  -10.3204 C   0  0  0  0  0  0  0  0  0  0  0  0
   44.4189   15.7375  -10.6045 N   0  0  0  0  0  0  0  0  0  0  0  0
   44.7183   16.6711  -11.5056 C   0  0  0  0  0  0  0  0  0  0  0  0
   44.1826   16.9945  -12.7211 C   0  0  0  0  0  0  0  0  0  0  0  0
   44.6801   18.0313  -13.4785 C   0  0  0  0  0  0  0  0  0  0  0  0
   45.7596   18.8003  -13.0327 C   0  0  0  0  0  0  0  0  0  0  0  0
   46.2953   18.4828  -11.8245 C   0  0  0  0  0  0  0  0  0  0  0  0
   45.7917   17.4492  -11.0801 C   0  0  0  0  0  0  0  0  0  0  0  0
   46.1555   16.9567   -9.8547 C   0  0  0  0  0  0  0  0  0  0  0  0
   47.1479   17.3075   -8.9368 C   0  0  0  0  0  0  0  0  0  0  0  0
   48.1713   18.3757   -9.0043 C   0  0  0  0  0  0  0  0  0  0  0  0
   48.9351   18.3002   -7.8029 N   0  0  0  0  0  0  0  0  0  0  0  0
   48.4152   17.2276   -7.0104 C   0  0  0  0  0  0  0  0  0  0  0  0
   48.9055   16.9512   -5.9138 O   0  0  0  0  0  0  0  0  0  0  0  0
   47.3089   16.6263   -7.7312 C   0  0  0  0  0  0  0  0  0  0  0  0
   46.4411   15.5870   -7.4827 C   0  0  0  0  0  0  0  0  0  0  0  0
   46.2678   14.7024   -6.4336 C   0  0  0  0  0  0  0  0  0  0  0  0
   46.9214   14.5339   -5.2453 C   0  0  0  0  0  0  0  0  0  0  0  0
   46.5056   13.5388   -4.3825 C   0  0  0  0  0  0  0  0  0  0  0  0
   45.4505   12.7244   -4.7053 C   0  0  0  0  0  0  0  0  0  0  0  0
   44.7823   12.8826   -5.8995 C   0  0  0  0  0  0  0  0  0  0  0  0
   45.2013   13.8701   -6.7467 C   0  0  0  0  0  0  0  0  0  0  0  0
   44.7371   14.2194   -7.9282 N   0  0  0  0  0  0  0  0  0  0  0  0
   45.4455   15.2415   -8.4131 C   0  0  0  0  0  0  0  0  0  0  0  0
   45.3034   15.9293   -9.6062 C   0  0  0  0  0  0  0  0  0  0  0  0
   49.7346   18.9336   -7.5661 H   0  0  0  0  0  0  0  0  0  0  0  0
   41.9333   16.3384   -6.8503 C   0  0  0  0  0  0  0  0  0  0  0  0
   41.6978   16.4316   -8.2793 N   0  0  0  0  0  0  0  0  0  0  0  0
   42.5007   16.9737   -8.6642 H   0  0  0  0  0  0  0  0  0  0  0  0
   41.6448   16.3846  -10.7400 O   0  0  0  0  0  0  0  0  0  0  0  0
   40.6116   16.3603  -11.6686 C   0  0  0  0  0  0  0  0  0  0  0  0
 33 34  1  0  0  0
 34  1  1  0  0  0
  1  2  1  0  0  0
  2  3  1  0  0  0
  3  4  1  0  0  0
  4  5  1  0  0  0
  5  6  1  0  0  0
  5  7  1  0  0  0
  7 36  1  0  0  0
 36 37  1  0  0  0
  5  8  1  0  0  0
  8  9  1  0  0  0
  9 10  2  0  0  0
 10 11  1  0  0  0
 11 12  2  0  0  0
 12 13  1  0  0  0
 13 14  2  0  0  0
 14 15  1  0  0  0
 15 16  2  0  0  0
 16 17  1  0  0  0
 17 18  1  0  0  0
 18 19  1  0  0  0
 19 20  2  0  0  0
 19 21  1  0  0  0
 21 22  2  0  0  0
 22 23  1  0  0  0
 23 24  2  0  0  0
 24 25  1  0  0  0
 25 26  2  0  0  0
 26 27  1  0  0  0
 27 28  2  0  0  0
 28 29  1  0  0  0
 29 30  1  0  0  0
 30 31  2  0  0  0
  7  1  1  0  0  0
 31  8  1  0  0  0
 29  3  1  0  0  0
 14  9  1  0  0  0
 31 15  1  0  0  0
 21 16  1  0  0  0
 30 22  1  0  0  0
 28 23  1  0  0  0
 34 35  1  0  0  0
 18 32  1  0  0  0
M  END
> <minimizedAffinity>
-4.75037

> <CNNscore>
0.2795498371

> <CNNaffinity>
5.3606123924

> <CNN_VS>
1.4985582829

> <CNNaffinity_variance>
0.0923332125

$$$$
[H]c1c([H])c([H])c2c(c1[H])c1c3c(c4c5c([H])c([H])c([H])c([H])c5n5c4c1n2[C@@]1(C([H])([H])[H])O[C@]5([H])C([H])([H])[C@@]([H])(N([H])C([H])([H])[H])[C@@]1([H])OC([H])([H])[H])C(=O)N([H])C3([H])[H]


 37 44  0  0  0  0  0  0  0  0999 V2000
   35.5878   12.5336  -12.7236 C   0  0  0  0  0  0  0  0  0  0  0  0
   35.5983   12.2752  -14.1646 C   0  0  0  0  0  0  0  0  0  0  0  0
   36.0594   13.4308  -14.9611 C   0  0  0  0  0  0  0  0  0  0  0  0
   36.1422   14.6320  -14.4561 O   0  0  0  0  0  0  0  0  0  0  0  0
   36.5048   14.8747  -13.1339 C   0  0  0  0  0  0  0  0  0  0  0  0
   35.9652   16.2991  -12.9485 C   0  0  0  0  0  0  0  0  0  0  0  0
   35.8095   13.9437  -12.2535 C   0  0  0  0  0  0  0  0  0  0  0  0
   37.9760   14.8439  -13.0575 N   0  0  0  0  0  0  0  0  0  0  0  0
   38.7608   15.4637  -12.1781 C   0  0  0  0  0  0  0  0  0  0  0  0
   38.4977   16.2539  -11.0939 C   0  0  0  0  0  0  0  0  0  0  0  0
   39.5078   16.7847  -10.3233 C   0  0  0  0  0  0  0  0  0  0  0  0
   40.8515   16.5358  -10.6196 C   0  0  0  0  0  0  0  0  0  0  0  0
   41.1180   15.7503  -11.6964 C   0  0  0  0  0  0  0  0  0  0  0  0
   40.1046   15.2279  -12.4555 C   0  0  0  0  0  0  0  0  0  0  0  0
   40.1279   14.4199  -13.5615 C   0  0  0  0  0  0  0  0  0  0  0  0
   41.1597   13.8491  -14.3100 C   0  0  0  0  0  0  0  0  0  0  0  0
   42.6270   13.9442  -14.1347 C   0  0  0  0  0  0  0  0  0  0  0  0
   43.2237   13.1714  -15.1736 N   0  0  0  0  0  0  0  0  0  0  0  0
   42.1754   12.6125  -15.9720 C   0  0  0  0  0  0  0  0  0  0  0  0
   42.4281   11.8974  -16.9437 O   0  0  0  0  0  0  0  0  0  0  0  0
   40.9053   13.0447  -15.4198 C   0  0  0  0  0  0  0  0  0  0  0  0
   39.5847   12.8352  -15.7473 C   0  0  0  0  0  0  0  0  0  0  0  0
   38.9362   12.1137  -16.7332 C   0  0  0  0  0  0  0  0  0  0  0  0
   39.3882   11.3421  -17.7666 C   0  0  0  0  0  0  0  0  0  0  0  0
   38.4735   10.7339  -18.6039 C   0  0  0  0  0  0  0  0  0  0  0  0
   37.1258   10.8963  -18.4089 C   0  0  0  0  0  0  0  0  0  0  0  0
   36.6557   11.6712  -17.3715 C   0  0  0  0  0  0  0  0  0  0  0  0
   37.5688   12.2690  -16.5483 C   0  0  0  0  0  0  0  0  0  0  0  0
   37.3784   13.0463  -15.5029 N   0  0  0  0  0  0  0  0  0  0  0  0
   38.5534   13.4143  -14.9876 C   0  0  0  0  0  0  0  0  0  0  0  0
   38.8270   14.2123  -13.8898 C   0  0  0  0  0  0  0  0  0  0  0  0
   44.2552   13.0503  -15.3067 H   0  0  0  0  0  0  0  0  0  0  0  0
   37.4431   11.0644  -13.1223 C   0  0  0  0  0  0  0  0  0  0  0  0
   36.5715   11.6178  -12.1024 N   0  0  0  0  0  0  0  0  0  0  0  0
   37.1957   12.1318  -11.4444 H   0  0  0  0  0  0  0  0  0  0  0  0
   36.3377   13.7928  -10.9734 O   0  0  0  0  0  0  0  0  0  0  0  0
   35.7418   14.6251  -10.0340 C   0  0  0  0  0  0  0  0  0  0  0  0
 33 34  1  0  0  0
 34  1  1  0  0  0
  1  2  1  0  0  0
  2  3  1  0  0  0
  3  4  1  0  0  0
  4  5  1  0  0  0
  5  6  1  0  0  0
  5  7  1  0  0  0
  7 36  1  0  0  0
 36 37  1  0  0  0
  5  8  1  0  0  0
  8  9  1  0  0  0
  9 10  2  0  0  0
 10 11  1  0  0  0
 11 12  2  0  0  0
 12 13  1  0  0  0
 13 14  2  0  0  0
 14 15  1  0  0  0
 15 16  2  0  0  0
 16 17  1  0  0  0
 17 18  1  0  0  0
 18 19  1  0  0  0
 19 20  2  0  0  0
 19 21  1  0  0  0
 21 22  2  0  0  0
 22 23  1  0  0  0
 23 24  2  0  0  0
 24 25  1  0  0  0
 25 26  2  0  0  0
 26 27  1  0  0  0
 27 28  2  0  0  0
 28 29  1  0  0  0
 29 30  1  0  0  0
 30 31  2  0  0  0
  7  1  1  0  0  0
 31  8  1  0  0  0
 29  3  1  0  0  0
 14  9  1  0  0  0
 31 15  1  0  0  0
 21 16  1  0  0  0
 30 22  1  0  0  0
 28 23  1  0  0  0
 34 35  1  0  0  0
 18 32  1  0  0  0
M  END
> <minimizedAffinity>
-7.81701

> <CNNscore>
0.2322955579

> <CNNaffinity>
6.3245744705

> <CNN_VS>
1.4691705704

> <CNNaffinity_variance>
0.1288398057

$$$$
[H]c1c([H])c([H])c2c(c1[H])c1c3c(c4c5c([H])c([H])c([H])c([H])c5n5c4c1n2[C@@]1(C([H])([H])[H])O[C@]5([H])C([H])([H])[C@@]([H])(N([H])C([H])([H])[H])[C@@]1([H])OC([H])([H])[H])C(=O)N([H])C3([H])[H]


 37 44  0  0  0  0  0  0  0  0999 V2000
   42.1695   15.7675   -8.3202 C   0  0  0  0  0  0  0  0  0  0  0  0
   43.3819   16.5604   -8.5316 C   0  0  0  0  0  0  0  0  0  0  0  0
   44.3905   16.3790   -7.4675 C   0  0  0  0  0  0  0  0  0  0  0  0
   44.0980   15.8232   -6.3228 O   0  0  0  0  0  0  0  0  0  0  0  0
   43.1787   14.7850   -6.1974 C   0  0  0  0  0  0  0  0  0  0  0  0
   42.8537   14.8728   -4.7004 C   0  0  0  0  0  0  0  0  0  0  0  0
   41.9952   15.0757   -6.9975 C   0  0  0  0  0  0  0  0  0  0  0  0
   43.8732   13.5269   -6.5231 N   0  0  0  0  0  0  0  0  0  0  0  0
   43.5795   12.2992   -6.0991 C   0  0  0  0  0  0  0  0  0  0  0  0
   42.5821   11.8044   -5.3057 C   0  0  0  0  0  0  0  0  0  0  0  0
   42.4907   10.4626   -5.0104 C   0  0  0  0  0  0  0  0  0  0  0  0
   43.4194    9.5459   -5.5130 C   0  0  0  0  0  0  0  0  0  0  0  0
   44.4126   10.0331   -6.3027 C   0  0  0  0  0  0  0  0  0  0  0  0
   44.4931   11.3701   -6.5895 C   0  0  0  0  0  0  0  0  0  0  0  0
   45.3835   12.0789   -7.3519 C   0  0  0  0  0  0  0  0  0  0  0  0
   46.5103   11.7180   -8.0938 C   0  0  0  0  0  0  0  0  0  0  0  0
   47.1284   10.3880   -8.2984 C   0  0  0  0  0  0  0  0  0  0  0  0
   48.2614   10.5783   -9.1427 N   0  0  0  0  0  0  0  0  0  0  0  0
   48.3544   11.9716   -9.4570 C   0  0  0  0  0  0  0  0  0  0  0  0
   49.2565   12.4022  -10.1782 O   0  0  0  0  0  0  0  0  0  0  0  0
   47.2604   12.6592   -8.7973 C   0  0  0  0  0  0  0  0  0  0  0  0
   46.8389   13.9679   -8.7294 C   0  0  0  0  0  0  0  0  0  0  0  0
   47.2858   15.1569   -9.2769 C   0  0  0  0  0  0  0  0  0  0  0  0
   48.3392   15.4645  -10.0914 C   0  0  0  0  0  0  0  0  0  0  0  0
   48.5307   16.7761  -10.4794 C   0  0  0  0  0  0  0  0  0  0  0  0
   47.6794   17.7652  -10.0577 C   0  0  0  0  0  0  0  0  0  0  0  0
   46.6135   17.4700   -9.2366 C   0  0  0  0  0  0  0  0  0  0  0  0
   46.4324   16.1690   -8.8580 C   0  0  0  0  0  0  0  0  0  0  0  0
   45.5047   15.6365   -8.0905 N   0  0  0  0  0  0  0  0  0  0  0  0
   45.7034   14.3211   -7.9798 C   0  0  0  0  0  0  0  0  0  0  0  0
   44.9730   13.3715   -7.2860 C   0  0  0  0  0  0  0  0  0  0  0  0
   48.8994    9.8122   -9.4628 H   0  0  0  0  0  0  0  0  0  0  0  0
   42.8822   15.2466  -10.5519 C   0  0  0  0  0  0  0  0  0  0  0  0
   42.0775   14.7942   -9.4321 N   0  0  0  0  0  0  0  0  0  0  0  0
   42.4735   13.8710   -9.1532 H   0  0  0  0  0  0  0  0  0  0  0  0
   41.1665   13.9948   -7.2895 O   0  0  0  0  0  0  0  0  0  0  0  0
   39.9133   14.0905   -6.6972 C   0  0  0  0  0  0  0  0  0  0  0  0
 33 34  1  0  0  0
 34  1  1  0  0  0
  1  2  1  0  0  0
  2  3  1  0  0  0
  3  4  1  0  0  0
  4  5  1  0  0  0
  5  6  1  0  0  0
  5  7  1  0  0  0
  7 36  1  0  0  0
 36 37  1  0  0  0
  5  8  1  0  0  0
  8  9  1  0  0  0
  9 10  2  0  0  0
 10 11  1  0  0  0
 11 12  2  0  0  0
 12 13  1  0  0  0
 13 14  2  0  0  0
 14 15  1  0  0  0
 15 16  2  0  0  0
 16 17  1  0  0  0
 17 18  1  0  0  0
 18 19  1  0  0  0
 19 20  2  0  0  0
 19 21  1  0  0  0
 21 22  2  0  0  0
 22 23  1  0  0  0
 23 24  2  0  0  0
 24 25  1  0  0  0
 25 26  2  0  0  0
 26 27  1  0  0  0
 27 28  2  0  0  0
 28 29  1  0  0  0
 29 30  1  0  0  0
 30 31  2  0  0  0
  7  1  1  0  0  0
 31  8  1  0  0  0
 29  3  1  0  0  0
 14  9  1  0  0  0
 31 15  1  0  0  0
 21 16  1  0  0  0
 30 22  1  0  0  0
 28 23  1  0  0  0
 34 35  1  0  0  0
 18 32  1  0  0  0
M  END
> <minimizedAffinity>
-5.01162

> <CNNscore>
0.1776753068

> <CNNaffinity>
5.1258711815

> <CNN_VS>
0.9107407331

> <CNNaffinity_variance>
0.2284524441

$$$$
[H]c1c([H])c([H])c2c(c1[H])c1c3c(c4c5c([H])c([H])c([H])c([H])c5n5c4c1n2[C@@]1(C([H])([H])[H])O[C@]5([H])C([H])([H])[C@@]([H])(N([H])C([H])([H])[H])[C@@]1([H])OC([H])([H])[H])C(=O)N([H])C3([H])[H]


 37 44  0  0  0  0  0  0  0  0999 V2000
   38.6116   15.9205   -9.9546 C   0  0  0  0  0  0  0  0  0  0  0  0
   37.1892   15.5945   -9.8365 C   0  0  0  0  0  0  0  0  0  0  0  0
   36.8629   14.8442   -8.6064 C   0  0  0  0  0  0  0  0  0  0  0  0
   37.7837   14.2723   -7.8786 O   0  0  0  0  0  0  0  0  0  0  0  0
   39.0554   14.8116   -7.7045 C   0  0  0  0  0  0  0  0  0  0  0  0
   39.8291   13.5703   -7.2405 C   0  0  0  0  0  0  0  0  0  0  0  0
   39.5680   15.2876   -8.9835 C   0  0  0  0  0  0  0  0  0  0  0  0
   38.9733   15.8232   -6.6362 N   0  0  0  0  0  0  0  0  0  0  0  0
   39.9450   16.2314   -5.8224 C   0  0  0  0  0  0  0  0  0  0  0  0
   41.2705   15.9110   -5.7246 C   0  0  0  0  0  0  0  0  0  0  0  0
   42.0866   16.4884   -4.7777 C   0  0  0  0  0  0  0  0  0  0  0  0
   41.5903   17.4315   -3.8723 C   0  0  0  0  0  0  0  0  0  0  0  0
   40.2731   17.7536   -3.9660 C   0  0  0  0  0  0  0  0  0  0  0  0
   39.4712   17.1726   -4.9123 C   0  0  0  0  0  0  0  0  0  0  0  0
   38.1417   17.3402   -5.1969 C   0  0  0  0  0  0  0  0  0  0  0  0
   37.1358   18.1354   -4.6435 C   0  0  0  0  0  0  0  0  0  0  0  0
   37.1935   19.0950   -3.5171 C   0  0  0  0  0  0  0  0  0  0  0  0
   35.8846   19.6383   -3.3625 N   0  0  0  0  0  0  0  0  0  0  0  0
   35.0358   19.0450   -4.3505 C   0  0  0  0  0  0  0  0  0  0  0  0
   33.8436   19.3479   -4.4299 O   0  0  0  0  0  0  0  0  0  0  0  0
   35.8307   18.1173   -5.1331 C   0  0  0  0  0  0  0  0  0  0  0  0
   35.5751   17.2771   -6.1932 C   0  0  0  0  0  0  0  0  0  0  0  0
   34.4533   16.9886   -6.9491 C   0  0  0  0  0  0  0  0  0  0  0  0
   33.1636   17.4383   -6.9033 C   0  0  0  0  0  0  0  0  0  0  0  0
   32.2474   16.9519   -7.8151 C   0  0  0  0  0  0  0  0  0  0  0  0
   32.6176   16.0284   -8.7591 C   0  0  0  0  0  0  0  0  0  0  0  0
   33.9139   15.5661   -8.8172 C   0  0  0  0  0  0  0  0  0  0  0  0
   34.8134   16.0535   -7.9105 C   0  0  0  0  0  0  0  0  0  0  0  0
   36.0913   15.7757   -7.7590 N   0  0  0  0  0  0  0  0  0  0  0  0
   36.5945   16.4804   -6.7431 C   0  0  0  0  0  0  0  0  0  0  0  0
   37.8842   16.5112   -6.2409 C   0  0  0  0  0  0  0  0  0  0  0  0
   35.6173   20.3487   -2.6411 H   0  0  0  0  0  0  0  0  0  0  0  0
   37.4175   18.0013  -10.0194 C   0  0  0  0  0  0  0  0  0  0  0  0
   38.7323   17.3956   -9.9167 N   0  0  0  0  0  0  0  0  0  0  0  0
   39.1208   17.7145   -9.0034 H   0  0  0  0  0  0  0  0  0  0  0  0
   40.6329   16.1839   -8.9271 O   0  0  0  0  0  0  0  0  0  0  0  0
   41.7906   15.6963   -9.5208 C   0  0  0  0  0  0  0  0  0  0  0  0
 33 34  1  0  0  0
 34  1  1  0  0  0
  1  2  1  0  0  0
  2  3  1  0  0  0
  3  4  1  0  0  0
  4  5  1  0  0  0
  5  6  1  0  0  0
  5  7  1  0  0  0
  7 36  1  0  0  0
 36 37  1  0  0  0
  5  8  1  0  0  0
  8  9  1  0  0  0
  9 10  2  0  0  0
 10 11  1  0  0  0
 11 12  2  0  0  0
 12 13  1  0  0  0
 13 14  2  0  0  0
 14 15  1  0  0  0
 15 16  2  0  0  0
 16 17  1  0  0  0
 17 18  1  0  0  0
 18 19  1  0  0  0
 19 20  2  0  0  0
 19 21  1  0  0  0
 21 22  2  0  0  0
 22 23  1  0  0  0
 23 24  2  0  0  0
 24 25  1  0  0  0
 25 26  2  0  0  0
 26 27  1  0  0  0
 27 28  2  0  0  0
 28 29  1  0  0  0
 29 30  1  0  0  0
 30 31  2  0  0  0
  7  1  1  0  0  0
 31  8  1  0  0  0
 29  3  1  0  0  0
 14  9  1  0  0  0
 31 15  1  0  0  0
 21 16  1  0  0  0
 30 22  1  0  0  0
 28 23  1  0  0  0
 34 35  1  0  0  0
 18 32  1  0  0  0
M  END
> <minimizedAffinity>
-5.85309

> <CNNscore>
0.1499677747

> <CNNaffinity>
5.3980431557

> <CNN_VS>
0.8095325232

> <CNNaffinity_variance>
0.2332634628

$$$$
[H]c1c([H])c([H])c2c(c1[H])c1c3c(c4c5c([H])c([H])c([H])c([H])c5n5c4c1n2[C@@]1(C([H])([H])[H])O[C@]5([H])C([H])([H])[C@@]([H])(N([H])C([H])([H])[H])[C@@]1([H])OC([H])([H])[H])C(=O)N([H])C3([H])[H]


 37 44  0  0  0  0  0  0  0  0999 V2000
   45.1877   15.7222   -6.3298 C   0  0  0  0  0  0  0  0  0  0  0  0
   45.6469   15.3130   -7.6583 C   0  0  0  0  0  0  0  0  0  0  0  0
   44.9077   14.1540   -8.1996 C   0  0  0  0  0  0  0  0  0  0  0  0
   44.1554   13.3984   -7.4460 O   0  0  0  0  0  0  0  0  0  0  0  0
   43.4147   13.8935   -6.3761 C   0  0  0  0  0  0  0  0  0  0  0  0
   43.1651   12.6040   -5.5827 C   0  0  0  0  0  0  0  0  0  0  0  0
   44.2282   14.8232   -5.6020 C   0  0  0  0  0  0  0  0  0  0  0  0
   42.1585   14.4441   -6.9146 N   0  0  0  0  0  0  0  0  0  0  0  0
   40.9894   14.5720   -6.2898 C   0  0  0  0  0  0  0  0  0  0  0  0
   40.5834   14.2969   -5.0136 C   0  0  0  0  0  0  0  0  0  0  0  0
   39.2903   14.5270   -4.6002 C   0  0  0  0  0  0  0  0  0  0  0  0
   38.3341   15.0546   -5.4736 C   0  0  0  0  0  0  0  0  0  0  0  0
   38.7333   15.3301   -6.7433 C   0  0  0  0  0  0  0  0  0  0  0  0
   40.0225   15.0970   -7.1429 C   0  0  0  0  0  0  0  0  0  0  0  0
   40.6461   15.2973   -8.3461 C   0  0  0  0  0  0  0  0  0  0  0  0
   40.2146   15.7924   -9.5786 C   0  0  0  0  0  0  0  0  0  0  0  0
   38.8791   16.2796   -9.9932 C   0  0  0  0  0  0  0  0  0  0  0  0
   38.9821   16.6714  -11.3601 N   0  0  0  0  0  0  0  0  0  0  0  0
   40.3275   16.4399  -11.7903 C   0  0  0  0  0  0  0  0  0  0  0  0
   40.6801   16.6978  -12.9428 O   0  0  0  0  0  0  0  0  0  0  0  0
   41.0738   15.8953  -10.6716 C   0  0  0  0  0  0  0  0  0  0  0  0
   42.3745   15.4863  -10.4817 C   0  0  0  0  0  0  0  0  0  0  0  0
   43.5006   15.4424  -11.2836 C   0  0  0  0  0  0  0  0  0  0  0  0
   43.7250   15.7873  -12.5868 C   0  0  0  0  0  0  0  0  0  0  0  0
   44.9890   15.6246  -13.1191 C   0  0  0  0  0  0  0  0  0  0  0  0
   46.0134   15.1238  -12.3571 C   0  0  0  0  0  0  0  0  0  0  0  0
   45.8020   14.7719  -11.0421 C   0  0  0  0  0  0  0  0  0  0  0  0
   44.5476   14.9365  -10.5245 C   0  0  0  0  0  0  0  0  0  0  0  0
   44.0951   14.6795   -9.3151 N   0  0  0  0  0  0  0  0  0  0  0  0
   42.7990   14.9894   -9.2371 C   0  0  0  0  0  0  0  0  0  0  0  0
   41.9294   14.8929   -8.1643 C   0  0  0  0  0  0  0  0  0  0  0  0
   38.1927   17.0591  -11.9284 H   0  0  0  0  0  0  0  0  0  0  0  0
   45.1809   17.7412   -7.6272 C   0  0  0  0  0  0  0  0  0  0  0  0
   44.6277   17.0870   -6.4558 N   0  0  0  0  0  0  0  0  0  0  0  0
   43.5971   17.0543   -6.6095 H   0  0  0  0  0  0  0  0  0  0  0  0
   43.5403   15.6842   -4.7501 O   0  0  0  0  0  0  0  0  0  0  0  0
   43.8917   15.5290   -3.4148 C   0  0  0  0  0  0  0  0  0  0  0  0
 33 34  1  0  0  0
 34  1  1  0  0  0
  1  2  1  0  0  0
  2  3  1  0  0  0
  3  4  1  0  0  0
  4  5  1  0  0  0
  5  6  1  0  0  0
  5  7  1  0  0  0
  7 36  1  0  0  0
 36 37  1  0  0  0
  5  8  1  0  0  0
  8  9  1  0  0  0
  9 10  2  0  0  0
 10 11  1  0  0  0
 11 12  2  0  0  0
 12 13  1  0  0  0
 13 14  2  0  0  0
 14 15  1  0  0  0
 15 16  2  0  0  0
 16 17  1  0  0  0
 17 18  1  0  0  0
 18 19  1  0  0  0
 19 20  2  0  0  0
 19 21  1  0  0  0
 21 22  2  0  0  0
 22 23  1  0  0  0
 23 24  2  0  0  0
 24 25  1  0  0  0
 25 26  2  0  0  0
 26 27  1  0  0  0
 27 28  2  0  0  0
 28 29  1  0  0  0
 29 30  1  0  0  0
 30 31  2  0  0  0
  7  1  1  0  0  0
 31  8  1  0  0  0
 29  3  1  0  0  0
 14  9  1  0  0  0
 31 15  1  0  0  0
 21 16  1  0  0  0
 30 22  1  0  0  0
 28 23  1  0  0  0
 34 35  1  0  0  0
 18 32  1  0  0  0
M  END
> <minimizedAffinity>
-6.29361

> <CNNscore>
0.1366097182

> <CNNaffinity>
5.2215762138

> <CNN_VS>
0.7133180499

> <CNNaffinity_variance>
0.1984195262

$$$$
[H]c1c([H])c([H])c2c(c1[H])c1c3c(c4c5c([H])c([H])c([H])c([H])c5n5c4c1n2[C@@]1(C([H])([H])[H])O[C@]5([H])C([H])([H])[C@@]([H])(N([H])C([H])([H])[H])[C@@]1([H])OC([H])([H])[H])C(=O)N([H])C3([H])[H]


 37 44  0  0  0  0  0  0  0  0999 V2000
   37.3921   15.3528   -9.4633 C   0  0  0  0  0  0  0  0  0  0  0  0
   35.9458   15.1298   -9.4194 C   0  0  0  0  0  0  0  0  0  0  0  0
   35.4854   14.5368   -8.1470 C   0  0  0  0  0  0  0  0  0  0  0  0
   36.3127   13.9900   -7.2977 O   0  0  0  0  0  0  0  0  0  0  0  0
   37.6041   14.4651   -7.0848 C   0  0  0  0  0  0  0  0  0  0  0  0
   38.2564   13.2350   -6.4400 C   0  0  0  0  0  0  0  0  0  0  0  0
   38.2342   14.7692   -8.3638 C   0  0  0  0  0  0  0  0  0  0  0  0
   37.5198   15.5881   -6.1345 N   0  0  0  0  0  0  0  0  0  0  0  0
   38.4599   16.0200   -5.2961 C   0  0  0  0  0  0  0  0  0  0  0  0
   39.7503   15.6305   -5.0672 C   0  0  0  0  0  0  0  0  0  0  0  0
   40.5381   16.2541   -4.1257 C   0  0  0  0  0  0  0  0  0  0  0  0
   40.0480   17.3174   -3.3611 C   0  0  0  0  0  0  0  0  0  0  0  0
   38.7658   17.7084   -3.5855 C   0  0  0  0  0  0  0  0  0  0  0  0
   37.9917   17.0804   -4.5249 C   0  0  0  0  0  0  0  0  0  0  0  0
   36.6995   17.2986   -4.9238 C   0  0  0  0  0  0  0  0  0  0  0  0
   35.7159   18.2090   -4.5313 C   0  0  0  0  0  0  0  0  0  0  0  0
   35.7632   19.2779   -3.5075 C   0  0  0  0  0  0  0  0  0  0  0  0
   34.4876   19.9145   -3.5076 N   0  0  0  0  0  0  0  0  0  0  0  0
   33.6688   19.2728   -4.4908 C   0  0  0  0  0  0  0  0  0  0  0  0
   32.5087   19.6386   -4.6896 O   0  0  0  0  0  0  0  0  0  0  0  0
   34.4490   18.2194   -5.1129 C   0  0  0  0  0  0  0  0  0  0  0  0
   34.2083   17.2883   -6.0978 C   0  0  0  0  0  0  0  0  0  0  0  0
   33.1233   16.9907   -6.9022 C   0  0  0  0  0  0  0  0  0  0  0  0
   31.8677   17.5216   -6.9992 C   0  0  0  0  0  0  0  0  0  0  0  0
   30.9840   16.9982   -7.9227 C   0  0  0  0  0  0  0  0  0  0  0  0
   31.3527   15.9582   -8.7371 C   0  0  0  0  0  0  0  0  0  0  0  0
   32.6148   15.4130   -8.6505 C   0  0  0  0  0  0  0  0  0  0  0  0
   33.4821   15.9379   -7.7335 C   0  0  0  0  0  0  0  0  0  0  0  0
   34.7245   15.5993   -7.4592 N   0  0  0  0  0  0  0  0  0  0  0  0
   35.2051   16.3760   -6.4857 C   0  0  0  0  0  0  0  0  0  0  0  0
   36.4567   16.3804   -5.8941 C   0  0  0  0  0  0  0  0  0  0  0  0
   34.2218   20.7130   -2.8845 H   0  0  0  0  0  0  0  0  0  0  0  0
   36.7829   17.3633  -10.6237 C   0  0  0  0  0  0  0  0  0  0  0  0
   37.6120   16.8133   -9.5671 N   0  0  0  0  0  0  0  0  0  0  0  0
   37.3158   17.2979   -8.6930 H   0  0  0  0  0  0  0  0  0  0  0  0
   39.3523   15.5989   -8.3196 O   0  0  0  0  0  0  0  0  0  0  0  0
   40.5370   14.9368   -8.6171 C   0  0  0  0  0  0  0  0  0  0  0  0
 33 34  1  0  0  0
 34  1  1  0  0  0
  1  2  1  0  0  0
  2  3  1  0  0  0
  3  4  1  0  0  0
  4  5  1  0  0  0
  5  6  1  0  0  0
  5  7  1  0  0  0
  7 36  1  0  0  0
 36 37  1  0  0  0
  5  8  1  0  0  0
  8  9  1  0  0  0
  9 10  2  0  0  0
 10 11  1  0  0  0
 11 12  2  0  0  0
 12 13  1  0  0  0
 13 14  2  0  0  0
 14 15  1  0  0  0
 15 16  2  0  0  0
 16 17  1  0  0  0
 17 18  1  0  0  0
 18 19  1  0  0  0
 19 20  2  0  0  0
 19 21  1  0  0  0
 21 22  2  0  0  0
 22 23  1  0  0  0
 23 24  2  0  0  0
 24 25  1  0  0  0
 25 26  2  0  0  0
 26 27  1  0  0  0
 27 28  2  0  0  0
 28 29  1  0  0  0
 29 30  1  0  0  0
 30 31  2  0  0  0
  7  1  1  0  0  0
 31  8  1  0  0  0
 29  3  1  0  0  0
 14  9  1  0  0  0
 31 15  1  0  0  0
 21 16  1  0  0  0
 30 22  1  0  0  0
 28 23  1  0  0  0
 34 35  1  0  0  0
 18 32  1  0  0  0
M  END
> <minimizedAffinity>
-6.06829

> <CNNscore>
0.1305533350

> <CNNaffinity>
5.4454736710

> <CNN_VS>
0.7109247446

> <CNNaffinity_variance>
0.1668576896

$$$$
[H]c1c([H])c([H])c2c(c1[H])c1c3c(c4c5c([H])c([H])c([H])c([H])c5n5c4c1n2[C@@]1(C([H])([H])[H])O[C@]5([H])C([H])([H])[C@@]([H])(N([H])C([H])([H])[H])[C@@]1([H])OC([H])([H])[H])C(=O)N([H])C3([H])[H]


 37 44  0  0  0  0  0  0  0  0999 V2000
   37.8317   17.2838   -9.8047 C   0  0  0  0  0  0  0  0  0  0  0  0
   36.7256   16.7781  -10.6197 C   0  0  0  0  0  0  0  0  0  0  0  0
   36.4018   15.3622  -10.3495 C   0  0  0  0  0  0  0  0  0  0  0  0
   37.2138   14.5788   -9.6925 O   0  0  0  0  0  0  0  0  0  0  0  0
   38.0123   15.0241   -8.6425 C   0  0  0  0  0  0  0  0  0  0  0  0
   39.0661   13.9097   -8.5949 C   0  0  0  0  0  0  0  0  0  0  0  0
   38.6273   16.2974   -8.9970 C   0  0  0  0  0  0  0  0  0  0  0  0
   37.1867   15.0347   -7.4220 N   0  0  0  0  0  0  0  0  0  0  0  0
   37.5944   14.9154   -6.1599 C   0  0  0  0  0  0  0  0  0  0  0  0
   38.8315   14.7918   -5.5912 C   0  0  0  0  0  0  0  0  0  0  0  0
   38.9940   14.6861   -4.2280 C   0  0  0  0  0  0  0  0  0  0  0  0
   37.8941   14.7011   -3.3646 C   0  0  0  0  0  0  0  0  0  0  0  0
   36.6621   14.8243   -3.9254 C   0  0  0  0  0  0  0  0  0  0  0  0
   36.5131   14.9288   -5.2829 C   0  0  0  0  0  0  0  0  0  0  0  0
   35.3944   15.0657   -6.0615 C   0  0  0  0  0  0  0  0  0  0  0  0
   34.0298   15.1413   -5.7740 C   0  0  0  0  0  0  0  0  0  0  0  0
   33.3283   15.0934   -4.4708 C   0  0  0  0  0  0  0  0  0  0  0  0
   31.9336   15.2126   -4.7414 N   0  0  0  0  0  0  0  0  0  0  0  0
   31.7625   15.3299   -6.1576 C   0  0  0  0  0  0  0  0  0  0  0  0
   30.6409   15.4461   -6.6554 O   0  0  0  0  0  0  0  0  0  0  0  0
   33.0732   15.2835   -6.7780 C   0  0  0  0  0  0  0  0  0  0  0  0
   33.5350   15.3476   -8.0733 C   0  0  0  0  0  0  0  0  0  0  0  0
   32.9306   15.4955   -9.3086 C   0  0  0  0  0  0  0  0  0  0  0  0
   31.6253   15.6219   -9.6930 C   0  0  0  0  0  0  0  0  0  0  0  0
   31.3278   15.7571  -11.0349 C   0  0  0  0  0  0  0  0  0  0  0  0
   32.3235   15.7657  -11.9781 C   0  0  0  0  0  0  0  0  0  0  0  0
   33.6436   15.6392  -11.6053 C   0  0  0  0  0  0  0  0  0  0  0  0
   33.9278   15.5059  -10.2749 C   0  0  0  0  0  0  0  0  0  0  0  0
   35.0900   15.3710   -9.6713 N   0  0  0  0  0  0  0  0  0  0  0  0
   34.9106   15.2705   -8.3524 C   0  0  0  0  0  0  0  0  0  0  0  0
   35.8449   15.1270   -7.3409 C   0  0  0  0  0  0  0  0  0  0  0  0
   31.1840   15.2114   -4.0102 H   0  0  0  0  0  0  0  0  0  0  0  0
   37.8510   19.6331   -9.3146 C   0  0  0  0  0  0  0  0  0  0  0  0
   37.2883   18.3507   -8.9338 N   0  0  0  0  0  0  0  0  0  0  0  0
   36.2576   18.4451   -9.0587 H   0  0  0  0  0  0  0  0  0  0  0  0
   39.1313   17.0548   -7.9421 O   0  0  0  0  0  0  0  0  0  0  0  0
   40.4899   16.8584   -7.7276 C   0  0  0  0  0  0  0  0  0  0  0  0
 33 34  1  0  0  0
 34  1  1  0  0  0
  1  2  1  0  0  0
  2  3  1  0  0  0
  3  4  1  0  0  0
  4  5  1  0  0  0
  5  6  1  0  0  0
  5  7  1  0  0  0
  7 36  1  0  0  0
 36 37  1  0  0  0
  5  8  1  0  0  0
  8  9  1  0  0  0
  9 10  2  0  0  0
 10 11  1  0  0  0
 11 12  2  0  0  0
 12 13  1  0  0  0
 13 14  2  0  0  0
 14 15  1  0  0  0
 15 16  2  0  0  0
 16 17  1  0  0  0
 17 18  1  0  0  0
 18 19  1  0  0  0
 19 20  2  0  0  0
 19 21  1  0  0  0
 21 22  2  0  0  0
 22 23  1  0  0  0
 23 24  2  0  0  0
 24 25  1  0  0  0
 25 26  2  0  0  0
 26 27  1  0  0  0
 27 28  2  0  0  0
 28 29  1  0  0  0
 29 30  1  0  0  0
 30 31  2  0  0  0
  7  1  1  0  0  0
 31  8  1  0  0  0
 29  3  1  0  0  0
 14  9  1  0  0  0
 31 15  1  0  0  0
 21 16  1  0  0  0
 30 22  1  0  0  0
 28 23  1  0  0  0
 34 35  1  0  0  0
 18 32  1  0  0  0
M  END
> <minimizedAffinity>
-5.38107

> <CNNscore>
0.1270100325

> <CNNaffinity>
5.5534143448

> <CNN_VS>
0.7053393126

> <CNNaffinity_variance>
0.1316618770

$$$$
[H]OC([H])([H])/C([H])=C(\[H])c1nc(-c2c([H])c([H])c([Si](C([H])([H])[H])(C([H])([H])[H])C([H])([H])[H])c([H])c2[H])c2c([H])c(-c3c([H])c([H])c(C([H])([H])N4C([H])([H])C([H])([H])C([H])(O[H])C([H])([H])C4([H])[H])c([H])c3[H])n([H])c2n1


 40 44  0  0  0  0  0  0  0  0999 V2000
   38.0344   13.3715  -14.0499 C   0  0  0  0  0  0  0  0  0  0  0  0
   37.1397   12.7415  -14.8514 N   0  0  0  0  0  0  0  0  0  0  0  0
   37.4374   12.1136  -15.9845 C   0  0  0  0  0  0  0  0  0  0  0  0
   38.7464   12.1160  -16.3478 N   0  0  0  0  0  0  0  0  0  0  0  0
   39.7088   12.7061  -15.6320 C   0  0  0  0  0  0  0  0  0  0  0  0
   41.0429   12.8498  -15.7711 N   0  0  0  0  0  0  0  0  0  0  0  0
   41.5457   13.5521  -14.7422 C   0  0  0  0  0  0  0  0  0  0  0  0
   40.4910   13.8693  -13.9135 C   0  0  0  0  0  0  0  0  0  0  0  0
   39.3524   13.3458  -14.4632 C   0  0  0  0  0  0  0  0  0  0  0  0
   41.5677   12.4456  -16.5946 H   0  0  0  0  0  0  0  0  0  0  0  0
   36.6362   15.2506  -10.4539 C   0  0  0  0  0  0  0  0  0  0  0  0
   37.8636   15.5795  -10.9878 C   0  0  0  0  0  0  0  0  0  0  0  0
   38.3523   14.9867  -12.1572 C   0  0  0  0  0  0  0  0  0  0  0  0
   37.6035   14.0393  -12.8187 C   0  0  0  0  0  0  0  0  0  0  0  0
   36.3766   13.7154  -12.2782 C   0  0  0  0  0  0  0  0  0  0  0  0
   35.8942   14.3002  -11.1244 C   0  0  0  0  0  0  0  0  0  0  0  0
   36.6894   17.7677   -8.7172 C   0  0  0  0  0  0  0  0  0  0  0  0
   36.0219   16.0519   -8.9099 Si  0  0  0  0  0  0  0  0  0  0  0  0
   34.1442   16.0865   -8.9344 C   0  0  0  0  0  0  0  0  0  0  0  0
   36.5262   15.0647   -7.3957 C   0  0  0  0  0  0  0  0  0  0  0  0
   42.9555   13.8946  -14.5718 C   0  0  0  0  0  0  0  0  0  0  0  0
   43.9136   13.4796  -15.4724 C   0  0  0  0  0  0  0  0  0  0  0  0
   45.2519   13.8191  -15.2875 C   0  0  0  0  0  0  0  0  0  0  0  0
   45.6744   14.5745  -14.2117 C   0  0  0  0  0  0  0  0  0  0  0  0
   44.7121   14.9915  -13.3071 C   0  0  0  0  0  0  0  0  0  0  0  0
   43.3954   14.6474  -13.5047 C   0  0  0  0  0  0  0  0  0  0  0  0
   47.0923   14.9485  -13.9927 C   0  0  0  0  0  0  0  0  0  0  0  0
   47.5293   15.9974  -14.8522 N   0  0  0  0  0  0  0  0  0  0  0  0
   46.7322   17.1802  -14.7942 C   0  0  0  0  0  0  0  0  0  0  0  0
   47.0751   18.1148  -13.6697 C   0  0  0  0  0  0  0  0  0  0  0  0
   48.5611   18.3747  -13.5727 C   0  0  0  0  0  0  0  0  0  0  0  0
   48.9664   19.3068  -14.5345 O   0  0  0  0  0  0  0  0  0  0  0  0
   49.3672   17.1094  -13.6579 C   0  0  0  0  0  0  0  0  0  0  0  0
   48.9287   16.2732  -14.8483 C   0  0  0  0  0  0  0  0  0  0  0  0
   48.6597   20.1917  -14.2447 H   0  0  0  0  0  0  0  0  0  0  0  0
   36.4658   11.4466  -16.8285 C   0  0  0  0  0  0  0  0  0  0  0  0
   35.2070   11.3657  -16.4673 C   0  0  0  0  0  0  0  0  0  0  0  0
   34.1490   10.6980  -17.2777 C   0  0  0  0  0  0  0  0  0  0  0  0
   32.9086   11.0508  -16.7927 O   0  0  0  0  0  0  0  0  0  0  0  0
   32.8941   12.0061  -16.4732 H   0  0  0  0  0  0  0  0  0  0  0  0
 17 18  1  0  0  0
 18 19  1  0  0  0
 18 20  1  0  0  0
 18 11  1  0  0  0
 11 12  2  0  0  0
 12 13  1  0  0  0
 13 14  2  0  0  0
 14 15  1  0  0  0
 15 16  2  0  0  0
 14  1  1  0  0  0
  1  2  2  0  0  0
  2  3  1  0  0  0
  3 36  1  0  0  0
 36 37  2  0  0  0
 37 38  1  0  0  0
 38 39  1  0  0  0
  3  4  2  0  0  0
  4  5  1  0  0  0
  5  6  1  0  0  0
  6  7  1  0  0  0
  7  8  2  0  0  0
  8  9  1  0  0  0
  7 21  1  0  0  0
 21 22  2  0  0  0
 22 23  1  0  0  0
 23 24  2  0  0  0
 24 27  1  0  0  0
 27 28  1  0  0  0
 28 29  1  0  0  0
 29 30  1  0  0  0
 30 31  1  0  0  0
 31 32  1  0  0  0
 31 33  1  0  0  0
 33 34  1  0  0  0
 24 25  1  0  0  0
 25 26  2  0  0  0
 16 11  1  0  0  0
  9  1  1  0  0  0
 26 21  1  0  0  0
  9  5  2  0  0  0
 34 28  1  0  0  0
 39 40  1  0  0  0
  6 10  1  0  0  0
 32 35  1  0  0  0
M  END
> <minimizedAffinity>
-8.17114

> <CNNscore>
0.2778070271

> <CNNaffinity>
6.7250900269

> <CNN_VS>
1.8682773113

> <CNNaffinity_variance>
0.0360967517

$$$$
[H]OC([H])([H])/C([H])=C(\[H])c1nc(-c2c([H])c([H])c([Si](C([H])([H])[H])(C([H])([H])[H])C([H])([H])[H])c([H])c2[H])c2c([H])c(-c3c([H])c([H])c(C([H])([H])N4C([H])([H])C([H])([H])C([H])(O[H])C([H])([H])C4([H])[H])c([H])c3[H])n([H])c2n1


 40 44  0  0  0  0  0  0  0  0999 V2000
   37.5870   13.5072  -13.9898 C   0  0  0  0  0  0  0  0  0  0  0  0
   36.5023   13.0186  -14.6412 N   0  0  0  0  0  0  0  0  0  0  0  0
   36.5382   12.3328  -15.7793 C   0  0  0  0  0  0  0  0  0  0  0  0
   37.7688   12.1164  -16.3128 N   0  0  0  0  0  0  0  0  0  0  0  0
   38.9016   12.5534  -15.7537 C   0  0  0  0  0  0  0  0  0  0  0  0
   40.2098   12.4759  -16.0738 N   0  0  0  0  0  0  0  0  0  0  0  0
   40.9539   13.1032  -15.1479 C   0  0  0  0  0  0  0  0  0  0  0  0
   40.0866   13.6007  -14.1992 C   0  0  0  0  0  0  0  0  0  0  0  0
   38.8149   13.2608  -14.5730 C   0  0  0  0  0  0  0  0  0  0  0  0
   40.5458   11.9787  -16.9438 H   0  0  0  0  0  0  0  0  0  0  0  0
   37.0247   15.6212  -10.2977 C   0  0  0  0  0  0  0  0  0  0  0  0
   38.0883   15.9174  -11.1227 C   0  0  0  0  0  0  0  0  0  0  0  0
   38.3039   15.2482  -12.3324 C   0  0  0  0  0  0  0  0  0  0  0  0
   37.4405   14.2556  -12.7384 C   0  0  0  0  0  0  0  0  0  0  0  0
   36.3787   13.9649  -11.9074 C   0  0  0  0  0  0  0  0  0  0  0  0
   36.1658   14.6250  -10.7138 C   0  0  0  0  0  0  0  0  0  0  0  0
   37.5026   18.2225   -8.7615 C   0  0  0  0  0  0  0  0  0  0  0  0
   36.7697   16.5234   -8.7088 Si  0  0  0  0  0  0  0  0  0  0  0  0
   34.9308   16.6225   -8.3404 C   0  0  0  0  0  0  0  0  0  0  0  0
   37.5601   15.5999   -7.2790 C   0  0  0  0  0  0  0  0  0  0  0  0
   42.4102   13.2144  -15.1789 C   0  0  0  0  0  0  0  0  0  0  0  0
   43.1623   12.5829  -16.1469 C   0  0  0  0  0  0  0  0  0  0  0  0
   44.5500   12.7042  -16.1548 C   0  0  0  0  0  0  0  0  0  0  0  0
   45.2258   13.4500  -15.2094 C   0  0  0  0  0  0  0  0  0  0  0  0
   44.4705   14.0844  -14.2373 C   0  0  0  0  0  0  0  0  0  0  0  0
   43.1014   13.9540  -14.2441 C   0  0  0  0  0  0  0  0  0  0  0  0
   46.7014   13.5941  -15.1963 C   0  0  0  0  0  0  0  0  0  0  0  0
   47.3663   12.4532  -14.6614 N   0  0  0  0  0  0  0  0  0  0  0  0
   48.7907   12.5473  -14.6564 C   0  0  0  0  0  0  0  0  0  0  0  0
   49.3675   13.2892  -13.4849 C   0  0  0  0  0  0  0  0  0  0  0  0
   48.7815   12.8292  -12.1695 C   0  0  0  0  0  0  0  0  0  0  0  0
   49.3674   11.6271  -11.7578 O   0  0  0  0  0  0  0  0  0  0  0  0
   47.2834   12.7228  -12.2198 C   0  0  0  0  0  0  0  0  0  0  0  0
   46.8424   11.9334  -13.4408 C   0  0  0  0  0  0  0  0  0  0  0  0
   50.2713   11.8273  -11.4352 H   0  0  0  0  0  0  0  0  0  0  0  0
   35.3666   11.8196  -16.4613 C   0  0  0  0  0  0  0  0  0  0  0  0
   34.3473   11.3495  -15.7819 C   0  0  0  0  0  0  0  0  0  0  0  0
   33.1088   10.8052  -16.4078 C   0  0  0  0  0  0  0  0  0  0  0  0
   33.2577   10.7853  -17.7775 O   0  0  0  0  0  0  0  0  0  0  0  0
   34.2029   10.5603  -18.0438 H   0  0  0  0  0  0  0  0  0  0  0  0
 17 18  1  0  0  0
 18 19  1  0  0  0
 18 20  1  0  0  0
 18 11  1  0  0  0
 11 12  2  0  0  0
 12 13  1  0  0  0
 13 14  2  0  0  0
 14 15  1  0  0  0
 15 16  2  0  0  0
 14  1  1  0  0  0
  1  2  2  0  0  0
  2  3  1  0  0  0
  3 36  1  0  0  0
 36 37  2  0  0  0
 37 38  1  0  0  0
 38 39  1  0  0  0
  3  4  2  0  0  0
  4  5  1  0  0  0
  5  6  1  0  0  0
  6  7  1  0  0  0
  7  8  2  0  0  0
  8  9  1  0  0  0
  7 21  1  0  0  0
 21 22  2  0  0  0
 22 23  1  0  0  0
 23 24  2  0  0  0
 24 27  1  0  0  0
 27 28  1  0  0  0
 28 29  1  0  0  0
 29 30  1  0  0  0
 30 31  1  0  0  0
 31 32  1  0  0  0
 31 33  1  0  0  0
 33 34  1  0  0  0
 24 25  1  0  0  0
 25 26  2  0  0  0
 16 11  1  0  0  0
  9  1  1  0  0  0
 26 21  1  0  0  0
  9  5  2  0  0  0
 34 28  1  0  0  0
 39 40  1  0  0  0
  6 10  1  0  0  0
 32 35  1  0  0  0
M  END
> <minimizedAffinity>
-8.51993

> <CNNscore>
0.2599442303

> <CNNaffinity>
6.7865343094

> <CNN_VS>
1.7641204596

> <CNNaffinity_variance>
0.0233002864

$$$$
[H]OC([H])([H])/C([H])=C(\[H])c1nc(-c2c([H])c([H])c([Si](C([H])([H])[H])(C([H])([H])[H])C([H])([H])[H])c([H])c2[H])c2c([H])c(-c3c([H])c([H])c(C([H])([H])N4C([H])([H])C([H])([H])C([H])(O[H])C([H])([H])C4([H])[H])c([H])c3[H])n([H])c2n1


 40 44  0  0  0  0  0  0  0  0999 V2000
   38.0472   13.8050  -13.5663 C   0  0  0  0  0  0  0  0  0  0  0  0
   37.4731   13.0755  -14.5552 N   0  0  0  0  0  0  0  0  0  0  0  0
   38.1186   12.5509  -15.5920 C   0  0  0  0  0  0  0  0  0  0  0  0
   39.4574   12.7759  -15.6438 N   0  0  0  0  0  0  0  0  0  0  0  0
   40.1224   13.4804  -14.7229 C   0  0  0  0  0  0  0  0  0  0  0  0
   41.4113   13.8394  -14.5501 N   0  0  0  0  0  0  0  0  0  0  0  0
   41.5457   14.5685  -13.4299 C   0  0  0  0  0  0  0  0  0  0  0  0
   40.2933   14.6794  -12.8651 C   0  0  0  0  0  0  0  0  0  0  0  0
   39.4105   14.0057  -13.6648 C   0  0  0  0  0  0  0  0  0  0  0  0
   42.1680   13.5583  -15.2323 H   0  0  0  0  0  0  0  0  0  0  0  0
   35.8109   15.3395  -10.2405 C   0  0  0  0  0  0  0  0  0  0  0  0
   35.2838   15.3642  -11.5138 C   0  0  0  0  0  0  0  0  0  0  0  0
   35.9843   14.8744  -12.6215 C   0  0  0  0  0  0  0  0  0  0  0  0
   37.2450   14.3437  -12.4646 C   0  0  0  0  0  0  0  0  0  0  0  0
   37.7657   14.3226  -11.1876 C   0  0  0  0  0  0  0  0  0  0  0  0
   37.0747   14.8058  -10.0944 C   0  0  0  0  0  0  0  0  0  0  0  0
   35.5088   17.6344   -8.2413 C   0  0  0  0  0  0  0  0  0  0  0  0
   34.8598   15.9938   -8.8015 Si  0  0  0  0  0  0  0  0  0  0  0  0
   33.0474   16.1406   -9.2714 C   0  0  0  0  0  0  0  0  0  0  0  0
   34.9485   14.8124   -7.3460 C   0  0  0  0  0  0  0  0  0  0  0  0
   42.8045   15.1225  -12.9375 C   0  0  0  0  0  0  0  0  0  0  0  0
   44.0214   14.5878  -13.3043 C   0  0  0  0  0  0  0  0  0  0  0  0
   45.2082   15.1341  -12.8209 C   0  0  0  0  0  0  0  0  0  0  0  0
   45.2210   16.2185  -11.9661 C   0  0  0  0  0  0  0  0  0  0  0  0
   43.9988   16.7556  -11.5977 C   0  0  0  0  0  0  0  0  0  0  0  0
   42.8367   16.2040  -12.0842 C   0  0  0  0  0  0  0  0  0  0  0  0
   46.4701   16.8175  -11.4379 C   0  0  0  0  0  0  0  0  0  0  0  0
   47.3755   17.2108  -12.4654 N   0  0  0  0  0  0  0  0  0  0  0  0
   46.8918   18.2530  -13.3125 C   0  0  0  0  0  0  0  0  0  0  0  0
   47.0824   19.6414  -12.7725 C   0  0  0  0  0  0  0  0  0  0  0  0
   48.4870   19.8711  -12.2632 C   0  0  0  0  0  0  0  0  0  0  0  0
   49.3672   20.1114  -13.3241 O   0  0  0  0  0  0  0  0  0  0  0  0
   48.9683   18.7447  -11.3927 C   0  0  0  0  0  0  0  0  0  0  0  0
   48.7319   17.4051  -12.0694 C   0  0  0  0  0  0  0  0  0  0  0  0
   49.1986   21.0184  -13.6561 H   0  0  0  0  0  0  0  0  0  0  0  0
   37.4864   11.7746  -16.6403 C   0  0  0  0  0  0  0  0  0  0  0  0
   38.1751   11.3638  -17.6788 C   0  0  0  0  0  0  0  0  0  0  0  0
   37.5993   10.5630  -18.7964 C   0  0  0  0  0  0  0  0  0  0  0  0
   38.4547   10.6010  -19.8760 O   0  0  0  0  0  0  0  0  0  0  0  0
   39.4190   10.6014  -19.5844 H   0  0  0  0  0  0  0  0  0  0  0  0
 17 18  1  0  0  0
 18 19  1  0  0  0
 18 20  1  0  0  0
 18 11  1  0  0  0
 11 12  2  0  0  0
 12 13  1  0  0  0
 13 14  2  0  0  0
 14 15  1  0  0  0
 15 16  2  0  0  0
 14  1  1  0  0  0
  1  2  2  0  0  0
  2  3  1  0  0  0
  3 36  1  0  0  0
 36 37  2  0  0  0
 37 38  1  0  0  0
 38 39  1  0  0  0
  3  4  2  0  0  0
  4  5  1  0  0  0
  5  6  1  0  0  0
  6  7  1  0  0  0
  7  8  2  0  0  0
  8  9  1  0  0  0
  7 21  1  0  0  0
 21 22  2  0  0  0
 22 23  1  0  0  0
 23 24  2  0  0  0
 24 27  1  0  0  0
 27 28  1  0  0  0
 28 29  1  0  0  0
 29 30  1  0  0  0
 30 31  1  0  0  0
 31 32  1  0  0  0
 31 33  1  0  0  0
 33 34  1  0  0  0
 24 25  1  0  0  0
 25 26  2  0  0  0
 16 11  1  0  0  0
  9  1  1  0  0  0
 26 21  1  0  0  0
  9  5  2  0  0  0
 34 28  1  0  0  0
 39 40  1  0  0  0
  6 10  1  0  0  0
 32 35  1  0  0  0
M  END
> <minimizedAffinity>
-6.75299

> <CNNscore>
0.0914060026

> <CNNaffinity>
6.1516938210

> <CNN_VS>
0.5623017550

> <CNNaffinity_variance>
0.0235051420

$$$$
[H]OC([H])([H])/C([H])=C(\[H])c1nc(-c2c([H])c([H])c([Si](C([H])([H])[H])(C([H])([H])[H])C([H])([H])[H])c([H])c2[H])c2c([H])c(-c3c([H])c([H])c(C([H])([H])N4C([H])([H])C([H])([H])C([H])(O[H])C([H])([H])C4([H])[H])c([H])c3[H])n([H])c2n1


 40 44  0  0  0  0  0  0  0  0999 V2000
   40.3692   16.3602   -8.2933 C   0  0  0  0  0  0  0  0  0  0  0  0
   41.2785   16.7095   -7.3494 N   0  0  0  0  0  0  0  0  0  0  0  0
   42.5978   16.6646   -7.5047 C   0  0  0  0  0  0  0  0  0  0  0  0
   43.0473   16.2320   -8.7115 N   0  0  0  0  0  0  0  0  0  0  0  0
   42.2387   15.8637   -9.7102 C   0  0  0  0  0  0  0  0  0  0  0  0
   42.4275   15.4085  -10.9660 N   0  0  0  0  0  0  0  0  0  0  0  0
   41.2452   15.1810  -11.5617 C   0  0  0  0  0  0  0  0  0  0  0  0
   40.2628   15.5036  -10.6504 C   0  0  0  0  0  0  0  0  0  0  0  0
   40.8767   15.9269   -9.5029 C   0  0  0  0  0  0  0  0  0  0  0  0
   43.3930   15.2693  -11.3729 H   0  0  0  0  0  0  0  0  0  0  0  0
   36.1602   16.4507   -7.4606 C   0  0  0  0  0  0  0  0  0  0  0  0
   36.8075   17.5713   -7.9347 C   0  0  0  0  0  0  0  0  0  0  0  0
   38.1782   17.5791   -8.2157 C   0  0  0  0  0  0  0  0  0  0  0  0
   38.9315   16.4430   -8.0216 C   0  0  0  0  0  0  0  0  0  0  0  0
   38.2767   15.3258   -7.5469 C   0  0  0  0  0  0  0  0  0  0  0  0
   36.9243   15.3179   -7.2696 C   0  0  0  0  0  0  0  0  0  0  0  0
   33.8976   15.2477   -5.7908 C   0  0  0  0  0  0  0  0  0  0  0  0
   34.3510   16.4748   -7.1004 Si  0  0  0  0  0  0  0  0  0  0  0  0
   33.8478   18.2045   -6.5693 C   0  0  0  0  0  0  0  0  0  0  0  0
   33.3556   16.0689   -8.6387 C   0  0  0  0  0  0  0  0  0  0  0  0
   41.0765   14.6832  -12.9247 C   0  0  0  0  0  0  0  0  0  0  0  0
   42.0735   13.9774  -13.5644 C   0  0  0  0  0  0  0  0  0  0  0  0
   41.8884   13.5134  -14.8648 C   0  0  0  0  0  0  0  0  0  0  0  0
   40.7174   13.7350  -15.5622 C   0  0  0  0  0  0  0  0  0  0  0  0
   39.7160   14.4438  -14.9197 C   0  0  0  0  0  0  0  0  0  0  0  0
   39.9153   14.8947  -13.6359 C   0  0  0  0  0  0  0  0  0  0  0  0
   40.4964   13.2520  -16.9464 C   0  0  0  0  0  0  0  0  0  0  0  0
   40.2429   11.8515  -17.0124 N   0  0  0  0  0  0  0  0  0  0  0  0
   39.1547   11.4088  -16.2014 C   0  0  0  0  0  0  0  0  0  0  0  0
   37.7990   11.5669  -16.8277 C   0  0  0  0  0  0  0  0  0  0  0  0
   37.7569   11.0424  -18.2448 C   0  0  0  0  0  0  0  0  0  0  0  0
   37.6518    9.6471  -18.2554 O   0  0  0  0  0  0  0  0  0  0  0  0
   38.9278   11.5127  -19.0610 C   0  0  0  0  0  0  0  0  0  0  0  0
   40.2308   11.2742  -18.3167 C   0  0  0  0  0  0  0  0  0  0  0  0
   36.7344    9.4120  -18.0018 H   0  0  0  0  0  0  0  0  0  0  0  0
   43.5541   17.0413   -6.4825 C   0  0  0  0  0  0  0  0  0  0  0  0
   44.6764   17.6409   -6.8024 C   0  0  0  0  0  0  0  0  0  0  0  0
   45.7090   18.0594   -5.8122 C   0  0  0  0  0  0  0  0  0  0  0  0
   45.8246   17.0952   -4.8347 O   0  0  0  0  0  0  0  0  0  0  0  0
   45.7094   16.1687   -5.2133 H   0  0  0  0  0  0  0  0  0  0  0  0
 17 18  1  0  0  0
 18 19  1  0  0  0
 18 20  1  0  0  0
 18 11  1  0  0  0
 11 12  2  0  0  0
 12 13  1  0  0  0
 13 14  2  0  0  0
 14 15  1  0  0  0
 15 16  2  0  0  0
 14  1  1  0  0  0
  1  2  2  0  0  0
  2  3  1  0  0  0
  3 36  1  0  0  0
 36 37  2  0  0  0
 37 38  1  0  0  0
 38 39  1  0  0  0
  3  4  2  0  0  0
  4  5  1  0  0  0
  5  6  1  0  0  0
  6  7  1  0  0  0
  7  8  2  0  0  0
  8  9  1  0  0  0
  7 21  1  0  0  0
 21 22  2  0  0  0
 22 23  1  0  0  0
 23 24  2  0  0  0
 24 27  1  0  0  0
 27 28  1  0  0  0
 28 29  1  0  0  0
 29 30  1  0  0  0
 30 31  1  0  0  0
 31 32  1  0  0  0
 31 33  1  0  0  0
 33 34  1  0  0  0
 24 25  1  0  0  0
 25 26  2  0  0  0
 16 11  1  0  0  0
  9  1  1  0  0  0
 26 21  1  0  0  0
  9  5  2  0  0  0
 34 28  1  0  0  0
 39 40  1  0  0  0
  6 10  1  0  0  0
 32 35  1  0  0  0
M  END
> <minimizedAffinity>
-5.63056

> <CNNscore>
0.0885387287

> <CNNaffinity>
6.0165433884

> <CNN_VS>
0.5326970816

> <CNNaffinity_variance>
0.4213780463

$$$$
[H]OC([H])([H])/C([H])=C(\[H])c1nc(-c2c([H])c([H])c([Si](C([H])([H])[H])(C([H])([H])[H])C([H])([H])[H])c([H])c2[H])c2c([H])c(-c3c([H])c([H])c(C([H])([H])N4C([H])([H])C([H])([H])C([H])(O[H])C([H])([H])C4([H])[H])c([H])c3[H])n([H])c2n1


 40 44  0  0  0  0  0  0  0  0999 V2000
   38.8546   13.6045  -14.3948 C   0  0  0  0  0  0  0  0  0  0  0  0
   38.1914   12.8628  -15.3165 N   0  0  0  0  0  0  0  0  0  0  0  0
   36.8697   12.7489  -15.3994 C   0  0  0  0  0  0  0  0  0  0  0  0
   36.1474   13.4386  -14.4783 N   0  0  0  0  0  0  0  0  0  0  0  0
   36.6996   14.1986  -13.5275 C   0  0  0  0  0  0  0  0  0  0  0  0
   36.2197   14.9596  -12.5222 N   0  0  0  0  0  0  0  0  0  0  0  0
   37.2308   15.5244  -11.8418 C   0  0  0  0  0  0  0  0  0  0  0  0
   38.4026   15.1077  -12.4360 C   0  0  0  0  0  0  0  0  0  0  0  0
   38.0752   14.2865  -13.4805 C   0  0  0  0  0  0  0  0  0  0  0  0
   35.1833   15.0612  -12.3413 H   0  0  0  0  0  0  0  0  0  0  0  0
   43.1443   13.6792  -14.4945 C   0  0  0  0  0  0  0  0  0  0  0  0
   42.4527   14.3295  -13.4953 C   0  0  0  0  0  0  0  0  0  0  0  0
   41.0550   14.3279  -13.4318 C   0  0  0  0  0  0  0  0  0  0  0  0
   40.3190   13.6622  -14.3862 C   0  0  0  0  0  0  0  0  0  0  0  0
   41.0182   13.0141  -15.3828 C   0  0  0  0  0  0  0  0  0  0  0  0
   42.3973   13.0155  -15.4457 C   0  0  0  0  0  0  0  0  0  0  0  0
   45.6517   15.4293  -14.5650 C   0  0  0  0  0  0  0  0  0  0  0  0
   44.9883   13.7013  -14.5484 Si  0  0  0  0  0  0  0  0  0  0  0  0
   45.6629   12.7628  -13.0680 C   0  0  0  0  0  0  0  0  0  0  0  0
   45.6248   12.8257  -16.0813 C   0  0  0  0  0  0  0  0  0  0  0  0
   37.0738   16.4100  -10.6906 C   0  0  0  0  0  0  0  0  0  0  0  0
   35.9482   16.3679   -9.8953 C   0  0  0  0  0  0  0  0  0  0  0  0
   35.8220   17.2233   -8.8031 C   0  0  0  0  0  0  0  0  0  0  0  0
   36.8018   18.1379   -8.4715 C   0  0  0  0  0  0  0  0  0  0  0  0
   37.9324   18.1803   -9.2703 C   0  0  0  0  0  0  0  0  0  0  0  0
   38.0408   17.3288  -10.3448 C   0  0  0  0  0  0  0  0  0  0  0  0
   36.6908   19.0589   -7.3149 C   0  0  0  0  0  0  0  0  0  0  0  0
   35.6705   20.0394   -7.4813 N   0  0  0  0  0  0  0  0  0  0  0  0
   34.6312   19.9828   -6.5043 C   0  0  0  0  0  0  0  0  0  0  0  0
   34.9404   20.6901   -5.2161 C   0  0  0  0  0  0  0  0  0  0  0  0
   35.4906   22.0798   -5.4423 C   0  0  0  0  0  0  0  0  0  0  0  0
   34.4616   22.9786   -5.7443 O   0  0  0  0  0  0  0  0  0  0  0  0
   36.5669   22.1023   -6.4907 C   0  0  0  0  0  0  0  0  0  0  0  0
   36.1122   21.3703   -7.7420 C   0  0  0  0  0  0  0  0  0  0  0  0
   33.9716   23.1653   -4.9159 H   0  0  0  0  0  0  0  0  0  0  0  0
   36.1791   11.9495  -16.3920 C   0  0  0  0  0  0  0  0  0  0  0  0
   35.0753   11.3089  -16.0874 C   0  0  0  0  0  0  0  0  0  0  0  0
   34.3077   10.4678  -17.0493 C   0  0  0  0  0  0  0  0  0  0  0  0
   33.0729   11.0372  -17.2726 O   0  0  0  0  0  0  0  0  0  0  0  0
   33.1247   12.0433  -17.2771 H   0  0  0  0  0  0  0  0  0  0  0  0
 17 18  1  0  0  0
 18 19  1  0  0  0
 18 20  1  0  0  0
 18 11  1  0  0  0
 11 12  2  0  0  0
 12 13  1  0  0  0
 13 14  2  0  0  0
 14 15  1  0  0  0
 15 16  2  0  0  0
 14  1  1  0  0  0
  1  2  2  0  0  0
  2  3  1  0  0  0
  3 36  1  0  0  0
 36 37  2  0  0  0
 37 38  1  0  0  0
 38 39  1  0  0  0
  3  4  2  0  0  0
  4  5  1  0  0  0
  5  6  1  0  0  0
  6  7  1  0  0  0
  7  8  2  0  0  0
  8  9  1  0  0  0
  7 21  1  0  0  0
 21 22  2  0  0  0
 22 23  1  0  0  0
 23 24  2  0  0  0
 24 27  1  0  0  0
 27 28  1  0  0  0
 28 29  1  0  0  0
 29 30  1  0  0  0
 30 31  1  0  0  0
 31 32  1  0  0  0
 31 33  1  0  0  0
 33 34  1  0  0  0
 24 25  1  0  0  0
 25 26  2  0  0  0
 16 11  1  0  0  0
  9  1  1  0  0  0
 26 21  1  0  0  0
  9  5  2  0  0  0
 34 28  1  0  0  0
 39 40  1  0  0  0
  6 10  1  0  0  0
 32 35  1  0  0  0
M  END
> <minimizedAffinity>
-8.85262

> <CNNscore>
0.0822926983

> <CNNaffinity>
6.3271865845

> <CNN_VS>
0.5206812620

> <CNNaffinity_variance>
0.0368319862

$$$$
[H]OC([H])([H])/C([H])=C(\[H])c1nc(-c2c([H])c([H])c([Si](C([H])([H])[H])(C([H])([H])[H])C([H])([H])[H])c([H])c2[H])c2c([H])c(-c3c([H])c([H])c(C([H])([H])N4C([H])([H])C([H])([H])C([H])(O[H])C([H])([H])C4([H])[H])c([H])c3[H])n([H])c2n1


 40 44  0  0  0  0  0  0  0  0999 V2000
   39.0056   13.3259  -14.6692 C   0  0  0  0  0  0  0  0  0  0  0  0
   38.3114   12.5674  -15.5537 N   0  0  0  0  0  0  0  0  0  0  0  0
   36.9880   12.4467  -15.5845 C   0  0  0  0  0  0  0  0  0  0  0  0
   36.2980   13.1473  -14.6470 N   0  0  0  0  0  0  0  0  0  0  0  0
   36.8822   13.9240  -13.7295 C   0  0  0  0  0  0  0  0  0  0  0  0
   36.4372   14.6982  -12.7183 N   0  0  0  0  0  0  0  0  0  0  0  0
   37.4707   15.2776  -12.0854 C   0  0  0  0  0  0  0  0  0  0  0  0
   38.6211   14.8568  -12.7174 C   0  0  0  0  0  0  0  0  0  0  0  0
   38.2582   14.0184  -13.7362 C   0  0  0  0  0  0  0  0  0  0  0  0
   35.4080   14.7982  -12.4996 H   0  0  0  0  0  0  0  0  0  0  0  0
   43.2886   13.5951  -14.6762 C   0  0  0  0  0  0  0  0  0  0  0  0
   42.6204   12.9888  -15.7181 C   0  0  0  0  0  0  0  0  0  0  0  0
   41.2256   12.8816  -15.7489 C   0  0  0  0  0  0  0  0  0  0  0  0
   40.4689   13.3899  -14.7172 C   0  0  0  0  0  0  0  0  0  0  0  0
   41.1448   13.9949  -13.6782 C   0  0  0  0  0  0  0  0  0  0  0  0
   42.5209   14.1008  -13.6475 C   0  0  0  0  0  0  0  0  0  0  0  0
   45.8790   12.8798  -16.1367 C   0  0  0  0  0  0  0  0  0  0  0  0
   45.1292   13.7196  -14.6673 Si  0  0  0  0  0  0  0  0  0  0  0  0
   45.6279   15.5300  -14.6318 C   0  0  0  0  0  0  0  0  0  0  0  0
   45.8473   12.9291  -13.1241 C   0  0  0  0  0  0  0  0  0  0  0  0
   37.3533   16.1799  -10.9426 C   0  0  0  0  0  0  0  0  0  0  0  0
   38.4184   16.9425  -10.5120 C   0  0  0  0  0  0  0  0  0  0  0  0
   38.2811   17.7954   -9.4192 C   0  0  0  0  0  0  0  0  0  0  0  0
   37.0919   17.9150   -8.7278 C   0  0  0  0  0  0  0  0  0  0  0  0
   36.0221   17.1492   -9.1602 C   0  0  0  0  0  0  0  0  0  0  0  0
   36.1748   16.3123  -10.2407 C   0  0  0  0  0  0  0  0  0  0  0  0
   36.9208   18.8150   -7.5620 C   0  0  0  0  0  0  0  0  0  0  0  0
   37.9188   18.6257   -6.5628 N   0  0  0  0  0  0  0  0  0  0  0  0
   37.6472   19.2816   -5.3243 C   0  0  0  0  0  0  0  0  0  0  0  0
   36.7398   18.5241   -4.3977 C   0  0  0  0  0  0  0  0  0  0  0  0
   37.1531   17.0781   -4.2450 C   0  0  0  0  0  0  0  0  0  0  0  0
   38.2321   16.9603   -3.3619 O   0  0  0  0  0  0  0  0  0  0  0  0
   37.4500   16.4282   -5.5670 C   0  0  0  0  0  0  0  0  0  0  0  0
   38.3917   17.2913   -6.3896 C   0  0  0  0  0  0  0  0  0  0  0  0
   37.8931   17.0961   -2.4521 H   0  0  0  0  0  0  0  0  0  0  0  0
   36.2640   11.6294  -16.5379 C   0  0  0  0  0  0  0  0  0  0  0  0
   35.0026   11.3269  -16.3404 C   0  0  0  0  0  0  0  0  0  0  0  0
   34.1901   10.4934  -17.2715 C   0  0  0  0  0  0  0  0  0  0  0  0
   32.8632   10.8496  -17.1668 O   0  0  0  0  0  0  0  0  0  0  0  0
   32.7568   11.8396  -17.0134 H   0  0  0  0  0  0  0  0  0  0  0  0
 17 18  1  0  0  0
 18 19  1  0  0  0
 18 20  1  0  0  0
 18 11  1  0  0  0
 11 12  2  0  0  0
 12 13  1  0  0  0
 13 14  2  0  0  0
 14 15  1  0  0  0
 15 16  2  0  0  0
 14  1  1  0  0  0
  1  2  2  0  0  0
  2  3  1  0  0  0
  3 36  1  0  0  0
 36 37  2  0  0  0
 37 38  1  0  0  0
 38 39  1  0  0  0
  3  4  2  0  0  0
  4  5  1  0  0  0
  5  6  1  0  0  0
  6  7  1  0  0  0
  7  8  2  0  0  0
  8  9  1  0  0  0
  7 21  1  0  0  0
 21 22  2  0  0  0
 22 23  1  0  0  0
 23 24  2  0  0  0
 24 27  1  0  0  0
 27 28  1  0  0  0
 28 29  1  0  0  0
 29 30  1  0  0  0
 30 31  1  0  0  0
 31 32  1  0  0  0
 31 33  1  0  0  0
 33 34  1  0  0  0
 24 25  1  0  0  0
 25 26  2  0  0  0
 16 11  1  0  0  0
  9  1  1  0  0  0
 26 21  1  0  0  0
  9  5  2  0  0  0
 34 28  1  0  0  0
 39 40  1  0  0  0
  6 10  1  0  0  0
 32 35  1  0  0  0
M  END
> <minimizedAffinity>
-8.34330

> <CNNscore>
0.0805855244

> <CNNaffinity>
6.2663516998

> <CNN_VS>
0.5049772263

> <CNNaffinity_variance>
0.1215475574

$$$$
[H]OC([H])([H])/C([H])=C(\[H])c1nc(-c2c([H])c([H])c([Si](C([H])([H])[H])(C([H])([H])[H])C([H])([H])[H])c([H])c2[H])c2c([H])c(-c3c([H])c([H])c(C([H])([H])N4C([H])([H])C([H])([H])C([H])(O[H])C([H])([H])C4([H])[H])c([H])c3[H])n([H])c2n1


 40 44  0  0  0  0  0  0  0  0999 V2000
   42.1373   13.6277  -14.6183 C   0  0  0  0  0  0  0  0  0  0  0  0
   41.9649   12.9800  -15.7975 N   0  0  0  0  0  0  0  0  0  0  0  0
   40.7997   12.8121  -16.4147 C   0  0  0  0  0  0  0  0  0  0  0  0
   39.7103   13.3393  -15.7973 N   0  0  0  0  0  0  0  0  0  0  0  0
   39.7680   13.9959  -14.6344 C   0  0  0  0  0  0  0  0  0  0  0  0
   38.8603   14.5948  -13.8361 N   0  0  0  0  0  0  0  0  0  0  0  0
   39.4629   15.1160  -12.7546 C   0  0  0  0  0  0  0  0  0  0  0  0
   40.8085   14.8390  -12.8668 C   0  0  0  0  0  0  0  0  0  0  0  0
   40.9991   14.1453  -14.0308 C   0  0  0  0  0  0  0  0  0  0  0  0
   37.8316   14.6203  -14.0772 H   0  0  0  0  0  0  0  0  0  0  0  0
   45.9766   13.9408  -12.7265 C   0  0  0  0  0  0  0  0  0  0  0  0
   45.7757   14.4375  -13.9964 C   0  0  0  0  0  0  0  0  0  0  0  0
   44.5388   14.3519  -14.6446 C   0  0  0  0  0  0  0  0  0  0  0  0
   43.4675   13.7567  -14.0170 C   0  0  0  0  0  0  0  0  0  0  0  0
   43.6764   13.2619  -12.7467 C   0  0  0  0  0  0  0  0  0  0  0  0
   44.8968   13.3462  -12.1068 C   0  0  0  0  0  0  0  0  0  0  0  0
   47.8768   12.7130  -10.6682 C   0  0  0  0  0  0  0  0  0  0  0  0
   47.6211   14.0704  -11.9005 Si  0  0  0  0  0  0  0  0  0  0  0  0
   48.9739   14.0263  -13.2025 C   0  0  0  0  0  0  0  0  0  0  0  0
   47.7909   15.7068  -10.9976 C   0  0  0  0  0  0  0  0  0  0  0  0
   38.7811   15.8354  -11.6815 C   0  0  0  0  0  0  0  0  0  0  0  0
   39.4809   16.5565  -10.7372 C   0  0  0  0  0  0  0  0  0  0  0  0
   38.8074   17.2340   -9.7233 C   0  0  0  0  0  0  0  0  0  0  0  0
   37.4307   17.2152   -9.6183 C   0  0  0  0  0  0  0  0  0  0  0  0
   36.7279   16.4910  -10.5668 C   0  0  0  0  0  0  0  0  0  0  0  0
   37.4084   15.8281  -11.5610 C   0  0  0  0  0  0  0  0  0  0  0  0
   36.6911   17.9274   -8.5487 C   0  0  0  0  0  0  0  0  0  0  0  0
   37.0479   17.4899   -7.2406 N   0  0  0  0  0  0  0  0  0  0  0  0
   36.7298   18.4146   -6.2006 C   0  0  0  0  0  0  0  0  0  0  0  0
   35.3115   18.3468   -5.7113 C   0  0  0  0  0  0  0  0  0  0  0  0
   34.8709   16.9296   -5.4239 C   0  0  0  0  0  0  0  0  0  0  0  0
   35.3678   16.4953   -4.1901 O   0  0  0  0  0  0  0  0  0  0  0  0
   35.2408   15.9828   -6.5307 C   0  0  0  0  0  0  0  0  0  0  0  0
   36.7031   16.1460   -6.9098 C   0  0  0  0  0  0  0  0  0  0  0  0
   34.8513   16.9383   -3.4843 H   0  0  0  0  0  0  0  0  0  0  0  0
   40.6356   12.1152  -17.6750 C   0  0  0  0  0  0  0  0  0  0  0  0
   39.5134   11.4972  -17.9585 C   0  0  0  0  0  0  0  0  0  0  0  0
   39.2668   10.7596  -19.2301 C   0  0  0  0  0  0  0  0  0  0  0  0
   39.6382   11.5481  -20.2973 O   0  0  0  0  0  0  0  0  0  0  0  0
   40.4524   12.1014  -20.0829 H   0  0  0  0  0  0  0  0  0  0  0  0
 17 18  1  0  0  0
 18 19  1  0  0  0
 18 20  1  0  0  0
 18 11  1  0  0  0
 11 12  2  0  0  0
 12 13  1  0  0  0
 13 14  2  0  0  0
 14 15  1  0  0  0
 15 16  2  0  0  0
 14  1  1  0  0  0
  1  2  2  0  0  0
  2  3  1  0  0  0
  3 36  1  0  0  0
 36 37  2  0  0  0
 37 38  1  0  0  0
 38 39  1  0  0  0
  3  4  2  0  0  0
  4  5  1  0  0  0
  5  6  1  0  0  0
  6  7  1  0  0  0
  7  8  2  0  0  0
  8  9  1  0  0  0
  7 21  1  0  0  0
 21 22  2  0  0  0
 22 23  1  0  0  0
 23 24  2  0  0  0
 24 27  1  0  0  0
 27 28  1  0  0  0
 28 29  1  0  0  0
 29 30  1  0  0  0
 30 31  1  0  0  0
 31 32  1  0  0  0
 31 33  1  0  0  0
 33 34  1  0  0  0
 24 25  1  0  0  0
 25 26  2  0  0  0
 16 11  1  0  0  0
  9  1  1  0  0  0
 26 21  1  0  0  0
  9  5  2  0  0  0
 34 28  1  0  0  0
 39 40  1  0  0  0
  6 10  1  0  0  0
 32 35  1  0  0  0
M  END
> <minimizedAffinity>
-7.58891

> <CNNscore>
0.0692393109

> <CNNaffinity>
5.8729519844

> <CNN_VS>
0.4066391587

> <CNNaffinity_variance>
0.1888001412

$$$$
[H]OC([H])([H])/C([H])=C(\[H])c1nc(-c2c([H])c([H])c([Si](C([H])([H])[H])(C([H])([H])[H])C([H])([H])[H])c([H])c2[H])c2c([H])c(-c3c([H])c([H])c(C([H])([H])N4C([H])([H])C([H])([H])C([H])(O[H])C([H])([H])C4([H])[H])c([H])c3[H])n([H])c2n1


 40 44  0  0  0  0  0  0  0  0999 V2000
   39.6220   13.7634  -14.1633 C   0  0  0  0  0  0  0  0  0  0  0  0
   39.6448   13.0035  -15.2865 N   0  0  0  0  0  0  0  0  0  0  0  0
   38.5943   12.3783  -15.8085 C   0  0  0  0  0  0  0  0  0  0  0  0
   37.4165   12.5268  -15.1481 N   0  0  0  0  0  0  0  0  0  0  0  0
   37.2829   13.2524  -14.0334 C   0  0  0  0  0  0  0  0  0  0  0  0
   36.2559   13.5477  -13.2100 N   0  0  0  0  0  0  0  0  0  0  0  0
   36.6750   14.3368  -12.2070 C   0  0  0  0  0  0  0  0  0  0  0  0
   38.0228   14.5540  -12.3974 C   0  0  0  0  0  0  0  0  0  0  0  0
   38.4008   13.8830  -13.5286 C   0  0  0  0  0  0  0  0  0  0  0  0
   35.2788   13.1819  -13.3787 H   0  0  0  0  0  0  0  0  0  0  0  0
   43.2704   15.5379  -12.7641 C   0  0  0  0  0  0  0  0  0  0  0  0
   42.0550   16.1364  -12.5108 C   0  0  0  0  0  0  0  0  0  0  0  0
   40.8460   15.5877  -12.9524 C   0  0  0  0  0  0  0  0  0  0  0  0
   40.8395   14.4105  -13.6666 C   0  0  0  0  0  0  0  0  0  0  0  0
   42.0596   13.8178  -13.9161 C   0  0  0  0  0  0  0  0  0  0  0  0
   43.2526   14.3590  -13.4805 C   0  0  0  0  0  0  0  0  0  0  0  0
   45.3777   17.7041  -13.2347 C   0  0  0  0  0  0  0  0  0  0  0  0
   44.8462   16.2885  -12.1669 Si  0  0  0  0  0  0  0  0  0  0  0  0
   44.6257   16.8631  -10.3925 C   0  0  0  0  0  0  0  0  0  0  0  0
   46.2313   15.0222  -12.1586 C   0  0  0  0  0  0  0  0  0  0  0  0
   35.8266   14.8477  -11.1331 C   0  0  0  0  0  0  0  0  0  0  0  0
   36.2523   14.8633   -9.8217 C   0  0  0  0  0  0  0  0  0  0  0  0
   35.4242   15.3555   -8.8155 C   0  0  0  0  0  0  0  0  0  0  0  0
   34.1595   15.8424   -9.0800 C   0  0  0  0  0  0  0  0  0  0  0  0
   33.7318   15.8267  -10.3971 C   0  0  0  0  0  0  0  0  0  0  0  0
   34.5620   15.3373  -11.3781 C   0  0  0  0  0  0  0  0  0  0  0  0
   33.2594   16.3709   -8.0269 C   0  0  0  0  0  0  0  0  0  0  0  0
   33.9494   16.7208   -6.8305 N   0  0  0  0  0  0  0  0  0  0  0  0
   34.0823   18.1256   -6.6139 C   0  0  0  0  0  0  0  0  0  0  0  0
   32.8882   18.7794   -5.9797 C   0  0  0  0  0  0  0  0  0  0  0  0
   32.3927   18.0195   -4.7706 C   0  0  0  0  0  0  0  0  0  0  0  0
   33.1922   18.2868   -3.6537 O   0  0  0  0  0  0  0  0  0  0  0  0
   32.2854   16.5433   -5.0305 C   0  0  0  0  0  0  0  0  0  0  0  0
   33.5664   16.0137   -5.6525 C   0  0  0  0  0  0  0  0  0  0  0  0
   32.9768   19.1896   -3.3379 H   0  0  0  0  0  0  0  0  0  0  0  0
   38.6393   11.5690  -17.0102 C   0  0  0  0  0  0  0  0  0  0  0  0
   39.6785   11.6131  -17.8100 C   0  0  0  0  0  0  0  0  0  0  0  0
   39.8007   10.8135  -19.0621 C   0  0  0  0  0  0  0  0  0  0  0  0
   39.6789   11.6471  -20.1524 O   0  0  0  0  0  0  0  0  0  0  0  0
   40.1016   12.5453  -19.9806 H   0  0  0  0  0  0  0  0  0  0  0  0
 17 18  1  0  0  0
 18 19  1  0  0  0
 18 20  1  0  0  0
 18 11  1  0  0  0
 11 12  2  0  0  0
 12 13  1  0  0  0
 13 14  2  0  0  0
 14 15  1  0  0  0
 15 16  2  0  0  0
 14  1  1  0  0  0
  1  2  2  0  0  0
  2  3  1  0  0  0
  3 36  1  0  0  0
 36 37  2  0  0  0
 37 38  1  0  0  0
 38 39  1  0  0  0
  3  4  2  0  0  0
  4  5  1  0  0  0
  5  6  1  0  0  0
  6  7  1  0  0  0
  7  8  2  0  0  0
  8  9  1  0  0  0
  7 21  1  0  0  0
 21 22  2  0  0  0
 22 23  1  0  0  0
 23 24  2  0  0  0
 24 27  1  0  0  0
 27 28  1  0  0  0
 28 29  1  0  0  0
 29 30  1  0  0  0
 30 31  1  0  0  0
 31 32  1  0  0  0
 31 33  1  0  0  0
 33 34  1  0  0  0
 24 25  1  0  0  0
 25 26  2  0  0  0
 16 11  1  0  0  0
  9  1  1  0  0  0
 26 21  1  0  0  0
  9  5  2  0  0  0
 34 28  1  0  0  0
 39 40  1  0  0  0
  6 10  1  0  0  0
 32 35  1  0  0  0
M  END
> <minimizedAffinity>
-8.56145

> <CNNscore>
0.0688404441

> <CNNaffinity>
6.0477585793

> <CNN_VS>
0.4163303971

> <CNNaffinity_variance>
0.2217576057

$$$$
[H]OC([H])([H])/C([H])=C(\[H])c1nc(-c2c([H])c([H])c([Si](C([H])([H])[H])(C([H])([H])[H])C([H])([H])[H])c([H])c2[H])c2c([H])c(-c3c([H])c([H])c(C([H])([H])N4C([H])([H])C([H])([H])C([H])(O[H])C([H])([H])C4([H])[H])c([H])c3[H])n([H])c2n1


 40 44  0  0  0  0  0  0  0  0999 V2000
   36.5881   14.2351  -12.6950 C   0  0  0  0  0  0  0  0  0  0  0  0
   35.4728   13.7181  -13.2681 N   0  0  0  0  0  0  0  0  0  0  0  0
   35.4511   12.9924  -14.3815 C   0  0  0  0  0  0  0  0  0  0  0  0
   36.6521   12.7636  -14.9740 N   0  0  0  0  0  0  0  0  0  0  0  0
   37.8107   13.2260  -14.4939 C   0  0  0  0  0  0  0  0  0  0  0  0
   39.0999   13.1439  -14.8826 N   0  0  0  0  0  0  0  0  0  0  0  0
   39.8892   13.8075  -14.0217 C   0  0  0  0  0  0  0  0  0  0  0  0
   39.0718   14.3340  -13.0448 C   0  0  0  0  0  0  0  0  0  0  0  0
   37.7839   13.9745  -13.3358 C   0  0  0  0  0  0  0  0  0  0  0  0
   39.3913   12.6178  -15.7517 H   0  0  0  0  0  0  0  0  0  0  0  0
   36.3863   16.6800   -9.1738 C   0  0  0  0  0  0  0  0  0  0  0  0
   36.1673   15.3212   -9.1000 C   0  0  0  0  0  0  0  0  0  0  0  0
   36.2234   14.4936  -10.2267 C   0  0  0  0  0  0  0  0  0  0  0  0
   36.5051   15.0267  -11.4645 C   0  0  0  0  0  0  0  0  0  0  0  0
   36.7229   16.3871  -11.5303 C   0  0  0  0  0  0  0  0  0  0  0  0
   36.6675   17.2039  -10.4188 C   0  0  0  0  0  0  0  0  0  0  0  0
   34.5656   17.9462   -7.0675 C   0  0  0  0  0  0  0  0  0  0  0  0
   36.3048   17.7426   -7.6679 Si  0  0  0  0  0  0  0  0  0  0  0  0
   37.3716   16.9885   -6.3187 C   0  0  0  0  0  0  0  0  0  0  0  0
   36.9976   19.4519   -8.0150 C   0  0  0  0  0  0  0  0  0  0  0  0
   41.3408   13.9251  -14.1368 C   0  0  0  0  0  0  0  0  0  0  0  0
   42.0838   14.6294  -13.2131 C   0  0  0  0  0  0  0  0  0  0  0  0
   43.4671   14.7272  -13.3451 C   0  0  0  0  0  0  0  0  0  0  0  0
   44.1473   14.1333  -14.3897 C   0  0  0  0  0  0  0  0  0  0  0  0
   43.4011   13.4259  -15.3174 C   0  0  0  0  0  0  0  0  0  0  0  0
   42.0364   13.3394  -15.1721 C   0  0  0  0  0  0  0  0  0  0  0  0
   45.6183   14.2232  -14.5523 C   0  0  0  0  0  0  0  0  0  0  0  0
   46.2392   12.9500  -14.7053 N   0  0  0  0  0  0  0  0  0  0  0  0
   47.4787   12.9779  -15.4129 C   0  0  0  0  0  0  0  0  0  0  0  0
   48.6734   13.3311  -14.5741 C   0  0  0  0  0  0  0  0  0  0  0  0
   48.7235   12.5420  -13.2858 C   0  0  0  0  0  0  0  0  0  0  0  0
   49.2062   11.2485  -13.5138 O   0  0  0  0  0  0  0  0  0  0  0  0
   47.3968   12.5184  -12.5806 C   0  0  0  0  0  0  0  0  0  0  0  0
   46.2859   12.1278  -13.5407 C   0  0  0  0  0  0  0  0  0  0  0  0
   50.1726   11.3100  -13.6670 H   0  0  0  0  0  0  0  0  0  0  0  0
   34.2476   12.4492  -14.9796 C   0  0  0  0  0  0  0  0  0  0  0  0
   34.2904   11.3469  -15.6901 C   0  0  0  0  0  0  0  0  0  0  0  0
   33.0995   10.7257  -16.3365 C   0  0  0  0  0  0  0  0  0  0  0  0
   33.1552   10.9346  -17.6973 O   0  0  0  0  0  0  0  0  0  0  0  0
   34.1019   10.8948  -18.0395 H   0  0  0  0  0  0  0  0  0  0  0  0
 17 18  1  0  0  0
 18 19  1  0  0  0
 18 20  1  0  0  0
 18 11  1  0  0  0
 11 12  2  0  0  0
 12 13  1  0  0  0
 13 14  2  0  0  0
 14 15  1  0  0  0
 15 16  2  0  0  0
 14  1  1  0  0  0
  1  2  2  0  0  0
  2  3  1  0  0  0
  3 36  1  0  0  0
 36 37  2  0  0  0
 37 38  1  0  0  0
 38 39  1  0  0  0
  3  4  2  0  0  0
  4  5  1  0  0  0
  5  6  1  0  0  0
  6  7  1  0  0  0
  7  8  2  0  0  0
  8  9  1  0  0  0
  7 21  1  0  0  0
 21 22  2  0  0  0
 22 23  1  0  0  0
 23 24  2  0  0  0
 24 27  1  0  0  0
 27 28  1  0  0  0
 28 29  1  0  0  0
 29 30  1  0  0  0
 30 31  1  0  0  0
 31 32  1  0  0  0
 31 33  1  0  0  0
 33 34  1  0  0  0
 24 25  1  0  0  0
 25 26  2  0  0  0
 16 11  1  0  0  0
  9  1  1  0  0  0
 26 21  1  0  0  0
  9  5  2  0  0  0
 34 28  1  0  0  0
 39 40  1  0  0  0
  6 10  1  0  0  0
 32 35  1  0  0  0
M  END
> <minimizedAffinity>
-7.74732

> <CNNscore>
0.0665120408

> <CNNaffinity>
6.3268709183

> <CNN_VS>
0.4208130836

> <CNNaffinity_variance>
0.0842852369

$$$$
[H]OC([H])([H])[C@@]1(O[H])C([H])([H])[C@@]2([H])O[C@]1(C([H])([H])[H])n1c3c([H])c([H])c([H])c([H])c3c3c4c(c5c6c([H])c([H])c([H])c([H])c6n2c5c31)C(=O)N([H])C4([H])[H]


 36 43  0  0  0  0  0  0  0  0999 V2000
   35.5672   12.6524  -12.3372 C   0  0  0  0  0  0  0  0  0  0  0  0
   36.5228   13.1987  -13.3420 C   0  0  0  0  0  0  0  0  0  0  0  0
   37.7590   12.9025  -12.7039 O   0  0  0  0  0  0  0  0  0  0  0  0
   38.6875   13.8221  -13.0535 C   0  0  0  0  0  0  0  0  0  0  0  0
   37.9911   15.0999  -13.2528 C   0  0  0  0  0  0  0  0  0  0  0  0
   36.5430   14.6966  -13.4214 C   0  0  0  0  0  0  0  0  0  0  0  0
   36.1367   15.1823  -14.6552 O   0  0  0  0  0  0  0  0  0  0  0  0
   39.4591   13.3645  -14.2165 N   0  0  0  0  0  0  0  0  0  0  0  0
   40.7487   13.5035  -14.4713 C   0  0  0  0  0  0  0  0  0  0  0  0
   41.7091   14.1196  -13.7115 C   0  0  0  0  0  0  0  0  0  0  0  0
   43.0139   14.1417  -14.1885 C   0  0  0  0  0  0  0  0  0  0  0  0
   43.3320   13.5613  -15.3895 C   0  0  0  0  0  0  0  0  0  0  0  0
   42.3532   12.9313  -16.1676 C   0  0  0  0  0  0  0  0  0  0  0  0
   41.0751   12.9155  -15.6896 C   0  0  0  0  0  0  0  0  0  0  0  0
   39.8970   12.3990  -16.1794 C   0  0  0  0  0  0  0  0  0  0  0  0
   39.5575   11.7186  -17.3346 C   0  0  0  0  0  0  0  0  0  0  0  0
   40.2900   11.2483  -18.4965 C   0  0  0  0  0  0  0  0  0  0  0  0
   41.4846   11.3368  -18.7847 O   0  0  0  0  0  0  0  0  0  0  0  0
   39.3518   10.5983  -19.3598 N   0  0  0  0  0  0  0  0  0  0  0  0
   38.0253   10.6399  -18.7940 C   0  0  0  0  0  0  0  0  0  0  0  0
   38.2352   11.3563  -17.5121 C   0  0  0  0  0  0  0  0  0  0  0  0
   37.2524   11.6525  -16.5740 C   0  0  0  0  0  0  0  0  0  0  0  0
   35.9114   11.4485  -16.4858 C   0  0  0  0  0  0  0  0  0  0  0  0
   35.0458   10.8366  -17.3628 C   0  0  0  0  0  0  0  0  0  0  0  0
   33.6868   10.7733  -17.0412 C   0  0  0  0  0  0  0  0  0  0  0  0
   33.2597   11.3304  -15.8492 C   0  0  0  0  0  0  0  0  0  0  0  0
   34.1506   11.9408  -14.9834 C   0  0  0  0  0  0  0  0  0  0  0  0
   35.4906   12.0130  -15.2790 C   0  0  0  0  0  0  0  0  0  0  0  0
   36.5521   12.5558  -14.6246 N   0  0  0  0  0  0  0  0  0  0  0  0
   37.6232   12.3183  -15.4546 C   0  0  0  0  0  0  0  0  0  0  0  0
   38.9307   12.6971  -15.2429 C   0  0  0  0  0  0  0  0  0  0  0  0
   35.7714   16.0903  -14.5244 H   0  0  0  0  0  0  0  0  0  0  0  0
   39.5591   10.1403  -20.2883 H   0  0  0  0  0  0  0  0  0  0  0  0
   35.7448   15.3705  -12.3573 C   0  0  0  0  0  0  0  0  0  0  0  0
   36.2284   16.6701  -12.2022 O   0  0  0  0  0  0  0  0  0  0  0  0
   36.7090   16.7988  -11.3453 H   0  0  0  0  0  0  0  0  0  0  0  0
  2  1  1  0  0  0
  2  3  1  0  0  0
  3  4  1  0  0  0
  4  5  1  0  0  0
  5  6  1  0  0  0
  6  7  1  0  0  0
  6 34  1  0  0  0
 34 35  1  0  0  0
  4  8  1  0  0  0
  8  9  1  0  0  0
  9 10  2  0  0  0
 10 11  1  0  0  0
 11 12  2  0  0  0
 12 13  1  0  0  0
 13 14  2  0  0  0
 14 15  1  0  0  0
 15 16  2  0  0  0
 16 17  1  0  0  0
 17 18  2  0  0  0
 17 19  1  0  0  0
 19 20  1  0  0  0
 20 21  1  0  0  0
 21 22  2  0  0  0
 22 23  1  0  0  0
 23 24  2  0  0  0
 24 25  1  0  0  0
 25 26  2  0  0  0
 26 27  1  0  0  0
 27 28  2  0  0  0
 28 29  1  0  0  0
 29 30  1  0  0  0
 30 31  2  0  0  0
  6  2  1  0  0  0
 31  8  1  0  0  0
 29  2  1  0  0  0
 14  9  1  0  0  0
 31 15  1  0  0  0
 21 16  1  0  0  0
 30 22  1  0  0  0
 28 23  1  0  0  0
  7 32  1  0  0  0
 35 36  1  0  0  0
 19 33  1  0  0  0
M  END
> <minimizedAffinity>
-13.52958

> <CNNscore>
0.9700492024

> <CNNaffinity>
7.5617651939

> <CNN_VS>
7.3352842331

> <CNNaffinity_variance>
0.0875248611

$$$$
[H]OC([H])([H])[C@@]1(O[H])C([H])([H])[C@@]2([H])O[C@]1(C([H])([H])[H])n1c3c([H])c([H])c([H])c([H])c3c3c4c(c5c6c([H])c([H])c([H])c([H])c6n2c5c31)C(=O)N([H])C4([H])[H]


 36 43  0  0  0  0  0  0  0  0999 V2000
   36.9422   16.8519  -11.5709 C   0  0  0  0  0  0  0  0  0  0  0  0
   36.9761   15.4391  -12.0442 C   0  0  0  0  0  0  0  0  0  0  0  0
   35.9112   15.4615  -12.9868 O   0  0  0  0  0  0  0  0  0  0  0  0
   35.3358   14.2392  -13.0578 C   0  0  0  0  0  0  0  0  0  0  0  0
   35.4259   13.6299  -11.7243 C   0  0  0  0  0  0  0  0  0  0  0  0
   36.5000   14.4393  -11.0321 C   0  0  0  0  0  0  0  0  0  0  0  0
   37.4856   13.5433  -10.6461 O   0  0  0  0  0  0  0  0  0  0  0  0
   35.9429   13.4413  -14.1311 N   0  0  0  0  0  0  0  0  0  0  0  0
   35.3686   12.6037  -14.9773 C   0  0  0  0  0  0  0  0  0  0  0  0
   34.0459   12.2561  -15.0715 C   0  0  0  0  0  0  0  0  0  0  0  0
   33.6715   11.3450  -16.0514 C   0  0  0  0  0  0  0  0  0  0  0  0
   34.6027   10.8076  -16.9027 C   0  0  0  0  0  0  0  0  0  0  0  0
   35.9543   11.1609  -16.8088 C   0  0  0  0  0  0  0  0  0  0  0  0
   36.3109   12.0564  -15.8428 C   0  0  0  0  0  0  0  0  0  0  0  0
   37.5164   12.6111  -15.4773 C   0  0  0  0  0  0  0  0  0  0  0  0
   38.8140   12.4662  -15.9332 C   0  0  0  0  0  0  0  0  0  0  0  0
   39.4466   11.6948  -16.9880 C   0  0  0  0  0  0  0  0  0  0  0  0
   38.9678   10.9113  -17.8096 O   0  0  0  0  0  0  0  0  0  0  0  0
   40.8467   11.9883  -16.9524 N   0  0  0  0  0  0  0  0  0  0  0  0
   41.1440   12.9253  -15.8963 C   0  0  0  0  0  0  0  0  0  0  0  0
   39.8105   13.1867  -15.3014 C   0  0  0  0  0  0  0  0  0  0  0  0
   39.5468   14.0409  -14.2364 C   0  0  0  0  0  0  0  0  0  0  0  0
   40.2980   14.8380  -13.4313 C   0  0  0  0  0  0  0  0  0  0  0  0
   41.6548   15.0658  -13.4221 C   0  0  0  0  0  0  0  0  0  0  0  0
   42.1909   15.9296  -12.4626 C   0  0  0  0  0  0  0  0  0  0  0  0
   41.3353   16.5258  -11.5536 C   0  0  0  0  0  0  0  0  0  0  0  0
   39.9735   16.2803  -11.5835 C   0  0  0  0  0  0  0  0  0  0  0  0
   39.4252   15.4359  -12.5187 C   0  0  0  0  0  0  0  0  0  0  0  0
   38.1513   15.0217  -12.7540 N   0  0  0  0  0  0  0  0  0  0  0  0
   38.2638   14.1583  -13.8190 C   0  0  0  0  0  0  0  0  0  0  0  0
   37.2441   13.4557  -14.4227 C   0  0  0  0  0  0  0  0  0  0  0  0
   37.2723   13.2226   -9.7369 H   0  0  0  0  0  0  0  0  0  0  0  0
   41.5913   11.5964  -17.5902 H   0  0  0  0  0  0  0  0  0  0  0  0
   35.9064   15.0514   -9.8087 C   0  0  0  0  0  0  0  0  0  0  0  0
   35.7403   14.0489   -8.8526 O   0  0  0  0  0  0  0  0  0  0  0  0
   34.7880   13.8224   -8.6986 H   0  0  0  0  0  0  0  0  0  0  0  0
  2  1  1  0  0  0
  2  3  1  0  0  0
  3  4  1  0  0  0
  4  5  1  0  0  0
  5  6  1  0  0  0
  6  7  1  0  0  0
  6 34  1  0  0  0
 34 35  1  0  0  0
  4  8  1  0  0  0
  8  9  1  0  0  0
  9 10  2  0  0  0
 10 11  1  0  0  0
 11 12  2  0  0  0
 12 13  1  0  0  0
 13 14  2  0  0  0
 14 15  1  0  0  0
 15 16  2  0  0  0
 16 17  1  0  0  0
 17 18  2  0  0  0
 17 19  1  0  0  0
 19 20  1  0  0  0
 20 21  1  0  0  0
 21 22  2  0  0  0
 22 23  1  0  0  0
 23 24  2  0  0  0
 24 25  1  0  0  0
 25 26  2  0  0  0
 26 27  1  0  0  0
 27 28  2  0  0  0
 28 29  1  0  0  0
 29 30  1  0  0  0
 30 31  2  0  0  0
  6  2  1  0  0  0
 31  8  1  0  0  0
 29  2  1  0  0  0
 14  9  1  0  0  0
 31 15  1  0  0  0
 21 16  1  0  0  0
 30 22  1  0  0  0
 28 23  1  0  0  0
  7 32  1  0  0  0
 35 36  1  0  0  0
 19 33  1  0  0  0
M  END
> <minimizedAffinity>
-11.27583

> <CNNscore>
0.5484931469

> <CNNaffinity>
6.7071733475

> <CNN_VS>
3.6788387299

> <CNNaffinity_variance>
0.0609079190

$$$$
[H]OC([H])([H])[C@@]1(O[H])C([H])([H])[C@@]2([H])O[C@]1(C([H])([H])[H])n1c3c([H])c([H])c([H])c([H])c3c3c4c(c5c6c([H])c([H])c([H])c([H])c6n2c5c31)C(=O)N([H])C4([H])[H]


 36 43  0  0  0  0  0  0  0  0999 V2000
   35.2944   12.0957  -13.1172 C   0  0  0  0  0  0  0  0  0  0  0  0
   36.3208   13.0974  -13.5225 C   0  0  0  0  0  0  0  0  0  0  0  0
   37.0648   13.2015  -12.3148 O   0  0  0  0  0  0  0  0  0  0  0  0
   37.5926   14.4424  -12.2067 C   0  0  0  0  0  0  0  0  0  0  0  0
   36.6552   15.3784  -12.8414 C   0  0  0  0  0  0  0  0  0  0  0  0
   35.7867   14.4878  -13.7020 C   0  0  0  0  0  0  0  0  0  0  0  0
   35.9064   14.9537  -15.0027 O   0  0  0  0  0  0  0  0  0  0  0  0
   38.9526   14.4781  -12.7600 N   0  0  0  0  0  0  0  0  0  0  0  0
   40.0173   15.1267  -12.3205 C   0  0  0  0  0  0  0  0  0  0  0  0
   40.1288   15.9452  -11.2265 C   0  0  0  0  0  0  0  0  0  0  0  0
   41.3633   16.5239  -10.9587 C   0  0  0  0  0  0  0  0  0  0  0  0
   42.4425   16.2817  -11.7694 C   0  0  0  0  0  0  0  0  0  0  0  0
   42.3316   15.4462  -12.8874 C   0  0  0  0  0  0  0  0  0  0  0  0
   41.1146   14.8831  -13.1409 C   0  0  0  0  0  0  0  0  0  0  0  0
   40.6602   14.0359  -14.1260 C   0  0  0  0  0  0  0  0  0  0  0  0
   41.2506   13.4481  -15.2299 C   0  0  0  0  0  0  0  0  0  0  0  0
   42.5851   13.4571  -15.8016 C   0  0  0  0  0  0  0  0  0  0  0  0
   43.6134   14.0286  -15.4355 O   0  0  0  0  0  0  0  0  0  0  0  0
   42.5562   12.6307  -16.9695 N   0  0  0  0  0  0  0  0  0  0  0  0
   41.2351   12.0895  -17.1780 C   0  0  0  0  0  0  0  0  0  0  0  0
   40.4671   12.6436  -16.0363 C   0  0  0  0  0  0  0  0  0  0  0  0
   39.1218   12.4125  -15.7706 C   0  0  0  0  0  0  0  0  0  0  0  0
   38.1275   11.7084  -16.3733 C   0  0  0  0  0  0  0  0  0  0  0  0
   38.1463   10.9460  -17.5184 C   0  0  0  0  0  0  0  0  0  0  0  0
   36.9648   10.3311  -17.9432 C   0  0  0  0  0  0  0  0  0  0  0  0
   35.8156   10.5123  -17.1948 C   0  0  0  0  0  0  0  0  0  0  0  0
   35.8225   11.2843  -16.0461 C   0  0  0  0  0  0  0  0  0  0  0  0
   36.9727   11.8966  -15.6096 C   0  0  0  0  0  0  0  0  0  0  0  0
   37.2439   12.7008  -14.5470 N   0  0  0  0  0  0  0  0  0  0  0  0
   38.5793   13.0037  -14.6797 C   0  0  0  0  0  0  0  0  0  0  0  0
   39.3278   13.8128  -13.8533 C   0  0  0  0  0  0  0  0  0  0  0  0
   35.2023   15.6290  -15.1547 H   0  0  0  0  0  0  0  0  0  0  0  0
   43.3646   12.4204  -17.6154 H   0  0  0  0  0  0  0  0  0  0  0  0
   34.3710   14.6542  -13.2643 C   0  0  0  0  0  0  0  0  0  0  0  0
   33.5627   14.7011  -14.4006 O   0  0  0  0  0  0  0  0  0  0  0  0
   33.1840   15.6024  -14.5627 H   0  0  0  0  0  0  0  0  0  0  0  0
  2  1  1  0  0  0
  2  3  1  0  0  0
  3  4  1  0  0  0
  4  5  1  0  0  0
  5  6  1  0  0  0
  6  7  1  0  0  0
  6 34  1  0  0  0
 34 35  1  0  0  0
  4  8  1  0  0  0
  8  9  1  0  0  0
  9 10  2  0  0  0
 10 11  1  0  0  0
 11 12  2  0  0  0
 12 13  1  0  0  0
 13 14  2  0  0  0
 14 15  1  0  0  0
 15 16  2  0  0  0
 16 17  1  0  0  0
 17 18  2  0  0  0
 17 19  1  0  0  0
 19 20  1  0  0  0
 20 21  1  0  0  0
 21 22  2  0  0  0
 22 23  1  0  0  0
 23 24  2  0  0  0
 24 25  1  0  0  0
 25 26  2  0  0  0
 26 27  1  0  0  0
 27 28  2  0  0  0
 28 29  1  0  0  0
 29 30  1  0  0  0
 30 31  2  0  0  0
  6  2  1  0  0  0
 31  8  1  0  0  0
 29  2  1  0  0  0
 14  9  1  0  0  0
 31 15  1  0  0  0
 21 16  1  0  0  0
 30 22  1  0  0  0
 28 23  1  0  0  0
  7 32  1  0  0  0
 35 36  1  0  0  0
 19 33  1  0  0  0
M  END
> <minimizedAffinity>
-12.18900

> <CNNscore>
0.4270305932

> <CNNaffinity>
6.7820701599

> <CNN_VS>
2.8961515427

> <CNNaffinity_variance>
0.0852743238

$$$$
[H]OC([H])([H])[C@@]1(O[H])C([H])([H])[C@@]2([H])O[C@]1(C([H])([H])[H])n1c3c([H])c([H])c([H])c([H])c3c3c4c(c5c6c([H])c([H])c([H])c([H])c6n2c5c31)C(=O)N([H])C4([H])[H]


 36 43  0  0  0  0  0  0  0  0999 V2000
   39.2991   14.4663  -11.0883 C   0  0  0  0  0  0  0  0  0  0  0  0
   38.8683   14.4014  -12.5136 C   0  0  0  0  0  0  0  0  0  0  0  0
   39.5132   13.2004  -12.9193 O   0  0  0  0  0  0  0  0  0  0  0  0
   39.8177   13.2655  -14.2358 C   0  0  0  0  0  0  0  0  0  0  0  0
   40.1133   14.6690  -14.5524 C   0  0  0  0  0  0  0  0  0  0  0  0
   39.5057   15.4329  -13.3969 C   0  0  0  0  0  0  0  0  0  0  0  0
   38.5920   16.3208  -13.9447 O   0  0  0  0  0  0  0  0  0  0  0  0
   38.7451   12.6742  -15.0465 N   0  0  0  0  0  0  0  0  0  0  0  0
   38.8335   11.9324  -16.1370 C   0  0  0  0  0  0  0  0  0  0  0  0
   39.9591   11.5216  -16.8030 C   0  0  0  0  0  0  0  0  0  0  0  0
   39.8038   10.7382  -17.9400 C   0  0  0  0  0  0  0  0  0  0  0  0
   38.5553   10.3853  -18.3840 C   0  0  0  0  0  0  0  0  0  0  0  0
   37.4039   10.8034  -17.7058 C   0  0  0  0  0  0  0  0  0  0  0  0
   37.5680   11.5724  -16.5904 C   0  0  0  0  0  0  0  0  0  0  0  0
   36.6811   12.1427  -15.7057 C   0  0  0  0  0  0  0  0  0  0  0  0
   35.3013   12.1667  -15.6157 C   0  0  0  0  0  0  0  0  0  0  0  0
   34.2162   11.5935  -16.3915 C   0  0  0  0  0  0  0  0  0  0  0  0
   34.2343   10.8903  -17.4030 O   0  0  0  0  0  0  0  0  0  0  0  0
   32.9896   11.9886  -15.7692 N   0  0  0  0  0  0  0  0  0  0  0  0
   33.2473   12.8111  -14.6122 C   0  0  0  0  0  0  0  0  0  0  0  0
   34.7289   12.8735  -14.5745 C   0  0  0  0  0  0  0  0  0  0  0  0
   35.4920   13.5502  -13.6293 C   0  0  0  0  0  0  0  0  0  0  0  0
   35.2196   14.3198  -12.5425 C   0  0  0  0  0  0  0  0  0  0  0  0
   34.0127   14.6938  -11.9980 C   0  0  0  0  0  0  0  0  0  0  0  0
   34.0043   15.5209  -10.8710 C   0  0  0  0  0  0  0  0  0  0  0  0
   35.2136   15.9353  -10.3423 C   0  0  0  0  0  0  0  0  0  0  0  0
   36.4148   15.5453  -10.9085 C   0  0  0  0  0  0  0  0  0  0  0  0
   36.4464   14.7317  -12.0155 C   0  0  0  0  0  0  0  0  0  0  0  0
   37.4657   14.2238  -12.7589 N   0  0  0  0  0  0  0  0  0  0  0  0
   36.8401   13.5024  -13.7492 C   0  0  0  0  0  0  0  0  0  0  0  0
   37.4468   12.8095  -14.7737 C   0  0  0  0  0  0  0  0  0  0  0  0
   39.0616   17.1680  -14.1361 H   0  0  0  0  0  0  0  0  0  0  0  0
   32.0128   11.7361  -16.0804 H   0  0  0  0  0  0  0  0  0  0  0  0
   40.5894   16.2129  -12.7329 C   0  0  0  0  0  0  0  0  0  0  0  0
   40.0028   17.0917  -11.8216 O   0  0  0  0  0  0  0  0  0  0  0  0
   40.0655   18.0378  -12.1092 H   0  0  0  0  0  0  0  0  0  0  0  0
  2  1  1  0  0  0
  2  3  1  0  0  0
  3  4  1  0  0  0
  4  5  1  0  0  0
  5  6  1  0  0  0
  6  7  1  0  0  0
  6 34  1  0  0  0
 34 35  1  0  0  0
  4  8  1  0  0  0
  8  9  1  0  0  0
  9 10  2  0  0  0
 10 11  1  0  0  0
 11 12  2  0  0  0
 12 13  1  0  0  0
 13 14  2  0  0  0
 14 15  1  0  0  0
 15 16  2  0  0  0
 16 17  1  0  0  0
 17 18  2  0  0  0
 17 19  1  0  0  0
 19 20  1  0  0  0
 20 21  1  0  0  0
 21 22  2  0  0  0
 22 23  1  0  0  0
 23 24  2  0  0  0
 24 25  1  0  0  0
 25 26  2  0  0  0
 26 27  1  0  0  0
 27 28  2  0  0  0
 28 29  1  0  0  0
 29 30  1  0  0  0
 30 31  2  0  0  0
  6  2  1  0  0  0
 31  8  1  0  0  0
 29  2  1  0  0  0
 14  9  1  0  0  0
 31 15  1  0  0  0
 21 16  1  0  0  0
 30 22  1  0  0  0
 28 23  1  0  0  0
  7 32  1  0  0  0
 35 36  1  0  0  0
 19 33  1  0  0  0
M  END
> <minimizedAffinity>
-4.07083

> <CNNscore>
0.4159988463

> <CNNaffinity>
6.5018639565

> <CNN_VS>
2.7047679424

> <CNNaffinity_variance>
0.2410023957

$$$$
[H]OC([H])([H])[C@@]1(O[H])C([H])([H])[C@@]2([H])O[C@]1(C([H])([H])[H])n1c3c([H])c([H])c([H])c([H])c3c3c4c(c5c6c([H])c([H])c([H])c([H])c6n2c5c31)C(=O)N([H])C4([H])[H]


 36 43  0  0  0  0  0  0  0  0999 V2000
   41.2229   10.3093  -17.2239 C   0  0  0  0  0  0  0  0  0  0  0  0
   40.2468   11.4149  -17.0090 C   0  0  0  0  0  0  0  0  0  0  0  0
   39.1370   10.6799  -16.5079 O   0  0  0  0  0  0  0  0  0  0  0  0
   37.9844   11.3026  -16.8452 C   0  0  0  0  0  0  0  0  0  0  0  0
   38.1978   11.9541  -18.1444 C   0  0  0  0  0  0  0  0  0  0  0  0
   39.7037   12.0111  -18.2739 C   0  0  0  0  0  0  0  0  0  0  0  0
   40.0381   13.3475  -18.4336 O   0  0  0  0  0  0  0  0  0  0  0  0
   37.5529   12.2113  -15.7751 N   0  0  0  0  0  0  0  0  0  0  0  0
   36.3326   12.4630  -15.3336 C   0  0  0  0  0  0  0  0  0  0  0  0
   35.1417   11.9398  -15.7662 C   0  0  0  0  0  0  0  0  0  0  0  0
   33.9722   12.3585  -15.1437 C   0  0  0  0  0  0  0  0  0  0  0  0
   34.0096   13.2725  -14.1220 C   0  0  0  0  0  0  0  0  0  0  0  0
   35.2244   13.8086  -13.6781 C   0  0  0  0  0  0  0  0  0  0  0  0
   36.3668   13.3903  -14.2965 C   0  0  0  0  0  0  0  0  0  0  0  0
   37.6960   13.7014  -14.1210 C   0  0  0  0  0  0  0  0  0  0  0  0
   38.3748   14.5556  -13.2711 C   0  0  0  0  0  0  0  0  0  0  0  0
   37.9840   15.4600  -12.2047 C   0  0  0  0  0  0  0  0  0  0  0  0
   36.8733   15.7280  -11.7435 O   0  0  0  0  0  0  0  0  0  0  0  0
   39.1772   16.0678  -11.7000 N   0  0  0  0  0  0  0  0  0  0  0  0
   40.3348   15.5887  -12.4154 C   0  0  0  0  0  0  0  0  0  0  0  0
   39.7503   14.6319  -13.3867 C   0  0  0  0  0  0  0  0  0  0  0  0
   40.4590   13.8834  -14.3200 C   0  0  0  0  0  0  0  0  0  0  0  0
   41.7676   13.7663  -14.6685 C   0  0  0  0  0  0  0  0  0  0  0  0
   42.8814   14.3984  -14.1654 C   0  0  0  0  0  0  0  0  0  0  0  0
   44.1322   14.1123  -14.7204 C   0  0  0  0  0  0  0  0  0  0  0  0
   44.2053   13.2017  -15.7592 C   0  0  0  0  0  0  0  0  0  0  0  0
   43.0699   12.5790  -16.2479 C   0  0  0  0  0  0  0  0  0  0  0  0
   41.8307   12.8443  -15.7163 C   0  0  0  0  0  0  0  0  0  0  0  0
   40.5832   12.3913  -16.0127 N   0  0  0  0  0  0  0  0  0  0  0  0
   39.7602   13.0567  -15.1338 C   0  0  0  0  0  0  0  0  0  0  0  0
   38.3889   12.9546  -15.0492 C   0  0  0  0  0  0  0  0  0  0  0  0
   40.0407   13.5516  -19.3997 H   0  0  0  0  0  0  0  0  0  0  0  0
   39.2452   16.7722  -10.9163 H   0  0  0  0  0  0  0  0  0  0  0  0
   40.0935   11.2712  -19.5085 C   0  0  0  0  0  0  0  0  0  0  0  0
   39.2790   11.7041  -20.5554 O   0  0  0  0  0  0  0  0  0  0  0  0
   38.6298   11.0135  -20.8446 H   0  0  0  0  0  0  0  0  0  0  0  0
  2  1  1  0  0  0
  2  3  1  0  0  0
  3  4  1  0  0  0
  4  5  1  0  0  0
  5  6  1  0  0  0
  6  7  1  0  0  0
  6 34  1  0  0  0
 34 35  1  0  0  0
  4  8  1  0  0  0
  8  9  1  0  0  0
  9 10  2  0  0  0
 10 11  1  0  0  0
 11 12  2  0  0  0
 12 13  1  0  0  0
 13 14  2  0  0  0
 14 15  1  0  0  0
 15 16  2  0  0  0
 16 17  1  0  0  0
 17 18  2  0  0  0
 17 19  1  0  0  0
 19 20  1  0  0  0
 20 21  1  0  0  0
 21 22  2  0  0  0
 22 23  1  0  0  0
 23 24  2  0  0  0
 24 25  1  0  0  0
 25 26  2  0  0  0
 26 27  1  0  0  0
 27 28  2  0  0  0
 28 29  1  0  0  0
 29 30  1  0  0  0
 30 31  2  0  0  0
  6  2  1  0  0  0
 31  8  1  0  0  0
 29  2  1  0  0  0
 14  9  1  0  0  0
 31 15  1  0  0  0
 21 16  1  0  0  0
 30 22  1  0  0  0
 28 23  1  0  0  0
  7 32  1  0  0  0
 35 36  1  0  0  0
 19 33  1  0  0  0
M  END
> <minimizedAffinity>
-7.74014

> <CNNscore>
0.2284593731

> <CNNaffinity>
6.4101853371

> <CNN_VS>
1.4644669294

> <CNNaffinity_variance>
0.0629564151

$$$$
[H]OC([H])([H])[C@@]1(O[H])C([H])([H])[C@@]2([H])O[C@]1(C([H])([H])[H])n1c3c([H])c([H])c([H])c([H])c3c3c4c(c5c6c([H])c([H])c([H])c([H])c6n2c5c31)C(=O)N([H])C4([H])[H]


 36 43  0  0  0  0  0  0  0  0999 V2000
   34.6846   11.4798  -13.9859 C   0  0  0  0  0  0  0  0  0  0  0  0
   35.4734   12.7400  -13.8813 C   0  0  0  0  0  0  0  0  0  0  0  0
   35.6341   12.8226  -12.4705 O   0  0  0  0  0  0  0  0  0  0  0  0
   35.7200   14.1191  -12.0938 C   0  0  0  0  0  0  0  0  0  0  0  0
   34.8847   14.9030  -13.0132 C   0  0  0  0  0  0  0  0  0  0  0  0
   34.6940   13.9821  -14.1980 C   0  0  0  0  0  0  0  0  0  0  0  0
   35.1755   14.6590  -15.3085 O   0  0  0  0  0  0  0  0  0  0  0  0
   37.1228   14.5499  -12.0326 N   0  0  0  0  0  0  0  0  0  0  0  0
   37.7148   15.3484  -11.1612 C   0  0  0  0  0  0  0  0  0  0  0  0
   37.1678   15.9907  -10.0808 C   0  0  0  0  0  0  0  0  0  0  0  0
   37.9949   16.7875   -9.2986 C   0  0  0  0  0  0  0  0  0  0  0  0
   39.3252   16.9271   -9.6010 C   0  0  0  0  0  0  0  0  0  0  0  0
   39.8866   16.2723  -10.7038 C   0  0  0  0  0  0  0  0  0  0  0  0
   39.0652   15.4923  -11.4650 C   0  0  0  0  0  0  0  0  0  0  0  0
   39.2758   14.7271  -12.5896 C   0  0  0  0  0  0  0  0  0  0  0  0
   40.3826   14.4684  -13.3775 C   0  0  0  0  0  0  0  0  0  0  0  0
   41.7771   14.8707  -13.3449 C   0  0  0  0  0  0  0  0  0  0  0  0
   42.3865   15.5981  -12.5590 O   0  0  0  0  0  0  0  0  0  0  0  0
   42.4278   14.2511  -14.4587 N   0  0  0  0  0  0  0  0  0  0  0  0
   41.4912   13.4615  -15.2209 C   0  0  0  0  0  0  0  0  0  0  0  0
   40.2225   13.6413  -14.4737 C   0  0  0  0  0  0  0  0  0  0  0  0
   38.9971   13.0706  -14.7997 C   0  0  0  0  0  0  0  0  0  0  0  0
   38.5451   12.2602  -15.7931 C   0  0  0  0  0  0  0  0  0  0  0  0
   39.2115   11.7095  -16.8634 C   0  0  0  0  0  0  0  0  0  0  0  0
   38.5017   10.9145  -17.7681 C   0  0  0  0  0  0  0  0  0  0  0  0
   37.1504   10.7099  -17.5543 C   0  0  0  0  0  0  0  0  0  0  0  0
   36.5026   11.2752  -16.4696 C   0  0  0  0  0  0  0  0  0  0  0  0
   37.1810   12.0587  -15.5674 C   0  0  0  0  0  0  0  0  0  0  0  0
   36.7908   12.7287  -14.4501 N   0  0  0  0  0  0  0  0  0  0  0  0
   37.9366   13.3456  -14.0037 C   0  0  0  0  0  0  0  0  0  0  0  0
   38.0568   14.1660  -12.9036 C   0  0  0  0  0  0  0  0  0  0  0  0
   34.4301   15.1709  -15.7051 H   0  0  0  0  0  0  0  0  0  0  0  0
   43.4470   14.3339  -14.7217 H   0  0  0  0  0  0  0  0  0  0  0  0
   33.2319   13.7506  -14.3775 C   0  0  0  0  0  0  0  0  0  0  0  0
   32.5972   13.9849  -13.1573 O   0  0  0  0  0  0  0  0  0  0  0  0
   32.2566   13.1539  -12.7385 H   0  0  0  0  0  0  0  0  0  0  0  0
  2  1  1  0  0  0
  2  3  1  0  0  0
  3  4  1  0  0  0
  4  5  1  0  0  0
  5  6  1  0  0  0
  6  7  1  0  0  0
  6 34  1  0  0  0
 34 35  1  0  0  0
  4  8  1  0  0  0
  8  9  1  0  0  0
  9 10  2  0  0  0
 10 11  1  0  0  0
 11 12  2  0  0  0
 12 13  1  0  0  0
 13 14  2  0  0  0
 14 15  1  0  0  0
 15 16  2  0  0  0
 16 17  1  0  0  0
 17 18  2  0  0  0
 17 19  1  0  0  0
 19 20  1  0  0  0
 20 21  1  0  0  0
 21 22  2  0  0  0
 22 23  1  0  0  0
 23 24  2  0  0  0
 24 25  1  0  0  0
 25 26  2  0  0  0
 26 27  1  0  0  0
 27 28  2  0  0  0
 28 29  1  0  0  0
 29 30  1  0  0  0
 30 31  2  0  0  0
  6  2  1  0  0  0
 31  8  1  0  0  0
 29  2  1  0  0  0
 14  9  1  0  0  0
 31 15  1  0  0  0
 21 16  1  0  0  0
 30 22  1  0  0  0
 28 23  1  0  0  0
  7 32  1  0  0  0
 35 36  1  0  0  0
 19 33  1  0  0  0
M  END
> <minimizedAffinity>
-10.87837

> <CNNscore>
0.2167924047

> <CNNaffinity>
6.2299375534

> <CNN_VS>
1.3506031036

> <CNNaffinity_variance>
0.2321807891

$$$$
[H]OC([H])([H])[C@@]1(O[H])C([H])([H])[C@@]2([H])O[C@]1(C([H])([H])[H])n1c3c([H])c([H])c([H])c([H])c3c3c4c(c5c6c([H])c([H])c([H])c([H])c6n2c5c31)C(=O)N([H])C4([H])[H]


 36 43  0  0  0  0  0  0  0  0999 V2000
   43.4987   16.9934  -12.8875 C   0  0  0  0  0  0  0  0  0  0  0  0
   44.4553   16.4724  -11.8702 C   0  0  0  0  0  0  0  0  0  0  0  0
   43.6615   16.5832  -10.6951 O   0  0  0  0  0  0  0  0  0  0  0  0
   44.4575   16.7974   -9.6225 C   0  0  0  0  0  0  0  0  0  0  0  0
   45.6130   17.5811  -10.0788 C   0  0  0  0  0  0  0  0  0  0  0  0
   45.6053   17.3908  -11.5794 C   0  0  0  0  0  0  0  0  0  0  0  0
   46.8356   16.8469  -11.9169 O   0  0  0  0  0  0  0  0  0  0  0  0
   44.8052   15.5272   -8.9722 N   0  0  0  0  0  0  0  0  0  0  0  0
   44.9211   15.2515   -7.6846 C   0  0  0  0  0  0  0  0  0  0  0  0
   44.7491   16.0877   -6.6121 C   0  0  0  0  0  0  0  0  0  0  0  0
   44.9258   15.5682   -5.3355 C   0  0  0  0  0  0  0  0  0  0  0  0
   45.2638   14.2515   -5.1543 C   0  0  0  0  0  0  0  0  0  0  0  0
   45.4401   13.3952   -6.2479 C   0  0  0  0  0  0  0  0  0  0  0  0
   45.2641   13.9159   -7.4970 C   0  0  0  0  0  0  0  0  0  0  0  0
   45.3552   13.3756   -8.7596 C   0  0  0  0  0  0  0  0  0  0  0  0
   45.6690   12.1180   -9.2421 C   0  0  0  0  0  0  0  0  0  0  0  0
   46.0114   10.8456   -8.6325 C   0  0  0  0  0  0  0  0  0  0  0  0
   46.1241   10.5252   -7.4482 O   0  0  0  0  0  0  0  0  0  0  0  0
   46.2251    9.9072   -9.6916 N   0  0  0  0  0  0  0  0  0  0  0  0
   46.0383   10.5375  -10.9760 C   0  0  0  0  0  0  0  0  0  0  0  0
   45.6820   11.9306  -10.6117 C   0  0  0  0  0  0  0  0  0  0  0  0
   45.3918   12.9571  -11.5038 C   0  0  0  0  0  0  0  0  0  0  0  0
   45.3457   13.0734  -12.8573 C   0  0  0  0  0  0  0  0  0  0  0  0
   45.5877   12.1398  -13.8384 C   0  0  0  0  0  0  0  0  0  0  0  0
   45.4912   12.5242  -15.1791 C   0  0  0  0  0  0  0  0  0  0  0  0
   45.1553   13.8338  -15.4719 C   0  0  0  0  0  0  0  0  0  0  0  0
   44.9167   14.7546  -14.4664 C   0  0  0  0  0  0  0  0  0  0  0  0
   45.0046   14.3981  -13.1423 C   0  0  0  0  0  0  0  0  0  0  0  0
   44.8369   15.0940  -11.9860 N   0  0  0  0  0  0  0  0  0  0  0  0
   45.0874   14.1742  -10.9941 C   0  0  0  0  0  0  0  0  0  0  0  0
   45.0654   14.3998   -9.6352 C   0  0  0  0  0  0  0  0  0  0  0  0
   47.4589   17.5885  -12.1080 H   0  0  0  0  0  0  0  0  0  0  0  0
   46.4842    8.8886   -9.5911 H   0  0  0  0  0  0  0  0  0  0  0  0
   45.4856   18.7327  -12.2186 C   0  0  0  0  0  0  0  0  0  0  0  0
   46.7319   19.3577  -12.1642 O   0  0  0  0  0  0  0  0  0  0  0  0
   46.7496   20.1194  -11.5307 H   0  0  0  0  0  0  0  0  0  0  0  0
  2  1  1  0  0  0
  2  3  1  0  0  0
  3  4  1  0  0  0
  4  5  1  0  0  0
  5  6  1  0  0  0
  6  7  1  0  0  0
  6 34  1  0  0  0
 34 35  1  0  0  0
  4  8  1  0  0  0
  8  9  1  0  0  0
  9 10  2  0  0  0
 10 11  1  0  0  0
 11 12  2  0  0  0
 12 13  1  0  0  0
 13 14  2  0  0  0
 14 15  1  0  0  0
 15 16  2  0  0  0
 16 17  1  0  0  0
 17 18  2  0  0  0
 17 19  1  0  0  0
 19 20  1  0  0  0
 20 21  1  0  0  0
 21 22  2  0  0  0
 22 23  1  0  0  0
 23 24  2  0  0  0
 24 25  1  0  0  0
 25 26  2  0  0  0
 26 27  1  0  0  0
 27 28  2  0  0  0
 28 29  1  0  0  0
 29 30  1  0  0  0
 30 31  2  0  0  0
  6  2  1  0  0  0
 31  8  1  0  0  0
 29  2  1  0  0  0
 14  9  1  0  0  0
 31 15  1  0  0  0
 21 16  1  0  0  0
 30 22  1  0  0  0
 28 23  1  0  0  0
  7 32  1  0  0  0
 35 36  1  0  0  0
 19 33  1  0  0  0
M  END
> <minimizedAffinity>
-5.76255

> <CNNscore>
0.1786021143

> <CNNaffinity>
4.8461127281

> <CNN_VS>
0.8655259609

> <CNNaffinity_variance>
0.2549131215

$$$$
[H]OC([H])([H])[C@@]1(O[H])C([H])([H])[C@@]2([H])O[C@]1(C([H])([H])[H])n1c3c([H])c([H])c([H])c([H])c3c3c4c(c5c6c([H])c([H])c([H])c([H])c6n2c5c31)C(=O)N([H])C4([H])[H]


 36 43  0  0  0  0  0  0  0  0999 V2000
   45.5979   14.1559  -11.2664 C   0  0  0  0  0  0  0  0  0  0  0  0
   44.9063   14.3459   -9.9600 C   0  0  0  0  0  0  0  0  0  0  0  0
   43.5499   14.2267  -10.3710 O   0  0  0  0  0  0  0  0  0  0  0  0
   42.7593   14.9723   -9.5654 C   0  0  0  0  0  0  0  0  0  0  0  0
   43.5366   16.1460   -9.1464 C   0  0  0  0  0  0  0  0  0  0  0  0
   44.9682   15.7475   -9.4288 C   0  0  0  0  0  0  0  0  0  0  0  0
   45.6520   15.8446   -8.2262 O   0  0  0  0  0  0  0  0  0  0  0  0
   42.2382   14.1628   -8.4561 N   0  0  0  0  0  0  0  0  0  0  0  0
   41.0412   14.1848   -7.8955 C   0  0  0  0  0  0  0  0  0  0  0  0
   39.9668   14.9783   -8.2038 C   0  0  0  0  0  0  0  0  0  0  0  0
   38.7980   14.8210   -7.4691 C   0  0  0  0  0  0  0  0  0  0  0  0
   38.7223   13.8945   -6.4609 C   0  0  0  0  0  0  0  0  0  0  0  0
   39.8180   13.0826   -6.1438 C   0  0  0  0  0  0  0  0  0  0  0  0
   40.9608   13.2456   -6.8717 C   0  0  0  0  0  0  0  0  0  0  0  0
   42.1936   12.6347   -6.8313 C   0  0  0  0  0  0  0  0  0  0  0  0
   42.7450   11.6437   -6.0398 C   0  0  0  0  0  0  0  0  0  0  0  0
   42.2613   10.8235   -4.9438 C   0  0  0  0  0  0  0  0  0  0  0  0
   41.1621   10.7897   -4.3884 O   0  0  0  0  0  0  0  0  0  0  0  0
   43.3350    9.9656   -4.5448 N   0  0  0  0  0  0  0  0  0  0  0  0
   44.5084   10.2112   -5.3474 C   0  0  0  0  0  0  0  0  0  0  0  0
   44.0576   11.2783   -6.2740 C   0  0  0  0  0  0  0  0  0  0  0  0
   44.8263   11.8710   -7.2697 C   0  0  0  0  0  0  0  0  0  0  0  0
   46.1065   11.7377   -7.7067 C   0  0  0  0  0  0  0  0  0  0  0  0
   47.1140   10.9100   -7.2676 C   0  0  0  0  0  0  0  0  0  0  0  0
   48.3675   10.9823   -7.8824 C   0  0  0  0  0  0  0  0  0  0  0  0
   48.5505   11.8866   -8.9131 C   0  0  0  0  0  0  0  0  0  0  0  0
   47.5208   12.7087   -9.3368 C   0  0  0  0  0  0  0  0  0  0  0  0
   46.2806   12.6534   -8.7476 C   0  0  0  0  0  0  0  0  0  0  0  0
   45.1272   13.3425   -8.9582 N   0  0  0  0  0  0  0  0  0  0  0  0
   44.2515   12.8364   -8.0257 C   0  0  0  0  0  0  0  0  0  0  0  0
   42.9466   13.2282   -7.8214 C   0  0  0  0  0  0  0  0  0  0  0  0
   46.0191   16.7583   -8.1528 H   0  0  0  0  0  0  0  0  0  0  0  0
   43.3136    9.2415   -3.7767 H   0  0  0  0  0  0  0  0  0  0  0  0
   45.5459   16.7335  -10.3868 C   0  0  0  0  0  0  0  0  0  0  0  0
   45.2978   18.0169   -9.8989 O   0  0  0  0  0  0  0  0  0  0  0  0
   44.6281   18.5079  -10.4395 H   0  0  0  0  0  0  0  0  0  0  0  0
  2  1  1  0  0  0
  2  3  1  0  0  0
  3  4  1  0  0  0
  4  5  1  0  0  0
  5  6  1  0  0  0
  6  7  1  0  0  0
  6 34  1  0  0  0
 34 35  1  0  0  0
  4  8  1  0  0  0
  8  9  1  0  0  0
  9 10  2  0  0  0
 10 11  1  0  0  0
 11 12  2  0  0  0
 12 13  1  0  0  0
 13 14  2  0  0  0
 14 15  1  0  0  0
 15 16  2  0  0  0
 16 17  1  0  0  0
 17 18  2  0  0  0
 17 19  1  0  0  0
 19 20  1  0  0  0
 20 21  1  0  0  0
 21 22  2  0  0  0
 22 23  1  0  0  0
 23 24  2  0  0  0
 24 25  1  0  0  0
 25 26  2  0  0  0
 26 27  1  0  0  0
 27 28  2  0  0  0
 28 29  1  0  0  0
 29 30  1  0  0  0
 30 31  2  0  0  0
  6  2  1  0  0  0
 31  8  1  0  0  0
 29  2  1  0  0  0
 14  9  1  0  0  0
 31 15  1  0  0  0
 21 16  1  0  0  0
 30 22  1  0  0  0
 28 23  1  0  0  0
  7 32  1  0  0  0
 35 36  1  0  0  0
 19 33  1  0  0  0
M  END
> <minimizedAffinity>
-6.75336

> <CNNscore>
0.1514871866

> <CNNaffinity>
4.6788630486

> <CNN_VS>
0.7087877989

> <CNNaffinity_variance>
0.3488199413

$$$$
[H]OC([H])([H])[C@@]1(O[H])C([H])([H])[C@@]2([H])O[C@]1(C([H])([H])[H])n1c3c([H])c([H])c([H])c([H])c3c3c4c(c5c6c([H])c([H])c([H])c([H])c6n2c5c31)C(=O)N([H])C4([H])[H]


 36 43  0  0  0  0  0  0  0  0999 V2000
   39.0417   14.7119   -8.4425 C   0  0  0  0  0  0  0  0  0  0  0  0
   37.9341   15.7088   -8.4645 C   0  0  0  0  0  0  0  0  0  0  0  0
   36.8174   14.8440   -8.6328 O   0  0  0  0  0  0  0  0  0  0  0  0
   35.8374   15.4866   -9.3086 C   0  0  0  0  0  0  0  0  0  0  0  0
   36.4825   16.4162  -10.2452 C   0  0  0  0  0  0  0  0  0  0  0  0
   37.8888   16.5514   -9.7048 C   0  0  0  0  0  0  0  0  0  0  0  0
   38.0899   17.9005   -9.4545 O   0  0  0  0  0  0  0  0  0  0  0  0
   34.8948   16.1208   -8.3778 N   0  0  0  0  0  0  0  0  0  0  0  0
   33.5800   16.2272   -8.4626 C   0  0  0  0  0  0  0  0  0  0  0  0
   32.7473   15.7726   -9.4521 C   0  0  0  0  0  0  0  0  0  0  0  0
   31.3831   16.0034   -9.3241 C   0  0  0  0  0  0  0  0  0  0  0  0
   30.8833   16.6694   -8.2345 C   0  0  0  0  0  0  0  0  0  0  0  0
   31.7314   17.1347   -7.2223 C   0  0  0  0  0  0  0  0  0  0  0  0
   33.0693   16.9026   -7.3583 C   0  0  0  0  0  0  0  0  0  0  0  0
   34.1590   17.2119   -6.5764 C   0  0  0  0  0  0  0  0  0  0  0  0
   34.3165   17.8794   -5.3754 C   0  0  0  0  0  0  0  0  0  0  0  0
   33.4128   18.5116   -4.4312 C   0  0  0  0  0  0  0  0  0  0  0  0
   32.1869   18.6332   -4.4487 O   0  0  0  0  0  0  0  0  0  0  0  0
   34.2075   19.0327   -3.3612 N   0  0  0  0  0  0  0  0  0  0  0  0
   35.6066   18.7632   -3.5877 C   0  0  0  0  0  0  0  0  0  0  0  0
   35.5969   18.0258   -4.8748 C   0  0  0  0  0  0  0  0  0  0  0  0
   36.7136   17.5268   -5.5363 C   0  0  0  0  0  0  0  0  0  0  0  0
   38.0533   17.5341   -5.3063 C   0  0  0  0  0  0  0  0  0  0  0  0
   38.7738   18.0765   -4.2672 C   0  0  0  0  0  0  0  0  0  0  0  0
   40.1671   17.9629   -4.2761 C   0  0  0  0  0  0  0  0  0  0  0  0
   40.7733   17.3076   -5.3329 C   0  0  0  0  0  0  0  0  0  0  0  0
   40.0261   16.7705   -6.3668 C   0  0  0  0  0  0  0  0  0  0  0  0
   38.6556   16.8694   -6.3776 C   0  0  0  0  0  0  0  0  0  0  0  0
   37.7070   16.4514   -7.2578 N   0  0  0  0  0  0  0  0  0  0  0  0
   36.5197   16.8775   -6.7088 C   0  0  0  0  0  0  0  0  0  0  0  0
   35.2592   16.7129   -7.2398 C   0  0  0  0  0  0  0  0  0  0  0  0
   38.4636   18.3134  -10.2699 H   0  0  0  0  0  0  0  0  0  0  0  0
   33.8592   19.5480   -2.5080 H   0  0  0  0  0  0  0  0  0  0  0  0
   38.8401   16.1166  -10.7676 C   0  0  0  0  0  0  0  0  0  0  0  0
   38.1194   15.9101  -11.9443 O   0  0  0  0  0  0  0  0  0  0  0  0
   38.0546   14.9521  -12.1891 H   0  0  0  0  0  0  0  0  0  0  0  0
  2  1  1  0  0  0
  2  3  1  0  0  0
  3  4  1  0  0  0
  4  5  1  0  0  0
  5  6  1  0  0  0
  6  7  1  0  0  0
  6 34  1  0  0  0
 34 35  1  0  0  0
  4  8  1  0  0  0
  8  9  1  0  0  0
  9 10  2  0  0  0
 10 11  1  0  0  0
 11 12  2  0  0  0
 12 13  1  0  0  0
 13 14  2  0  0  0
 14 15  1  0  0  0
 15 16  2  0  0  0
 16 17  1  0  0  0
 17 18  2  0  0  0
 17 19  1  0  0  0
 19 20  1  0  0  0
 20 21  1  0  0  0
 21 22  2  0  0  0
 22 23  1  0  0  0
 23 24  2  0  0  0
 24 25  1  0  0  0
 25 26  2  0  0  0
 26 27  1  0  0  0
 27 28  2  0  0  0
 28 29  1  0  0  0
 29 30  1  0  0  0
 30 31  2  0  0  0
  6  2  1  0  0  0
 31  8  1  0  0  0
 29  2  1  0  0  0
 14  9  1  0  0  0
 31 15  1  0  0  0
 21 16  1  0  0  0
 30 22  1  0  0  0
 28 23  1  0  0  0
  7 32  1  0  0  0
 35 36  1  0  0  0
 19 33  1  0  0  0
M  END
> <minimizedAffinity>
-6.81196

> <CNNscore>
0.1480229497

> <CNNaffinity>
5.0470795631

> <CNN_VS>
0.7470836043

> <CNNaffinity_variance>
0.3049581945

$$$$
[H]c1nc(Oc2c([H])c([H])c(N([H])C(=O)N([H])c3c([H])c([H])c(C([H])([H])N4C([H])([H])C([H])([H])N(C([H])([H])C([H])([H])[H])C([H])([H])C4([H])[H])c(C(F)(F)F)c3[H])c([H])c2[H])c([H])c(N([H])C([H])([H])[H])n1


 41 44  0  0  0  0  0  0  0  0999 V2000
   33.1869   15.0875  -12.5766 N   0  0  0  0  0  0  0  0  0  0  0  0
   33.9591   14.0782  -13.2069 C   0  0  0  0  0  0  0  0  0  0  0  0
   34.8617   13.4460  -12.6226 O   0  0  0  0  0  0  0  0  0  0  0  0
   33.6915   13.7751  -14.5651 N   0  0  0  0  0  0  0  0  0  0  0  0
   32.4457   15.5683  -13.1554 H   0  0  0  0  0  0  0  0  0  0  0  0
   32.9155   14.3188  -15.0422 H   0  0  0  0  0  0  0  0  0  0  0  0
   33.3804   16.2340   -8.5295 C   0  0  0  0  0  0  0  0  0  0  0  0
   34.5376   16.1832   -9.2453 C   0  0  0  0  0  0  0  0  0  0  0  0
   34.5076   15.7951  -10.5955 C   0  0  0  0  0  0  0  0  0  0  0  0
   33.3600   15.4605  -11.2441 C   0  0  0  0  0  0  0  0  0  0  0  0
   32.1957   15.5275  -10.4683 C   0  0  0  0  0  0  0  0  0  0  0  0
   32.1696   15.8984   -9.1503 C   0  0  0  0  0  0  0  0  0  0  0  0
   30.8922   15.9375   -8.4089 C   0  0  0  0  0  0  0  0  0  0  0  0
   29.8691   15.5524   -9.2908 F   0  0  0  0  0  0  0  0  0  0  0  0
   30.5263   17.1760   -7.9656 F   0  0  0  0  0  0  0  0  0  0  0  0
   30.8197   14.9560   -7.4109 F   0  0  0  0  0  0  0  0  0  0  0  0
   33.3931   16.6613   -7.1361 C   0  0  0  0  0  0  0  0  0  0  0  0
   34.6238   16.2810   -3.4329 N   0  0  0  0  0  0  0  0  0  0  0  0
   33.3200   15.8540   -3.8274 C   0  0  0  0  0  0  0  0  0  0  0  0
   33.2505   15.2139   -5.1924 C   0  0  0  0  0  0  0  0  0  0  0  0
   34.0465   15.8438   -6.1858 N   0  0  0  0  0  0  0  0  0  0  0  0
   35.2456   16.4801   -5.7232 C   0  0  0  0  0  0  0  0  0  0  0  0
   35.6474   15.9200   -4.3762 C   0  0  0  0  0  0  0  0  0  0  0  0
   33.2823   18.1413   -2.5472 C   0  0  0  0  0  0  0  0  0  0  0  0
   34.5761   17.7092   -3.1869 C   0  0  0  0  0  0  0  0  0  0  0  0
   34.3958   12.8083  -15.2958 C   0  0  0  0  0  0  0  0  0  0  0  0
   35.7459   13.0850  -15.5378 C   0  0  0  0  0  0  0  0  0  0  0  0
   36.5043   12.1743  -16.2200 C   0  0  0  0  0  0  0  0  0  0  0  0
   36.0197   10.9732  -16.6977 C   0  0  0  0  0  0  0  0  0  0  0  0
   34.6975   10.7112  -16.4555 C   0  0  0  0  0  0  0  0  0  0  0  0
   33.9027   11.6275  -15.7596 C   0  0  0  0  0  0  0  0  0  0  0  0
   36.8350   10.0630  -17.3962 O   0  0  0  0  0  0  0  0  0  0  0  0
   37.9382   10.6098  -18.0560 C   0  0  0  0  0  0  0  0  0  0  0  0
   39.0319   11.0782  -17.3599 C   0  0  0  0  0  0  0  0  0  0  0  0
   40.1077   11.6149  -18.0685 C   0  0  0  0  0  0  0  0  0  0  0  0
   40.0166   11.6455  -19.4047 N   0  0  0  0  0  0  0  0  0  0  0  0
   38.9555   11.1917  -20.0906 C   0  0  0  0  0  0  0  0  0  0  0  0
   37.9279   10.6782  -19.3980 N   0  0  0  0  0  0  0  0  0  0  0  0
   41.2531   12.1088  -17.4026 N   0  0  0  0  0  0  0  0  0  0  0  0
   41.0887   12.8241  -16.1611 C   0  0  0  0  0  0  0  0  0  0  0  0
   42.2042   11.9617  -17.7972 H   0  0  0  0  0  0  0  0  0  0  0  0
 24 25  1  0  0  0
 25 18  1  0  0  0
 18 19  1  0  0  0
 19 20  1  0  0  0
 20 21  1  0  0  0
 21 17  1  0  0  0
 17  7  1  0  0  0
  7  8  2  0  0  0
  8  9  1  0  0  0
  9 10  2  0  0  0
 10  1  1  0  0  0
  1  2  1  0  0  0
  2  3  2  0  0  0
  2  4  1  0  0  0
  4 26  1  0  0  0
 26 27  2  0  0  0
 27 28  1  0  0  0
 28 29  2  0  0  0
 29 32  1  0  0  0
 32 33  1  0  0  0
 33 34  2  0  0  0
 34 35  1  0  0  0
 35 39  1  0  0  0
 39 40  1  0  0  0
 35 36  2  0  0  0
 36 37  1  0  0  0
 37 38  2  0  0  0
 29 30  1  0  0  0
 30 31  2  0  0  0
 10 11  1  0  0  0
 11 12  2  0  0  0
 12 13  1  0  0  0
 13 14  1  0  0  0
 13 15  1  0  0  0
 13 16  1  0  0  0
 21 22  1  0  0  0
 22 23  1  0  0  0
 23 18  1  0  0  0
 12  7  1  0  0  0
 31 26  1  0  0  0
 38 33  1  0  0  0
  1  5  1  0  0  0
  4  6  1  0  0  0
 39 41  1  0  0  0
M  END
> <minimizedAffinity>
-9.03026

> <CNNscore>
0.6296988726

> <CNNaffinity>
6.8364310265

> <CNN_VS>
4.3048930168

> <CNNaffinity_variance>
0.2448466271

$$$$
[H]c1nc(Oc2c([H])c([H])c(N([H])C(=O)N([H])c3c([H])c([H])c(C([H])([H])N4C([H])([H])C([H])([H])N(C([H])([H])C([H])([H])[H])C([H])([H])C4([H])[H])c(C(F)(F)F)c3[H])c([H])c2[H])c([H])c(N([H])C([H])([H])[H])n1


 41 44  0  0  0  0  0  0  0  0999 V2000
   33.1207   15.1426  -12.6364 N   0  0  0  0  0  0  0  0  0  0  0  0
   33.8923   14.1153  -13.2378 C   0  0  0  0  0  0  0  0  0  0  0  0
   34.7490   13.4544  -12.6173 O   0  0  0  0  0  0  0  0  0  0  0  0
   33.6788   13.8276  -14.6089 N   0  0  0  0  0  0  0  0  0  0  0  0
   32.4207   15.6476  -13.2451 H   0  0  0  0  0  0  0  0  0  0  0  0
   32.9412   14.3959  -15.1171 H   0  0  0  0  0  0  0  0  0  0  0  0
   33.8178   16.2220   -8.6265 C   0  0  0  0  0  0  0  0  0  0  0  0
   32.5467   15.9112   -9.0030 C   0  0  0  0  0  0  0  0  0  0  0  0
   32.2798   15.5563  -10.3361 C   0  0  0  0  0  0  0  0  0  0  0  0
   33.2429   15.5029  -11.2949 C   0  0  0  0  0  0  0  0  0  0  0  0
   34.5340   15.8303  -10.8614 C   0  0  0  0  0  0  0  0  0  0  0  0
   34.8478   16.1831   -9.5760 C   0  0  0  0  0  0  0  0  0  0  0  0
   36.2400   16.5159   -9.2098 C   0  0  0  0  0  0  0  0  0  0  0  0
   37.0145   16.4815  -10.3810 F   0  0  0  0  0  0  0  0  0  0  0  0
   36.8380   15.6239   -8.3666 F   0  0  0  0  0  0  0  0  0  0  0  0
   36.3821   17.8455   -8.7895 F   0  0  0  0  0  0  0  0  0  0  0  0
   34.1138   16.5652   -7.2412 C   0  0  0  0  0  0  0  0  0  0  0  0
   35.1736   14.8018   -3.9034 N   0  0  0  0  0  0  0  0  0  0  0  0
   34.4588   16.0374   -3.8935 C   0  0  0  0  0  0  0  0  0  0  0  0
   33.3957   16.1613   -4.9577 C   0  0  0  0  0  0  0  0  0  0  0  0
   33.7631   15.6437   -6.2283 N   0  0  0  0  0  0  0  0  0  0  0  0
   34.6808   14.5417   -6.2189 C   0  0  0  0  0  0  0  0  0  0  0  0
   34.6668   13.8623   -4.8669 C   0  0  0  0  0  0  0  0  0  0  0  0
   37.4729   14.2637   -3.2187 C   0  0  0  0  0  0  0  0  0  0  0  0
   36.5796   15.0951   -4.1023 C   0  0  0  0  0  0  0  0  0  0  0  0
   34.3884   12.8453  -15.3134 C   0  0  0  0  0  0  0  0  0  0  0  0
   35.7366   13.1235  -15.5643 C   0  0  0  0  0  0  0  0  0  0  0  0
   36.4999   12.1989  -16.2219 C   0  0  0  0  0  0  0  0  0  0  0  0
   36.0222   10.9822  -16.6657 C   0  0  0  0  0  0  0  0  0  0  0  0
   34.7019   10.7190  -16.4150 C   0  0  0  0  0  0  0  0  0  0  0  0
   33.9021   11.6492  -15.7439 C   0  0  0  0  0  0  0  0  0  0  0  0
   36.8425   10.0580  -17.3397 O   0  0  0  0  0  0  0  0  0  0  0  0
   37.9343   10.5944  -18.0264 C   0  0  0  0  0  0  0  0  0  0  0  0
   39.0344   11.0844  -17.3558 C   0  0  0  0  0  0  0  0  0  0  0  0
   40.0983   11.6095  -18.0908 C   0  0  0  0  0  0  0  0  0  0  0  0
   39.9898   11.6082  -19.4260 N   0  0  0  0  0  0  0  0  0  0  0  0
   38.9223   11.1332  -20.0872 C   0  0  0  0  0  0  0  0  0  0  0  0
   37.9064   10.6312  -19.3694 N   0  0  0  0  0  0  0  0  0  0  0  0
   41.2495   12.1245  -17.4515 N   0  0  0  0  0  0  0  0  0  0  0  0
   41.1000   12.8445  -16.2109 C   0  0  0  0  0  0  0  0  0  0  0  0
   42.1944   11.9894  -17.8650 H   0  0  0  0  0  0  0  0  0  0  0  0
 24 25  1  0  0  0
 25 18  1  0  0  0
 18 19  1  0  0  0
 19 20  1  0  0  0
 20 21  1  0  0  0
 21 17  1  0  0  0
 17  7  1  0  0  0
  7  8  2  0  0  0
  8  9  1  0  0  0
  9 10  2  0  0  0
 10  1  1  0  0  0
  1  2  1  0  0  0
  2  3  2  0  0  0
  2  4  1  0  0  0
  4 26  1  0  0  0
 26 27  2  0  0  0
 27 28  1  0  0  0
 28 29  2  0  0  0
 29 32  1  0  0  0
 32 33  1  0  0  0
 33 34  2  0  0  0
 34 35  1  0  0  0
 35 39  1  0  0  0
 39 40  1  0  0  0
 35 36  2  0  0  0
 36 37  1  0  0  0
 37 38  2  0  0  0
 29 30  1  0  0  0
 30 31  2  0  0  0
 10 11  1  0  0  0
 11 12  2  0  0  0
 12 13  1  0  0  0
 13 14  1  0  0  0
 13 15  1  0  0  0
 13 16  1  0  0  0
 21 22  1  0  0  0
 22 23  1  0  0  0
 23 18  1  0  0  0
 12  7  1  0  0  0
 31 26  1  0  0  0
 38 33  1  0  0  0
  1  5  1  0  0  0
  4  6  1  0  0  0
 39 41  1  0  0  0
M  END
> <minimizedAffinity>
-9.01409

> <CNNscore>
0.5826467872

> <CNNaffinity>
6.9367208481

> <CNN_VS>
4.0416579247

> <CNNaffinity_variance>
0.2513284087

$$$$
[H]c1nc(Oc2c([H])c([H])c(N([H])C(=O)N([H])c3c([H])c([H])c(C([H])([H])N4C([H])([H])C([H])([H])N(C([H])([H])C([H])([H])[H])C([H])([H])C4([H])[H])c(C(F)(F)F)c3[H])c([H])c2[H])c([H])c(N([H])C([H])([H])[H])n1


 41 44  0  0  0  0  0  0  0  0999 V2000
   34.4474   15.6327  -11.6165 N   0  0  0  0  0  0  0  0  0  0  0  0
   35.1245   14.6257  -12.3514 C   0  0  0  0  0  0  0  0  0  0  0  0
   36.0428   13.9321  -11.8705 O   0  0  0  0  0  0  0  0  0  0  0  0
   34.7383   14.3984  -13.6958 N   0  0  0  0  0  0  0  0  0  0  0  0
   33.6839   16.1687  -12.1116 H   0  0  0  0  0  0  0  0  0  0  0  0
   33.9507   14.9938  -14.0840 H   0  0  0  0  0  0  0  0  0  0  0  0
   35.0276   16.4404   -7.5248 C   0  0  0  0  0  0  0  0  0  0  0  0
   35.9656   16.8749   -8.4112 C   0  0  0  0  0  0  0  0  0  0  0  0
   35.8057   16.6129   -9.7824 C   0  0  0  0  0  0  0  0  0  0  0  0
   34.7404   15.9345  -10.2870 C   0  0  0  0  0  0  0  0  0  0  0  0
   33.8022   15.5076   -9.3385 C   0  0  0  0  0  0  0  0  0  0  0  0
   33.9102   15.7357   -7.9926 C   0  0  0  0  0  0  0  0  0  0  0  0
   32.8711   15.2443   -7.0643 C   0  0  0  0  0  0  0  0  0  0  0  0
   32.2588   16.3607   -6.4715 F   0  0  0  0  0  0  0  0  0  0  0  0
   33.3428   14.5050   -6.0178 F   0  0  0  0  0  0  0  0  0  0  0  0
   31.8026   14.6288   -7.7308 F   0  0  0  0  0  0  0  0  0  0  0  0
   35.1667   16.7290   -6.1029 C   0  0  0  0  0  0  0  0  0  0  0  0
   36.6699   15.1370   -2.8503 N   0  0  0  0  0  0  0  0  0  0  0  0
   36.2258   14.3234   -3.9359 C   0  0  0  0  0  0  0  0  0  0  0  0
   36.5238   14.8804   -5.3066 C   0  0  0  0  0  0  0  0  0  0  0  0
   36.3291   16.2814   -5.4344 N   0  0  0  0  0  0  0  0  0  0  0  0
   36.5528   17.0598   -4.2508 C   0  0  0  0  0  0  0  0  0  0  0  0
   37.4166   16.2901   -3.2755 C   0  0  0  0  0  0  0  0  0  0  0  0
   34.2159   15.0985   -2.7044 C   0  0  0  0  0  0  0  0  0  0  0  0
   35.5145   15.4901   -2.0485 C   0  0  0  0  0  0  0  0  0  0  0  0
   35.3415   13.4414  -14.5232 C   0  0  0  0  0  0  0  0  0  0  0  0
   34.4936   12.4564  -15.0417 C   0  0  0  0  0  0  0  0  0  0  0  0
   35.0060   11.5054  -15.8802 C   0  0  0  0  0  0  0  0  0  0  0  0
   36.3321   11.4479  -16.2595 C   0  0  0  0  0  0  0  0  0  0  0  0
   37.1538   12.4164  -15.7473 C   0  0  0  0  0  0  0  0  0  0  0  0
   36.6520   13.3992  -14.8884 C   0  0  0  0  0  0  0  0  0  0  0  0
   36.8192   10.4509  -17.1255 O   0  0  0  0  0  0  0  0  0  0  0  0
   37.9430   10.7917  -17.8819 C   0  0  0  0  0  0  0  0  0  0  0  0
   39.0932   11.2637  -17.2868 C   0  0  0  0  0  0  0  0  0  0  0  0
   40.1875   11.5895  -18.0894 C   0  0  0  0  0  0  0  0  0  0  0  0
   40.0574   11.4230  -19.4123 N   0  0  0  0  0  0  0  0  0  0  0  0
   38.9412   10.9641  -20.0002 C   0  0  0  0  0  0  0  0  0  0  0  0
   37.8964   10.6545  -19.2179 N   0  0  0  0  0  0  0  0  0  0  0  0
   41.3904   12.0774  -17.5289 N   0  0  0  0  0  0  0  0  0  0  0  0
   41.3466   12.7587  -16.2585 C   0  0  0  0  0  0  0  0  0  0  0  0
   42.2980   11.9502  -18.0209 H   0  0  0  0  0  0  0  0  0  0  0  0
 24 25  1  0  0  0
 25 18  1  0  0  0
 18 19  1  0  0  0
 19 20  1  0  0  0
 20 21  1  0  0  0
 21 17  1  0  0  0
 17  7  1  0  0  0
  7  8  2  0  0  0
  8  9  1  0  0  0
  9 10  2  0  0  0
 10  1  1  0  0  0
  1  2  1  0  0  0
  2  3  2  0  0  0
  2  4  1  0  0  0
  4 26  1  0  0  0
 26 27  2  0  0  0
 27 28  1  0  0  0
 28 29  2  0  0  0
 29 32  1  0  0  0
 32 33  1  0  0  0
 33 34  2  0  0  0
 34 35  1  0  0  0
 35 39  1  0  0  0
 39 40  1  0  0  0
 35 36  2  0  0  0
 36 37  1  0  0  0
 37 38  2  0  0  0
 29 30  1  0  0  0
 30 31  2  0  0  0
 10 11  1  0  0  0
 11 12  2  0  0  0
 12 13  1  0  0  0
 13 14  1  0  0  0
 13 15  1  0  0  0
 13 16  1  0  0  0
 21 22  1  0  0  0
 22 23  1  0  0  0
 23 18  1  0  0  0
 12  7  1  0  0  0
 31 26  1  0  0  0
 38 33  1  0  0  0
  1  5  1  0  0  0
  4  6  1  0  0  0
 39 41  1  0  0  0
M  END
> <minimizedAffinity>
-8.59852

> <CNNscore>
0.4619879723

> <CNNaffinity>
6.6145200729

> <CNN_VS>
3.0558288097

> <CNNaffinity_variance>
0.3325930536

$$$$
[H]c1nc(Oc2c([H])c([H])c(N([H])C(=O)N([H])c3c([H])c([H])c(C([H])([H])N4C([H])([H])C([H])([H])N(C([H])([H])C([H])([H])[H])C([H])([H])C4([H])[H])c(C(F)(F)F)c3[H])c([H])c2[H])c([H])c(N([H])C([H])([H])[H])n1


 41 44  0  0  0  0  0  0  0  0999 V2000
   43.9771   13.4619  -15.8097 N   0  0  0  0  0  0  0  0  0  0  0  0
   42.6008   13.1226  -15.7536 C   0  0  0  0  0  0  0  0  0  0  0  0
   41.8890   13.3264  -14.7498 O   0  0  0  0  0  0  0  0  0  0  0  0
   42.0079   12.5235  -16.8928 N   0  0  0  0  0  0  0  0  0  0  0  0
   44.4967   13.2482  -16.7040 H   0  0  0  0  0  0  0  0  0  0  0  0
   42.6282   12.3649  -17.7386 H   0  0  0  0  0  0  0  0  0  0  0  0
   45.9402   15.0182  -12.4252 C   0  0  0  0  0  0  0  0  0  0  0  0
   45.8428   15.8005  -13.5354 C   0  0  0  0  0  0  0  0  0  0  0  0
   45.2019   15.3065  -14.6843 C   0  0  0  0  0  0  0  0  0  0  0  0
   44.6591   14.0614  -14.7513 C   0  0  0  0  0  0  0  0  0  0  0  0
   44.7832   13.2936  -13.5864 C   0  0  0  0  0  0  0  0  0  0  0  0
   45.3978   13.7261  -12.4416 C   0  0  0  0  0  0  0  0  0  0  0  0
   45.4845   12.8439  -11.2595 C   0  0  0  0  0  0  0  0  0  0  0  0
   44.5798   11.7854  -11.4434 F   0  0  0  0  0  0  0  0  0  0  0  0
   45.1097   13.4264  -10.0829 F   0  0  0  0  0  0  0  0  0  0  0  0
   46.7163   12.1805  -11.1732 F   0  0  0  0  0  0  0  0  0  0  0  0
   46.5779   15.5275  -11.2175 C   0  0  0  0  0  0  0  0  0  0  0  0
   49.7753   16.4164  -13.3053 N   0  0  0  0  0  0  0  0  0  0  0  0
   49.0272   17.4274  -12.6301 C   0  0  0  0  0  0  0  0  0  0  0  0
   48.4908   17.0208  -11.2792 C   0  0  0  0  0  0  0  0  0  0  0  0
   47.9813   15.6966  -11.2157 N   0  0  0  0  0  0  0  0  0  0  0  0
   48.5985   14.7409  -12.0890 C   0  0  0  0  0  0  0  0  0  0  0  0
   49.9654   15.2300  -12.5153 C   0  0  0  0  0  0  0  0  0  0  0  0
   48.6739   17.3955  -15.2733 C   0  0  0  0  0  0  0  0  0  0  0  0
   49.1226   16.1407  -14.5704 C   0  0  0  0  0  0  0  0  0  0  0  0
   40.6627   12.1341  -16.9508 C   0  0  0  0  0  0  0  0  0  0  0  0
   40.2636   11.4780  -18.1206 C   0  0  0  0  0  0  0  0  0  0  0  0
   38.9724   11.0431  -18.2371 C   0  0  0  0  0  0  0  0  0  0  0  0
   38.0130   11.2100  -17.2587 C   0  0  0  0  0  0  0  0  0  0  0  0
   38.4132   11.8527  -16.1176 C   0  0  0  0  0  0  0  0  0  0  0  0
   39.7286   12.3058  -15.9759 C   0  0  0  0  0  0  0  0  0  0  0  0
   36.6935   10.7469  -17.4191 O   0  0  0  0  0  0  0  0  0  0  0  0
   35.7361   11.3210  -16.5794 C   0  0  0  0  0  0  0  0  0  0  0  0
   35.9909   12.4885  -15.8923 C   0  0  0  0  0  0  0  0  0  0  0  0
   34.9991   13.0195  -15.0664 C   0  0  0  0  0  0  0  0  0  0  0  0
   33.8382   12.3559  -14.9861 N   0  0  0  0  0  0  0  0  0  0  0  0
   33.5816   11.2185  -15.6516 C   0  0  0  0  0  0  0  0  0  0  0  0
   34.5430   10.7183  -16.4421 N   0  0  0  0  0  0  0  0  0  0  0  0
   35.2097   14.2143  -14.3402 N   0  0  0  0  0  0  0  0  0  0  0  0
   36.0461   14.1830  -13.1656 C   0  0  0  0  0  0  0  0  0  0  0  0
   34.7704   15.1071  -14.6434 H   0  0  0  0  0  0  0  0  0  0  0  0
 24 25  1  0  0  0
 25 18  1  0  0  0
 18 19  1  0  0  0
 19 20  1  0  0  0
 20 21  1  0  0  0
 21 17  1  0  0  0
 17  7  1  0  0  0
  7  8  2  0  0  0
  8  9  1  0  0  0
  9 10  2  0  0  0
 10  1  1  0  0  0
  1  2  1  0  0  0
  2  3  2  0  0  0
  2  4  1  0  0  0
  4 26  1  0  0  0
 26 27  2  0  0  0
 27 28  1  0  0  0
 28 29  2  0  0  0
 29 32  1  0  0  0
 32 33  1  0  0  0
 33 34  2  0  0  0
 34 35  1  0  0  0
 35 39  1  0  0  0
 39 40  1  0  0  0
 35 36  2  0  0  0
 36 37  1  0  0  0
 37 38  2  0  0  0
 29 30  1  0  0  0
 30 31  2  0  0  0
 10 11  1  0  0  0
 11 12  2  0  0  0
 12 13  1  0  0  0
 13 14  1  0  0  0
 13 15  1  0  0  0
 13 16  1  0  0  0
 21 22  1  0  0  0
 22 23  1  0  0  0
 23 18  1  0  0  0
 12  7  1  0  0  0
 31 26  1  0  0  0
 38 33  1  0  0  0
  1  5  1  0  0  0
  4  6  1  0  0  0
 39 41  1  0  0  0
M  END
> <minimizedAffinity>
-8.10061

> <CNNscore>
0.3779548109

> <CNNaffinity>
6.7467865944

> <CNN_VS>
2.5499804020

> <CNNaffinity_variance>
0.0759241432

$$$$
[H]c1nc(Oc2c([H])c([H])c(N([H])C(=O)N([H])c3c([H])c([H])c(C([H])([H])N4C([H])([H])C([H])([H])N(C([H])([H])C([H])([H])[H])C([H])([H])C4([H])[H])c(C(F)(F)F)c3[H])c([H])c2[H])c([H])c(N([H])C([H])([H])[H])n1


 41 44  0  0  0  0  0  0  0  0999 V2000
   34.6291   15.6906  -11.7929 N   0  0  0  0  0  0  0  0  0  0  0  0
   35.1387   14.6008  -12.5447 C   0  0  0  0  0  0  0  0  0  0  0  0
   35.9959   13.8098  -12.1028 O   0  0  0  0  0  0  0  0  0  0  0  0
   34.6501   14.4030  -13.8601 N   0  0  0  0  0  0  0  0  0  0  0  0
   33.9061   16.3066  -12.2546 H   0  0  0  0  0  0  0  0  0  0  0  0
   33.9166   15.0822  -14.2149 H   0  0  0  0  0  0  0  0  0  0  0  0
   36.1397   16.6412   -7.9791 C   0  0  0  0  0  0  0  0  0  0  0  0
   34.9532   15.9778   -8.0600 C   0  0  0  0  0  0  0  0  0  0  0  0
   34.4178   15.6545   -9.3184 C   0  0  0  0  0  0  0  0  0  0  0  0
   35.0331   15.9732  -10.4886 C   0  0  0  0  0  0  0  0  0  0  0  0
   36.2499   16.6544  -10.3559 C   0  0  0  0  0  0  0  0  0  0  0  0
   36.8148   16.9937   -9.1555 C   0  0  0  0  0  0  0  0  0  0  0  0
   38.1028   17.7164   -9.1121 C   0  0  0  0  0  0  0  0  0  0  0  0
   38.4759   18.0136  -10.4331 F   0  0  0  0  0  0  0  0  0  0  0  0
   39.1460   16.9953   -8.6060 F   0  0  0  0  0  0  0  0  0  0  0  0
   37.9863   18.9883   -8.5348 F   0  0  0  0  0  0  0  0  0  0  0  0
   36.7203   16.9586   -6.6804 C   0  0  0  0  0  0  0  0  0  0  0  0
   36.9114   13.6791   -4.5399 N   0  0  0  0  0  0  0  0  0  0  0  0
   36.8627   13.6309   -5.9658 C   0  0  0  0  0  0  0  0  0  0  0  0
   37.6481   14.7154   -6.6622 C   0  0  0  0  0  0  0  0  0  0  0  0
   37.5524   15.9985   -6.0607 N   0  0  0  0  0  0  0  0  0  0  0  0
   37.3593   16.0161   -4.6398 C   0  0  0  0  0  0  0  0  0  0  0  0
   37.7937   14.6976   -4.0377 C   0  0  0  0  0  0  0  0  0  0  0  0
   34.5338   13.8058   -5.1532 C   0  0  0  0  0  0  0  0  0  0  0  0
   35.5561   13.8279   -4.0466 C   0  0  0  0  0  0  0  0  0  0  0  0
   35.0871   13.3703  -14.7010 C   0  0  0  0  0  0  0  0  0  0  0  0
   36.4202   13.4428  -15.1202 C   0  0  0  0  0  0  0  0  0  0  0  0
   36.9254   12.4549  -15.9194 C   0  0  0  0  0  0  0  0  0  0  0  0
   36.1953   11.3659  -16.3515 C   0  0  0  0  0  0  0  0  0  0  0  0
   34.8920   11.3036  -15.9356 C   0  0  0  0  0  0  0  0  0  0  0  0
   34.3538   12.3021  -15.1178 C   0  0  0  0  0  0  0  0  0  0  0  0
   36.7543   10.3702  -17.1746 O   0  0  0  0  0  0  0  0  0  0  0  0
   37.8795   10.7455  -17.9124 C   0  0  0  0  0  0  0  0  0  0  0  0
   39.0219   11.2076  -17.2949 C   0  0  0  0  0  0  0  0  0  0  0  0
   40.1180   11.5691  -18.0795 C   0  0  0  0  0  0  0  0  0  0  0  0
   39.9974   11.4452  -19.4079 N   0  0  0  0  0  0  0  0  0  0  0  0
   38.8888   10.9962  -20.0176 C   0  0  0  0  0  0  0  0  0  0  0  0
   37.8421   10.6520  -19.2524 N   0  0  0  0  0  0  0  0  0  0  0  0
   41.3132   12.0487  -17.4957 N   0  0  0  0  0  0  0  0  0  0  0  0
   41.2425   12.7883  -16.2596 C   0  0  0  0  0  0  0  0  0  0  0  0
   42.2343   11.8741  -17.9465 H   0  0  0  0  0  0  0  0  0  0  0  0
 24 25  1  0  0  0
 25 18  1  0  0  0
 18 19  1  0  0  0
 19 20  1  0  0  0
 20 21  1  0  0  0
 21 17  1  0  0  0
 17  7  1  0  0  0
  7  8  2  0  0  0
  8  9  1  0  0  0
  9 10  2  0  0  0
 10  1  1  0  0  0
  1  2  1  0  0  0
  2  3  2  0  0  0
  2  4  1  0  0  0
  4 26  1  0  0  0
 26 27  2  0  0  0
 27 28  1  0  0  0
 28 29  2  0  0  0
 29 32  1  0  0  0
 32 33  1  0  0  0
 33 34  2  0  0  0
 34 35  1  0  0  0
 35 39  1  0  0  0
 39 40  1  0  0  0
 35 36  2  0  0  0
 36 37  1  0  0  0
 37 38  2  0  0  0
 29 30  1  0  0  0
 30 31  2  0  0  0
 10 11  1  0  0  0
 11 12  2  0  0  0
 12 13  1  0  0  0
 13 14  1  0  0  0
 13 15  1  0  0  0
 13 16  1  0  0  0
 21 22  1  0  0  0
 22 23  1  0  0  0
 23 18  1  0  0  0
 12  7  1  0  0  0
 31 26  1  0  0  0
 38 33  1  0  0  0
  1  5  1  0  0  0
  4  6  1  0  0  0
 39 41  1  0  0  0
M  END
> <minimizedAffinity>
-9.20135

> <CNNscore>
0.3484655619

> <CNNaffinity>
6.7293534279

> <CNN_VS>
2.3449478149

> <CNNaffinity_variance>
0.1757206172

$$$$
[H]c1nc(Oc2c([H])c([H])c(N([H])C(=O)N([H])c3c([H])c([H])c(C([H])([H])N4C([H])([H])C([H])([H])N(C([H])([H])C([H])([H])[H])C([H])([H])C4([H])[H])c(C(F)(F)F)c3[H])c([H])c2[H])c([H])c(N([H])C([H])([H])[H])n1


 41 44  0  0  0  0  0  0  0  0999 V2000
   44.1007   13.4892  -15.8832 N   0  0  0  0  0  0  0  0  0  0  0  0
   42.7411   13.0866  -15.8414 C   0  0  0  0  0  0  0  0  0  0  0  0
   42.0472   13.1362  -14.8061 O   0  0  0  0  0  0  0  0  0  0  0  0
   42.1443   12.6051  -17.0331 N   0  0  0  0  0  0  0  0  0  0  0  0
   44.6058   13.4082  -16.8072 H   0  0  0  0  0  0  0  0  0  0  0  0
   42.7489   12.5773  -17.9043 H   0  0  0  0  0  0  0  0  0  0  0  0
   46.1785   14.6752  -12.4182 C   0  0  0  0  0  0  0  0  0  0  0  0
   45.6660   15.6411  -13.2296 C   0  0  0  0  0  0  0  0  0  0  0  0
   44.9755   15.2779  -14.3984 C   0  0  0  0  0  0  0  0  0  0  0  0
   44.7845   13.9846  -14.7735 C   0  0  0  0  0  0  0  0  0  0  0  0
   45.3288   13.0267  -13.9086 C   0  0  0  0  0  0  0  0  0  0  0  0
   46.0100   13.3263  -12.7592 C   0  0  0  0  0  0  0  0  0  0  0  0
   46.5530   12.2476  -11.9080 C   0  0  0  0  0  0  0  0  0  0  0  0
   45.6917   12.0893  -10.8099 F   0  0  0  0  0  0  0  0  0  0  0  0
   47.7755   12.5119  -11.3605 F   0  0  0  0  0  0  0  0  0  0  0  0
   46.4912   10.9917  -12.5273 F   0  0  0  0  0  0  0  0  0  0  0  0
   46.8729   15.0367  -11.1887 C   0  0  0  0  0  0  0  0  0  0  0  0
   46.8514   16.5718   -7.5809 N   0  0  0  0  0  0  0  0  0  0  0  0
   46.6535   17.3890   -8.7345 C   0  0  0  0  0  0  0  0  0  0  0  0
   45.8279   16.7525   -9.8260 C   0  0  0  0  0  0  0  0  0  0  0  0
   46.1020   15.3777  -10.0539 N   0  0  0  0  0  0  0  0  0  0  0  0
   46.5350   14.6235   -8.9136 C   0  0  0  0  0  0  0  0  0  0  0  0
   46.1308   15.3287   -7.6373 C   0  0  0  0  0  0  0  0  0  0  0  0
   48.6268   15.8950   -6.0204 C   0  0  0  0  0  0  0  0  0  0  0  0
   48.2775   16.3778   -7.4042 C   0  0  0  0  0  0  0  0  0  0  0  0
   40.8148   12.1680  -17.1112 C   0  0  0  0  0  0  0  0  0  0  0  0
   40.4621   11.4815  -18.2784 C   0  0  0  0  0  0  0  0  0  0  0  0
   39.1894   10.9999  -18.4132 C   0  0  0  0  0  0  0  0  0  0  0  0
   38.2055   11.1472  -17.4561 C   0  0  0  0  0  0  0  0  0  0  0  0
   38.5605   11.8199  -16.3174 C   0  0  0  0  0  0  0  0  0  0  0  0
   39.8562   12.3209  -16.1572 C   0  0  0  0  0  0  0  0  0  0  0  0
   36.9063   10.6358  -17.6350 O   0  0  0  0  0  0  0  0  0  0  0  0
   35.9332   11.1131  -16.7538 C   0  0  0  0  0  0  0  0  0  0  0  0
   36.2680   11.8929  -15.6677 C   0  0  0  0  0  0  0  0  0  0  0  0
   35.2563   12.3436  -14.8187 C   0  0  0  0  0  0  0  0  0  0  0  0
   33.9980   11.9884  -15.1105 N   0  0  0  0  0  0  0  0  0  0  0  0
   33.6629   11.2293  -16.1659 C   0  0  0  0  0  0  0  0  0  0  0  0
   34.6445   10.8024  -16.9744 N   0  0  0  0  0  0  0  0  0  0  0  0
   35.5463   13.1461  -13.6912 N   0  0  0  0  0  0  0  0  0  0  0  0
   36.2480   14.3921  -13.8789 C   0  0  0  0  0  0  0  0  0  0  0  0
   35.2604   12.8478  -12.7366 H   0  0  0  0  0  0  0  0  0  0  0  0
 24 25  1  0  0  0
 25 18  1  0  0  0
 18 19  1  0  0  0
 19 20  1  0  0  0
 20 21  1  0  0  0
 21 17  1  0  0  0
 17  7  1  0  0  0
  7  8  2  0  0  0
  8  9  1  0  0  0
  9 10  2  0  0  0
 10  1  1  0  0  0
  1  2  1  0  0  0
  2  3  2  0  0  0
  2  4  1  0  0  0
  4 26  1  0  0  0
 26 27  2  0  0  0
 27 28  1  0  0  0
 28 29  2  0  0  0
 29 32  1  0  0  0
 32 33  1  0  0  0
 33 34  2  0  0  0
 34 35  1  0  0  0
 35 39  1  0  0  0
 39 40  1  0  0  0
 35 36  2  0  0  0
 36 37  1  0  0  0
 37 38  2  0  0  0
 29 30  1  0  0  0
 30 31  2  0  0  0
 10 11  1  0  0  0
 11 12  2  0  0  0
 12 13  1  0  0  0
 13 14  1  0  0  0
 13 15  1  0  0  0
 13 16  1  0  0  0
 21 22  1  0  0  0
 22 23  1  0  0  0
 23 18  1  0  0  0
 12  7  1  0  0  0
 31 26  1  0  0  0
 38 33  1  0  0  0
  1  5  1  0  0  0
  4  6  1  0  0  0
 39 41  1  0  0  0
M  END
> <minimizedAffinity>
-8.11874

> <CNNscore>
0.3311254978

> <CNNaffinity>
6.6687364578

> <CNN_VS>
2.2081887722

> <CNNaffinity_variance>
0.0746243745

$$$$
[H]c1nc(Oc2c([H])c([H])c(N([H])C(=O)N([H])c3c([H])c([H])c(C([H])([H])N4C([H])([H])C([H])([H])N(C([H])([H])C([H])([H])[H])C([H])([H])C4([H])[H])c(C(F)(F)F)c3[H])c([H])c2[H])c([H])c(N([H])C([H])([H])[H])n1


 41 44  0  0  0  0  0  0  0  0999 V2000
   34.7094   15.6126  -10.0652 N   0  0  0  0  0  0  0  0  0  0  0  0
   35.1670   14.6735  -11.0249 C   0  0  0  0  0  0  0  0  0  0  0  0
   36.1294   13.9062  -10.8226 O   0  0  0  0  0  0  0  0  0  0  0  0
   34.4982   14.6051  -12.2724 N   0  0  0  0  0  0  0  0  0  0  0  0
   33.8874   16.2205  -10.3301 H   0  0  0  0  0  0  0  0  0  0  0  0
   33.6780   15.2610  -12.4224 H   0  0  0  0  0  0  0  0  0  0  0  0
   36.4357   16.3827   -6.3026 C   0  0  0  0  0  0  0  0  0  0  0  0
   36.4367   15.1026   -6.7670 C   0  0  0  0  0  0  0  0  0  0  0  0
   35.8598   14.8116   -8.0148 C   0  0  0  0  0  0  0  0  0  0  0  0
   35.2877   15.7593   -8.8049 C   0  0  0  0  0  0  0  0  0  0  0  0
   35.3103   17.0603   -8.2864 C   0  0  0  0  0  0  0  0  0  0  0  0
   35.8582   17.3975   -7.0776 C   0  0  0  0  0  0  0  0  0  0  0  0
   35.8336   18.7986   -6.6093 C   0  0  0  0  0  0  0  0  0  0  0  0
   35.4274   19.6061   -7.6844 F   0  0  0  0  0  0  0  0  0  0  0  0
   37.0480   19.2974   -6.2342 F   0  0  0  0  0  0  0  0  0  0  0  0
   34.8301   19.0299   -5.6584 F   0  0  0  0  0  0  0  0  0  0  0  0
   37.0549   16.7035   -5.0227 C   0  0  0  0  0  0  0  0  0  0  0  0
   34.0264   14.8039   -3.4126 N   0  0  0  0  0  0  0  0  0  0  0  0
   35.1430   14.0958   -3.9508 C   0  0  0  0  0  0  0  0  0  0  0  0
   36.4823   14.7467   -3.7050 C   0  0  0  0  0  0  0  0  0  0  0  0
   36.4914   16.1600   -3.8457 N   0  0  0  0  0  0  0  0  0  0  0  0
   35.2671   16.8338   -3.5235 C   0  0  0  0  0  0  0  0  0  0  0  0
   34.4054   15.9569   -2.6414 C   0  0  0  0  0  0  0  0  0  0  0  0
   33.0979   14.0693   -5.5674 C   0  0  0  0  0  0  0  0  0  0  0  0
   33.1339   15.1376   -4.5056 C   0  0  0  0  0  0  0  0  0  0  0  0
   34.8670   13.7277  -13.3014 C   0  0  0  0  0  0  0  0  0  0  0  0
   33.8164   13.0856  -13.9663 C   0  0  0  0  0  0  0  0  0  0  0  0
   34.0982   12.2366  -15.0006 C   0  0  0  0  0  0  0  0  0  0  0  0
   35.3761   11.9624  -15.4448 C   0  0  0  0  0  0  0  0  0  0  0  0
   36.3974   12.5958  -14.7880 C   0  0  0  0  0  0  0  0  0  0  0  0
   36.1333   13.4686  -13.7279 C   0  0  0  0  0  0  0  0  0  0  0  0
   35.6227   11.0808  -16.5140 O   0  0  0  0  0  0  0  0  0  0  0  0
   36.8985   11.1446  -17.0792 C   0  0  0  0  0  0  0  0  0  0  0  0
   37.9583   11.7048  -16.3989 C   0  0  0  0  0  0  0  0  0  0  0  0
   39.2124   11.7430  -17.0100 C   0  0  0  0  0  0  0  0  0  0  0  0
   39.3182   11.2258  -18.2412 N   0  0  0  0  0  0  0  0  0  0  0  0
   38.2915   10.6784  -18.9110 C   0  0  0  0  0  0  0  0  0  0  0  0
   37.0912   10.6477  -18.3128 N   0  0  0  0  0  0  0  0  0  0  0  0
   40.3319   12.3064  -16.3553 N   0  0  0  0  0  0  0  0  0  0  0  0
   40.6976   13.6719  -16.6410 C   0  0  0  0  0  0  0  0  0  0  0  0
   40.8885   11.7492  -15.6758 H   0  0  0  0  0  0  0  0  0  0  0  0
 24 25  1  0  0  0
 25 18  1  0  0  0
 18 19  1  0  0  0
 19 20  1  0  0  0
 20 21  1  0  0  0
 21 17  1  0  0  0
 17  7  1  0  0  0
  7  8  2  0  0  0
  8  9  1  0  0  0
  9 10  2  0  0  0
 10  1  1  0  0  0
  1  2  1  0  0  0
  2  3  2  0  0  0
  2  4  1  0  0  0
  4 26  1  0  0  0
 26 27  2  0  0  0
 27 28  1  0  0  0
 28 29  2  0  0  0
 29 32  1  0  0  0
 32 33  1  0  0  0
 33 34  2  0  0  0
 34 35  1  0  0  0
 35 39  1  0  0  0
 39 40  1  0  0  0
 35 36  2  0  0  0
 36 37  1  0  0  0
 37 38  2  0  0  0
 29 30  1  0  0  0
 30 31  2  0  0  0
 10 11  1  0  0  0
 11 12  2  0  0  0
 12 13  1  0  0  0
 13 14  1  0  0  0
 13 15  1  0  0  0
 13 16  1  0  0  0
 21 22  1  0  0  0
 22 23  1  0  0  0
 23 18  1  0  0  0
 12  7  1  0  0  0
 31 26  1  0  0  0
 38 33  1  0  0  0
  1  5  1  0  0  0
  4  6  1  0  0  0
 39 41  1  0  0  0
M  END
> <minimizedAffinity>
-8.30188

> <CNNscore>
0.3277513981

> <CNNaffinity>
6.6432251930

> <CNN_VS>
2.1773264408

> <CNNaffinity_variance>
0.2606047690

$$$$
[H]c1nc(Oc2c([H])c([H])c(N([H])C(=O)N([H])c3c([H])c([H])c(C([H])([H])N4C([H])([H])C([H])([H])N(C([H])([H])C([H])([H])[H])C([H])([H])C4([H])[H])c(C(F)(F)F)c3[H])c([H])c2[H])c([H])c(N([H])C([H])([H])[H])n1


 41 44  0  0  0  0  0  0  0  0999 V2000
   44.0631   13.6259  -15.5719 N   0  0  0  0  0  0  0  0  0  0  0  0
   42.7253   13.1559  -15.5296 C   0  0  0  0  0  0  0  0  0  0  0  0
   42.0971   12.9828  -14.4660 O   0  0  0  0  0  0  0  0  0  0  0  0
   42.0730   12.8695  -16.7546 N   0  0  0  0  0  0  0  0  0  0  0  0
   44.5113   13.7388  -16.5215 H   0  0  0  0  0  0  0  0  0  0  0  0
   42.6218   13.0298  -17.6481 H   0  0  0  0  0  0  0  0  0  0  0  0
   46.1476   14.8939  -12.1400 C   0  0  0  0  0  0  0  0  0  0  0  0
   46.4609   13.6833  -12.6789 C   0  0  0  0  0  0  0  0  0  0  0  0
   45.7768   13.2276  -13.8186 C   0  0  0  0  0  0  0  0  0  0  0  0
   44.7963   13.9453  -14.4295 C   0  0  0  0  0  0  0  0  0  0  0  0
   44.5087   15.1831  -13.8405 C   0  0  0  0  0  0  0  0  0  0  0  0
   45.1440   15.6734  -12.7309 C   0  0  0  0  0  0  0  0  0  0  0  0
   44.7715   16.9912  -12.1761 C   0  0  0  0  0  0  0  0  0  0  0  0
   43.7251   17.5084  -12.9574 F   0  0  0  0  0  0  0  0  0  0  0  0
   45.7555   17.9358  -12.2367 F   0  0  0  0  0  0  0  0  0  0  0  0
   44.1846   16.8936  -10.9070 F   0  0  0  0  0  0  0  0  0  0  0  0
   46.8680   15.3913  -10.9746 C   0  0  0  0  0  0  0  0  0  0  0  0
   45.8283   15.4093   -7.1941 N   0  0  0  0  0  0  0  0  0  0  0  0
   44.9045   15.0303   -8.2143 C   0  0  0  0  0  0  0  0  0  0  0  0
   45.5029   14.2242   -9.3413 C   0  0  0  0  0  0  0  0  0  0  0  0
   46.7857   14.6596   -9.7679 N   0  0  0  0  0  0  0  0  0  0  0  0
   47.6135   15.2620   -8.7636 C   0  0  0  0  0  0  0  0  0  0  0  0
   47.1413   14.8548   -7.3849 C   0  0  0  0  0  0  0  0  0  0  0  0
   44.5755   17.4776   -7.6383 C   0  0  0  0  0  0  0  0  0  0  0  0
   45.8446   16.8570   -7.1148 C   0  0  0  0  0  0  0  0  0  0  0  0
   40.7591   12.3887  -16.8380 C   0  0  0  0  0  0  0  0  0  0  0  0
   40.4321   11.6962  -18.0091 C   0  0  0  0  0  0  0  0  0  0  0  0
   39.1765   11.1732  -18.1494 C   0  0  0  0  0  0  0  0  0  0  0  0
   38.1860   11.2832  -17.1941 C   0  0  0  0  0  0  0  0  0  0  0  0
   38.5156   11.9622  -16.0514 C   0  0  0  0  0  0  0  0  0  0  0  0
   39.7936   12.5053  -15.8857 C   0  0  0  0  0  0  0  0  0  0  0  0
   36.9050   10.7297  -17.3785 O   0  0  0  0  0  0  0  0  0  0  0  0
   35.8812   11.2831  -16.6059 C   0  0  0  0  0  0  0  0  0  0  0  0
   36.0494   12.4786  -15.9406 C   0  0  0  0  0  0  0  0  0  0  0  0
   34.9939   12.9870  -15.1823 C   0  0  0  0  0  0  0  0  0  0  0  0
   33.8598   12.2751  -15.1426 N   0  0  0  0  0  0  0  0  0  0  0  0
   33.6873   11.1102  -15.7872 C   0  0  0  0  0  0  0  0  0  0  0  0
   34.7094   10.6321  -16.5126 N   0  0  0  0  0  0  0  0  0  0  0  0
   35.1148   14.2088  -14.4810 N   0  0  0  0  0  0  0  0  0  0  0  0
   36.1128   14.3280  -13.4467 C   0  0  0  0  0  0  0  0  0  0  0  0
   34.4956   15.0146  -14.7030 H   0  0  0  0  0  0  0  0  0  0  0  0
 24 25  1  0  0  0
 25 18  1  0  0  0
 18 19  1  0  0  0
 19 20  1  0  0  0
 20 21  1  0  0  0
 21 17  1  0  0  0
 17  7  1  0  0  0
  7  8  2  0  0  0
  8  9  1  0  0  0
  9 10  2  0  0  0
 10  1  1  0  0  0
  1  2  1  0  0  0
  2  3  2  0  0  0
  2  4  1  0  0  0
  4 26  1  0  0  0
 26 27  2  0  0  0
 27 28  1  0  0  0
 28 29  2  0  0  0
 29 32  1  0  0  0
 32 33  1  0  0  0
 33 34  2  0  0  0
 34 35  1  0  0  0
 35 39  1  0  0  0
 39 40  1  0  0  0
 35 36  2  0  0  0
 36 37  1  0  0  0
 37 38  2  0  0  0
 29 30  1  0  0  0
 30 31  2  0  0  0
 10 11  1  0  0  0
 11 12  2  0  0  0
 12 13  1  0  0  0
 13 14  1  0  0  0
 13 15  1  0  0  0
 13 16  1  0  0  0
 21 22  1  0  0  0
 22 23  1  0  0  0
 23 18  1  0  0  0
 12  7  1  0  0  0
 31 26  1  0  0  0
 38 33  1  0  0  0
  1  5  1  0  0  0
  4  6  1  0  0  0
 39 41  1  0  0  0
M  END
> <minimizedAffinity>
-8.10425

> <CNNscore>
0.3198502660

> <CNNaffinity>
6.6998991966

> <CNN_VS>
2.1429646015

> <CNNaffinity_variance>
0.0677371994

$$$$
[H]c1nc(Oc2c([H])c([H])c(N([H])C(=O)N([H])c3c([H])c([H])c(C([H])([H])N4C([H])([H])C([H])([H])N(C([H])([H])C([H])([H])[H])C([H])([H])C4([H])[H])c(C(F)(F)F)c3[H])c([H])c2[H])c([H])c(N([H])C([H])([H])[H])n1


 41 44  0  0  0  0  0  0  0  0999 V2000
   44.0366   13.3394  -16.2477 N   0  0  0  0  0  0  0  0  0  0  0  0
   42.6778   13.0397  -15.9714 C   0  0  0  0  0  0  0  0  0  0  0  0
   42.1687   13.1657  -14.8397 O   0  0  0  0  0  0  0  0  0  0  0  0
   41.8614   12.5750  -17.0323 N   0  0  0  0  0  0  0  0  0  0  0  0
   44.3760   13.1989  -17.2379 H   0  0  0  0  0  0  0  0  0  0  0  0
   42.3112   12.4813  -17.9885 H   0  0  0  0  0  0  0  0  0  0  0  0
   46.9396   14.5356  -13.4420 C   0  0  0  0  0  0  0  0  0  0  0  0
   45.6787   15.0360  -13.3242 C   0  0  0  0  0  0  0  0  0  0  0  0
   44.6897   14.6635  -14.2503 C   0  0  0  0  0  0  0  0  0  0  0  0
   44.9260   13.8097  -15.2822 C   0  0  0  0  0  0  0  0  0  0  0  0
   46.2362   13.3209  -15.3632 C   0  0  0  0  0  0  0  0  0  0  0  0
   47.2364   13.6519  -14.4884 C   0  0  0  0  0  0  0  0  0  0  0  0
   48.5923   13.0886  -14.6538 C   0  0  0  0  0  0  0  0  0  0  0  0
   48.7279   12.0185  -13.7544 F   0  0  0  0  0  0  0  0  0  0  0  0
   49.6089   13.9438  -14.3385 F   0  0  0  0  0  0  0  0  0  0  0  0
   48.7675   12.4658  -15.8972 F   0  0  0  0  0  0  0  0  0  0  0  0
   47.9681   14.8917  -12.4725 C   0  0  0  0  0  0  0  0  0  0  0  0
   47.0773   18.6928  -12.8347 N   0  0  0  0  0  0  0  0  0  0  0  0
   47.0126   18.0344  -11.5698 C   0  0  0  0  0  0  0  0  0  0  0  0
   48.1088   17.0263  -11.3250 C   0  0  0  0  0  0  0  0  0  0  0  0
   48.4405   16.2238  -12.4489 N   0  0  0  0  0  0  0  0  0  0  0  0
   48.2668   16.8359  -13.7342 C   0  0  0  0  0  0  0  0  0  0  0  0
   48.2459   18.3426  -13.5961 C   0  0  0  0  0  0  0  0  0  0  0  0
   44.7454   19.3828  -13.1967 C   0  0  0  0  0  0  0  0  0  0  0  0
   45.8468   18.4176  -13.5506 C   0  0  0  0  0  0  0  0  0  0  0  0
   40.5102   12.2357  -16.8779 C   0  0  0  0  0  0  0  0  0  0  0  0
   39.7860   13.0030  -15.9586 C   0  0  0  0  0  0  0  0  0  0  0  0
   38.4549   12.7485  -15.7756 C   0  0  0  0  0  0  0  0  0  0  0  0
   37.7598   11.7648  -16.4500 C   0  0  0  0  0  0  0  0  0  0  0  0
   38.4770   11.0197  -17.3477 C   0  0  0  0  0  0  0  0  0  0  0  0
   39.8390   11.2621  -17.5518 C   0  0  0  0  0  0  0  0  0  0  0  0
   36.3883   11.5353  -16.2314 O   0  0  0  0  0  0  0  0  0  0  0  0
   35.8581   12.0670  -15.0535 C   0  0  0  0  0  0  0  0  0  0  0  0
   34.6260   12.6848  -15.0353 C   0  0  0  0  0  0  0  0  0  0  0  0
   34.1429   13.1989  -13.8311 C   0  0  0  0  0  0  0  0  0  0  0  0
   34.9143   13.0615  -12.7445 N   0  0  0  0  0  0  0  0  0  0  0  0
   36.1152   12.4614  -12.7532 C   0  0  0  0  0  0  0  0  0  0  0  0
   36.5683   11.9714  -13.9168 N   0  0  0  0  0  0  0  0  0  0  0  0
   32.8856   13.8416  -13.7583 N   0  0  0  0  0  0  0  0  0  0  0  0
   32.4346   14.3588  -12.4898 C   0  0  0  0  0  0  0  0  0  0  0  0
   32.2891   13.9435  -14.6044 H   0  0  0  0  0  0  0  0  0  0  0  0
 24 25  1  0  0  0
 25 18  1  0  0  0
 18 19  1  0  0  0
 19 20  1  0  0  0
 20 21  1  0  0  0
 21 17  1  0  0  0
 17  7  1  0  0  0
  7  8  2  0  0  0
  8  9  1  0  0  0
  9 10  2  0  0  0
 10  1  1  0  0  0
  1  2  1  0  0  0
  2  3  2  0  0  0
  2  4  1  0  0  0
  4 26  1  0  0  0
 26 27  2  0  0  0
 27 28  1  0  0  0
 28 29  2  0  0  0
 29 32  1  0  0  0
 32 33  1  0  0  0
 33 34  2  0  0  0
 34 35  1  0  0  0
 35 39  1  0  0  0
 39 40  1  0  0  0
 35 36  2  0  0  0
 36 37  1  0  0  0
 37 38  2  0  0  0
 29 30  1  0  0  0
 30 31  2  0  0  0
 10 11  1  0  0  0
 11 12  2  0  0  0
 12 13  1  0  0  0
 13 14  1  0  0  0
 13 15  1  0  0  0
 13 16  1  0  0  0
 21 22  1  0  0  0
 22 23  1  0  0  0
 23 18  1  0  0  0
 12  7  1  0  0  0
 31 26  1  0  0  0
 38 33  1  0  0  0
  1  5  1  0  0  0
  4  6  1  0  0  0
 39 41  1  0  0  0
M  END
> <minimizedAffinity>
-8.22932

> <CNNscore>
0.3109903634

> <CNNaffinity>
6.6302580833

> <CNN_VS>
2.0619463921

> <CNNaffinity_variance>
0.0560621545

$$$$
[H]c1c([H])c([H])c2c(c1[H])c1c3c(c4c5c([H])c([H])c([H])c([H])c5n5c4c1n2[C@@]1(C([H])([H])[H])O[C@]5([H])C([H])([H])[C@@]([H])(N([H])C([H])([H])[H])[C@@]1([H])OC([H])([H])[H])C(=O)N([H])C3([H])[H]


 37 44  0  0  0  0  0  0  0  0999 V2000
   36.7870   15.0641  -13.2459 C   0  0  0  0  0  0  0  0  0  0  0  0
   38.2101   14.7669  -13.0733 C   0  0  0  0  0  0  0  0  0  0  0  0
   38.4965   13.3209  -12.9763 C   0  0  0  0  0  0  0  0  0  0  0  0
   37.5571   12.4416  -12.7545 O   0  0  0  0  0  0  0  0  0  0  0  0
   36.2647   12.5707  -13.2559 C   0  0  0  0  0  0  0  0  0  0  0  0
   35.5025   11.6181  -12.3252 C   0  0  0  0  0  0  0  0  0  0  0  0
   35.8019   13.9416  -13.0781 C   0  0  0  0  0  0  0  0  0  0  0  0
   36.2687   12.0760  -14.6439 N   0  0  0  0  0  0  0  0  0  0  0  0
   35.2485   11.5666  -15.3317 C   0  0  0  0  0  0  0  0  0  0  0  0
   33.9287   11.3751  -15.0306 C   0  0  0  0  0  0  0  0  0  0  0  0
   33.0532   10.8191  -15.9362 C   0  0  0  0  0  0  0  0  0  0  0  0
   33.4803   10.4256  -17.2083 C   0  0  0  0  0  0  0  0  0  0  0  0
   34.7916   10.6144  -17.5124 C   0  0  0  0  0  0  0  0  0  0  0  0
   35.6531   11.1686  -16.6031 C   0  0  0  0  0  0  0  0  0  0  0  0
   36.9898   11.4569  -16.6838 C   0  0  0  0  0  0  0  0  0  0  0  0
   37.9467   11.2938  -17.6880 C   0  0  0  0  0  0  0  0  0  0  0  0
   37.8096   10.7280  -19.0496 C   0  0  0  0  0  0  0  0  0  0  0  0
   39.0948   10.7964  -19.6627 N   0  0  0  0  0  0  0  0  0  0  0  0
   40.0056   11.3807  -18.7257 C   0  0  0  0  0  0  0  0  0  0  0  0
   41.1917   11.5519  -19.0136 O   0  0  0  0  0  0  0  0  0  0  0  0
   39.2738   11.6812  -17.5094 C   0  0  0  0  0  0  0  0  0  0  0  0
   39.6022   12.2360  -16.2931 C   0  0  0  0  0  0  0  0  0  0  0  0
   40.7663   12.7436  -15.7450 C   0  0  0  0  0  0  0  0  0  0  0  0
   42.0400   12.8669  -16.2247 C   0  0  0  0  0  0  0  0  0  0  0  0
   43.0116   13.4298  -15.4204 C   0  0  0  0  0  0  0  0  0  0  0  0
   42.7116   13.8628  -14.1542 C   0  0  0  0  0  0  0  0  0  0  0  0
   41.4322   13.7448  -13.6574 C   0  0  0  0  0  0  0  0  0  0  0  0
   40.4776   13.1864  -14.4610 C   0  0  0  0  0  0  0  0  0  0  0  0
   39.2016   12.9650  -14.2242 N   0  0  0  0  0  0  0  0  0  0  0  0
   38.6318   12.3958  -15.2887 C   0  0  0  0  0  0  0  0  0  0  0  0
   37.3190   12.0024  -15.4849 C   0  0  0  0  0  0  0  0  0  0  0  0
   39.3084   10.4681  -20.6338 H   0  0  0  0  0  0  0  0  0  0  0  0
   37.8662   15.6094  -15.3190 C   0  0  0  0  0  0  0  0  0  0  0  0
   36.6258   15.7036  -14.5715 N   0  0  0  0  0  0  0  0  0  0  0  0
   35.9119   15.2028  -15.1426 H   0  0  0  0  0  0  0  0  0  0  0  0
   34.7124   14.3312  -13.8538 O   0  0  0  0  0  0  0  0  0  0  0  0
   33.5327   14.4353  -13.1272 C   0  0  0  0  0  0  0  0  0  0  0  0
 33 34  1  0  0  0
 34  1  1  0  0  0
  1  2  1  0  0  0
  2  3  1  0  0  0
  3  4  1  0  0  0
  4  5  1  0  0  0
  5  6  1  0  0  0
  5  7  1  0  0  0
  7 36  1  0  0  0
 36 37  1  0  0  0
  5  8  1  0  0  0
  8  9  1  0  0  0
  9 10  2  0  0  0
 10 11  1  0  0  0
 11 12  2  0  0  0
 12 13  1  0  0  0
 13 14  2  0  0  0
 14 15  1  0  0  0
 15 16  2  0  0  0
 16 17  1  0  0  0
 17 18  1  0  0  0
 18 19  1  0  0  0
 19 20  2  0  0  0
 19 21  1  0  0  0
 21 22  2  0  0  0
 22 23  1  0  0  0
 23 24  2  0  0  0
 24 25  1  0  0  0
 25 26  2  0  0  0
 26 27  1  0  0  0
 27 28  2  0  0  0
 28 29  1  0  0  0
 29 30  1  0  0  0
 30 31  2  0  0  0
  7  1  1  0  0  0
 31  8  1  0  0  0
 29  3  1  0  0  0
 14  9  1  0  0  0
 31 15  1  0  0  0
 21 16  1  0  0  0
 30 22  1  0  0  0
 28 23  1  0  0  0
 34 35  1  0  0  0
 18 32  1  0  0  0
M  END
> <minimizedAffinity>
-7.00294

> <CNNscore>
0.7400333285

> <CNNaffinity>
7.6930375099

> <CNN_VS>
5.6931042671

> <CNNaffinity_variance>
0.1844412386

$$$$
[H]c1c([H])c([H])c2c(c1[H])c1c3c(c4c5c([H])c([H])c([H])c([H])c5n5c4c1n2[C@@]1(C([H])([H])[H])O[C@]5([H])C([H])([H])[C@@]([H])(N([H])C([H])([H])[H])[C@@]1([H])OC([H])([H])[H])C(=O)N([H])C3([H])[H]


 37 44  0  0  0  0  0  0  0  0999 V2000
   36.0231   20.3044   -6.5330 C   0  0  0  0  0  0  0  0  0  0  0  0
   37.3674   20.1639   -5.9706 C   0  0  0  0  0  0  0  0  0  0  0  0
   37.4025   19.3473   -4.7400 C   0  0  0  0  0  0  0  0  0  0  0  0
   36.3203   19.0566   -4.0700 O   0  0  0  0  0  0  0  0  0  0  0  0
   35.0904   18.8254   -4.6803 C   0  0  0  0  0  0  0  0  0  0  0  0
   34.1402   19.0409   -3.4949 C   0  0  0  0  0  0  0  0  0  0  0  0
   34.8572   19.8269   -5.7137 C   0  0  0  0  0  0  0  0  0  0  0  0
   35.0703   17.4245   -5.1365 N   0  0  0  0  0  0  0  0  0  0  0  0
   34.0092   16.6408   -5.3194 C   0  0  0  0  0  0  0  0  0  0  0  0
   32.6644   16.8549   -5.1974 C   0  0  0  0  0  0  0  0  0  0  0  0
   31.7473   15.8603   -5.4531 C   0  0  0  0  0  0  0  0  0  0  0  0
   32.1560   14.5834   -5.8506 C   0  0  0  0  0  0  0  0  0  0  0  0
   33.4920   14.3660   -5.9737 C   0  0  0  0  0  0  0  0  0  0  0  0
   34.3949   15.3633   -5.7166 C   0  0  0  0  0  0  0  0  0  0  0  0
   35.7633   15.3816   -5.7775 C   0  0  0  0  0  0  0  0  0  0  0  0
   36.7210   14.4202   -6.1078 C   0  0  0  0  0  0  0  0  0  0  0  0
   36.5489   13.0069   -6.5150 C   0  0  0  0  0  0  0  0  0  0  0  0
   37.8523   12.4732   -6.7360 N   0  0  0  0  0  0  0  0  0  0  0  0
   38.8075   13.5075   -6.4778 C   0  0  0  0  0  0  0  0  0  0  0  0
   40.0168   13.3009   -6.5971 O   0  0  0  0  0  0  0  0  0  0  0  0
   38.0856   14.7048   -6.0901 C   0  0  0  0  0  0  0  0  0  0  0  0
   38.4504   15.9829   -5.7319 C   0  0  0  0  0  0  0  0  0  0  0  0
   39.6588   16.6447   -5.6096 C   0  0  0  0  0  0  0  0  0  0  0  0
   40.9544   16.2509   -5.7941 C   0  0  0  0  0  0  0  0  0  0  0  0
   41.9716   17.1627   -5.5900 C   0  0  0  0  0  0  0  0  0  0  0  0
   41.6950   18.4500   -5.2065 C   0  0  0  0  0  0  0  0  0  0  0  0
   40.3940   18.8610   -5.0167 C   0  0  0  0  0  0  0  0  0  0  0  0
   39.3943   17.9514   -5.2212 C   0  0  0  0  0  0  0  0  0  0  0  0
   38.0903   18.0932   -5.1080 N   0  0  0  0  0  0  0  0  0  0  0  0
   37.4788   16.9435   -5.4011 C   0  0  0  0  0  0  0  0  0  0  0  0
   36.1281   16.6403   -5.4226 C   0  0  0  0  0  0  0  0  0  0  0  0
   38.0487   11.4893   -7.0356 H   0  0  0  0  0  0  0  0  0  0  0  0
   37.3675   19.6760   -8.4191 C   0  0  0  0  0  0  0  0  0  0  0  0
   36.0281   19.6498   -7.8610 N   0  0  0  0  0  0  0  0  0  0  0  0
   35.7740   18.6420   -7.7808 H   0  0  0  0  0  0  0  0  0  0  0  0
   33.8826   19.5216   -6.6609 O   0  0  0  0  0  0  0  0  0  0  0  0
   32.7593   20.3345   -6.5718 C   0  0  0  0  0  0  0  0  0  0  0  0
 33 34  1  0  0  0
 34  1  1  0  0  0
  1  2  1  0  0  0
  2  3  1  0  0  0
  3  4  1  0  0  0
  4  5  1  0  0  0
  5  6  1  0  0  0
  5  7  1  0  0  0
  7 36  1  0  0  0
 36 37  1  0  0  0
  5  8  1  0  0  0
  8  9  1  0  0  0
  9 10  2  0  0  0
 10 11  1  0  0  0
 11 12  2  0  0  0
 12 13  1  0  0  0
 13 14  2  0  0  0
 14 15  1  0  0  0
 15 16  2  0  0  0
 16 17  1  0  0  0
 17 18  1  0  0  0
 18 19  1  0  0  0
 19 20  2  0  0  0
 19 21  1  0  0  0
 21 22  2  0  0  0
 22 23  1  0  0  0
 23 24  2  0  0  0
 24 25  1  0  0  0
 25 26  2  0  0  0
 26 27  1  0  0  0
 27 28  2  0  0  0
 28 29  1  0  0  0
 29 30  1  0  0  0
 30 31  2  0  0  0
  7  1  1  0  0  0
 31  8  1  0  0  0
 29  3  1  0  0  0
 14  9  1  0  0  0
 31 15  1  0  0  0
 21 16  1  0  0  0
 30 22  1  0  0  0
 28 23  1  0  0  0
 34 35  1  0  0  0
 18 32  1  0  0  0
M  END
> <minimizedAffinity>
-5.25037

> <CNNscore>
0.2917253673

> <CNNaffinity>
5.4645805359

> <CNN_VS>
1.5941567421

> <CNNaffinity_variance>
0.0890124887

$$$$
[H]c1c([H])c([H])c2c(c1[H])c1c3c(c4c5c([H])c([H])c([H])c([H])c5n5c4c1n2[C@@]1(C([H])([H])[H])O[C@]5([H])C([H])([H])[C@@]([H])(N([H])C([H])([H])[H])[C@@]1([H])OC([H])([H])[H])C(=O)N([H])C3([H])[H]


 37 44  0  0  0  0  0  0  0  0999 V2000
   41.6430   15.0751   -8.8702 C   0  0  0  0  0  0  0  0  0  0  0  0
   42.3812   14.1790   -7.9784 C   0  0  0  0  0  0  0  0  0  0  0  0
   43.5838   13.5929   -8.6052 C   0  0  0  0  0  0  0  0  0  0  0  0
   43.7794   13.6274   -9.8956 O   0  0  0  0  0  0  0  0  0  0  0  0
   43.3805   14.6959  -10.6942 C   0  0  0  0  0  0  0  0  0  0  0  0
   43.3744   14.0303  -12.0768 C   0  0  0  0  0  0  0  0  0  0  0  0
   42.0352   15.1149  -10.3204 C   0  0  0  0  0  0  0  0  0  0  0  0
   44.4189   15.7375  -10.6045 N   0  0  0  0  0  0  0  0  0  0  0  0
   44.7183   16.6711  -11.5056 C   0  0  0  0  0  0  0  0  0  0  0  0
   44.1826   16.9945  -12.7211 C   0  0  0  0  0  0  0  0  0  0  0  0
   44.6801   18.0313  -13.4785 C   0  0  0  0  0  0  0  0  0  0  0  0
   45.7596   18.8003  -13.0327 C   0  0  0  0  0  0  0  0  0  0  0  0
   46.2953   18.4828  -11.8245 C   0  0  0  0  0  0  0  0  0  0  0  0
   45.7917   17.4492  -11.0801 C   0  0  0  0  0  0  0  0  0  0  0  0
   46.1555   16.9567   -9.8547 C   0  0  0  0  0  0  0  0  0  0  0  0
   47.1479   17.3075   -8.9368 C   0  0  0  0  0  0  0  0  0  0  0  0
   48.1713   18.3757   -9.0043 C   0  0  0  0  0  0  0  0  0  0  0  0
   48.9351   18.3002   -7.8029 N   0  0  0  0  0  0  0  0  0  0  0  0
   48.4152   17.2276   -7.0104 C   0  0  0  0  0  0  0  0  0  0  0  0
   48.9055   16.9512   -5.9138 O   0  0  0  0  0  0  0  0  0  0  0  0
   47.3089   16.6263   -7.7312 C   0  0  0  0  0  0  0  0  0  0  0  0
   46.4411   15.5870   -7.4827 C   0  0  0  0  0  0  0  0  0  0  0  0
   46.2678   14.7024   -6.4336 C   0  0  0  0  0  0  0  0  0  0  0  0
   46.9214   14.5339   -5.2453 C   0  0  0  0  0  0  0  0  0  0  0  0
   46.5056   13.5388   -4.3825 C   0  0  0  0  0  0  0  0  0  0  0  0
   45.4505   12.7244   -4.7053 C   0  0  0  0  0  0  0  0  0  0  0  0
   44.7823   12.8826   -5.8995 C   0  0  0  0  0  0  0  0  0  0  0  0
   45.2013   13.8701   -6.7467 C   0  0  0  0  0  0  0  0  0  0  0  0
   44.7371   14.2194   -7.9282 N   0  0  0  0  0  0  0  0  0  0  0  0
   45.4455   15.2415   -8.4131 C   0  0  0  0  0  0  0  0  0  0  0  0
   45.3034   15.9293   -9.6062 C   0  0  0  0  0  0  0  0  0  0  0  0
   49.7346   18.9336   -7.5661 H   0  0  0  0  0  0  0  0  0  0  0  0
   41.9333   16.3384   -6.8503 C   0  0  0  0  0  0  0  0  0  0  0  0
   41.6978   16.4316   -8.2793 N   0  0  0  0  0  0  0  0  0  0  0  0
   42.5007   16.9737   -8.6642 H   0  0  0  0  0  0  0  0  0  0  0  0
   41.6448   16.3846  -10.7400 O   0  0  0  0  0  0  0  0  0  0  0  0
   40.6116   16.3603  -11.6686 C   0  0  0  0  0  0  0  0  0  0  0  0
 33 34  1  0  0  0
 34  1  1  0  0  0
  1  2  1  0  0  0
  2  3  1  0  0  0
  3  4  1  0  0  0
  4  5  1  0  0  0
  5  6  1  0  0  0
  5  7  1  0  0  0
  7 36  1  0  0  0
 36 37  1  0  0  0
  5  8  1  0  0  0
  8  9  1  0  0  0
  9 10  2  0  0  0
 10 11  1  0  0  0
 11 12  2  0  0  0
 12 13  1  0  0  0
 13 14  2  0  0  0
 14 15  1  0  0  0
 15 16  2  0  0  0
 16 17  1  0  0  0
 17 18  1  0  0  0
 18 19  1  0  0  0
 19 20  2  0  0  0
 19 21  1  0  0  0
 21 22  2  0  0  0
 22 23  1  0  0  0
 23 24  2  0  0  0
 24 25  1  0  0  0
 25 26  2  0  0  0
 26 27  1  0  0  0
 27 28  2  0  0  0
 28 29  1  0  0  0
 29 30  1  0  0  0
 30 31  2  0  0  0
  7  1  1  0  0  0
 31  8  1  0  0  0
 29  3  1  0  0  0
 14  9  1  0  0  0
 31 15  1  0  0  0
 21 16  1  0  0  0
 30 22  1  0  0  0
 28 23  1  0  0  0
 34 35  1  0  0  0
 18 32  1  0  0  0
M  END
> <minimizedAffinity>
-4.75037

> <CNNscore>
0.2795498371

> <CNNaffinity>
5.3606123924

> <CNN_VS>
1.4985582829

> <CNNaffinity_variance>
0.0923332125

$$$$
[H]c1c([H])c([H])c2c(c1[H])c1c3c(c4c5c([H])c([H])c([H])c([H])c5n5c4c1n2[C@@]1(C([H])([H])[H])O[C@]5([H])C([H])([H])[C@@]([H])(N([H])C([H])([H])[H])[C@@]1([H])OC([H])([H])[H])C(=O)N([H])C3([H])[H]


 37 44  0  0  0  0  0  0  0  0999 V2000
   35.5878   12.5336  -12.7236 C   0  0  0  0  0  0  0  0  0  0  0  0
   35.5983   12.2752  -14.1646 C   0  0  0  0  0  0  0  0  0  0  0  0
   36.0594   13.4308  -14.9611 C   0  0  0  0  0  0  0  0  0  0  0  0
   36.1422   14.6320  -14.4561 O   0  0  0  0  0  0  0  0  0  0  0  0
   36.5048   14.8747  -13.1339 C   0  0  0  0  0  0  0  0  0  0  0  0
   35.9652   16.2991  -12.9485 C   0  0  0  0  0  0  0  0  0  0  0  0
   35.8095   13.9437  -12.2535 C   0  0  0  0  0  0  0  0  0  0  0  0
   37.9760   14.8439  -13.0575 N   0  0  0  0  0  0  0  0  0  0  0  0
   38.7608   15.4637  -12.1781 C   0  0  0  0  0  0  0  0  0  0  0  0
   38.4977   16.2539  -11.0939 C   0  0  0  0  0  0  0  0  0  0  0  0
   39.5078   16.7847  -10.3233 C   0  0  0  0  0  0  0  0  0  0  0  0
   40.8515   16.5358  -10.6196 C   0  0  0  0  0  0  0  0  0  0  0  0
   41.1180   15.7503  -11.6964 C   0  0  0  0  0  0  0  0  0  0  0  0
   40.1046   15.2279  -12.4555 C   0  0  0  0  0  0  0  0  0  0  0  0
   40.1279   14.4199  -13.5615 C   0  0  0  0  0  0  0  0  0  0  0  0
   41.1597   13.8491  -14.3100 C   0  0  0  0  0  0  0  0  0  0  0  0
   42.6270   13.9442  -14.1347 C   0  0  0  0  0  0  0  0  0  0  0  0
   43.2237   13.1714  -15.1736 N   0  0  0  0  0  0  0  0  0  0  0  0
   42.1754   12.6125  -15.9720 C   0  0  0  0  0  0  0  0  0  0  0  0
   42.4281   11.8974  -16.9437 O   0  0  0  0  0  0  0  0  0  0  0  0
   40.9053   13.0447  -15.4198 C   0  0  0  0  0  0  0  0  0  0  0  0
   39.5847   12.8352  -15.7473 C   0  0  0  0  0  0  0  0  0  0  0  0
   38.9362   12.1137  -16.7332 C   0  0  0  0  0  0  0  0  0  0  0  0
   39.3882   11.3421  -17.7666 C   0  0  0  0  0  0  0  0  0  0  0  0
   38.4735   10.7339  -18.6039 C   0  0  0  0  0  0  0  0  0  0  0  0
   37.1258   10.8963  -18.4089 C   0  0  0  0  0  0  0  0  0  0  0  0
   36.6557   11.6712  -17.3715 C   0  0  0  0  0  0  0  0  0  0  0  0
   37.5688   12.2690  -16.5483 C   0  0  0  0  0  0  0  0  0  0  0  0
   37.3784   13.0463  -15.5029 N   0  0  0  0  0  0  0  0  0  0  0  0
   38.5534   13.4143  -14.9876 C   0  0  0  0  0  0  0  0  0  0  0  0
   38.8270   14.2123  -13.8898 C   0  0  0  0  0  0  0  0  0  0  0  0
   44.2552   13.0503  -15.3067 H   0  0  0  0  0  0  0  0  0  0  0  0
   37.4431   11.0644  -13.1223 C   0  0  0  0  0  0  0  0  0  0  0  0
   36.5715   11.6178  -12.1024 N   0  0  0  0  0  0  0  0  0  0  0  0
   37.1957   12.1318  -11.4444 H   0  0  0  0  0  0  0  0  0  0  0  0
   36.3377   13.7928  -10.9734 O   0  0  0  0  0  0  0  0  0  0  0  0
   35.7418   14.6251  -10.0340 C   0  0  0  0  0  0  0  0  0  0  0  0
 33 34  1  0  0  0
 34  1  1  0  0  0
  1  2  1  0  0  0
  2  3  1  0  0  0
  3  4  1  0  0  0
  4  5  1  0  0  0
  5  6  1  0  0  0
  5  7  1  0  0  0
  7 36  1  0  0  0
 36 37  1  0  0  0
  5  8  1  0  0  0
  8  9  1  0  0  0
  9 10  2  0  0  0
 10 11  1  0  0  0
 11 12  2  0  0  0
 12 13  1  0  0  0
 13 14  2  0  0  0
 14 15  1  0  0  0
 15 16  2  0  0  0
 16 17  1  0  0  0
 17 18  1  0  0  0
 18 19  1  0  0  0
 19 20  2  0  0  0
 19 21  1  0  0  0
 21 22  2  0  0  0
 22 23  1  0  0  0
 23 24  2  0  0  0
 24 25  1  0  0  0
 25 26  2  0  0  0
 26 27  1  0  0  0
 27 28  2  0  0  0
 28 29  1  0  0  0
 29 30  1  0  0  0
 30 31  2  0  0  0
  7  1  1  0  0  0
 31  8  1  0  0  0
 29  3  1  0  0  0
 14  9  1  0  0  0
 31 15  1  0  0  0
 21 16  1  0  0  0
 30 22  1  0  0  0
 28 23  1  0  0  0
 34 35  1  0  0  0
 18 32  1  0  0  0
M  END
> <minimizedAffinity>
-7.81701

> <CNNscore>
0.2322955579

> <CNNaffinity>
6.3245744705

> <CNN_VS>
1.4691705704

> <CNNaffinity_variance>
0.1288398057

$$$$
[H]c1c([H])c([H])c2c(c1[H])c1c3c(c4c5c([H])c([H])c([H])c([H])c5n5c4c1n2[C@@]1(C([H])([H])[H])O[C@]5([H])C([H])([H])[C@@]([H])(N([H])C([H])([H])[H])[C@@]1([H])OC([H])([H])[H])C(=O)N([H])C3([H])[H]


 37 44  0  0  0  0  0  0  0  0999 V2000
   42.1695   15.7675   -8.3202 C   0  0  0  0  0  0  0  0  0  0  0  0
   43.3819   16.5604   -8.5316 C   0  0  0  0  0  0  0  0  0  0  0  0
   44.3905   16.3790   -7.4675 C   0  0  0  0  0  0  0  0  0  0  0  0
   44.0980   15.8232   -6.3228 O   0  0  0  0  0  0  0  0  0  0  0  0
   43.1787   14.7850   -6.1974 C   0  0  0  0  0  0  0  0  0  0  0  0
   42.8537   14.8728   -4.7004 C   0  0  0  0  0  0  0  0  0  0  0  0
   41.9952   15.0757   -6.9975 C   0  0  0  0  0  0  0  0  0  0  0  0
   43.8732   13.5269   -6.5231 N   0  0  0  0  0  0  0  0  0  0  0  0
   43.5795   12.2992   -6.0991 C   0  0  0  0  0  0  0  0  0  0  0  0
   42.5821   11.8044   -5.3057 C   0  0  0  0  0  0  0  0  0  0  0  0
   42.4907   10.4626   -5.0104 C   0  0  0  0  0  0  0  0  0  0  0  0
   43.4194    9.5459   -5.5130 C   0  0  0  0  0  0  0  0  0  0  0  0
   44.4126   10.0331   -6.3027 C   0  0  0  0  0  0  0  0  0  0  0  0
   44.4931   11.3701   -6.5895 C   0  0  0  0  0  0  0  0  0  0  0  0
   45.3835   12.0789   -7.3519 C   0  0  0  0  0  0  0  0  0  0  0  0
   46.5103   11.7180   -8.0938 C   0  0  0  0  0  0  0  0  0  0  0  0
   47.1284   10.3880   -8.2984 C   0  0  0  0  0  0  0  0  0  0  0  0
   48.2614   10.5783   -9.1427 N   0  0  0  0  0  0  0  0  0  0  0  0
   48.3544   11.9716   -9.4570 C   0  0  0  0  0  0  0  0  0  0  0  0
   49.2565   12.4022  -10.1782 O   0  0  0  0  0  0  0  0  0  0  0  0
   47.2604   12.6592   -8.7973 C   0  0  0  0  0  0  0  0  0  0  0  0
   46.8389   13.9679   -8.7294 C   0  0  0  0  0  0  0  0  0  0  0  0
   47.2858   15.1569   -9.2769 C   0  0  0  0  0  0  0  0  0  0  0  0
   48.3392   15.4645  -10.0914 C   0  0  0  0  0  0  0  0  0  0  0  0
   48.5307   16.7761  -10.4794 C   0  0  0  0  0  0  0  0  0  0  0  0
   47.6794   17.7652  -10.0577 C   0  0  0  0  0  0  0  0  0  0  0  0
   46.6135   17.4700   -9.2366 C   0  0  0  0  0  0  0  0  0  0  0  0
   46.4324   16.1690   -8.8580 C   0  0  0  0  0  0  0  0  0  0  0  0
   45.5047   15.6365   -8.0905 N   0  0  0  0  0  0  0  0  0  0  0  0
   45.7034   14.3211   -7.9798 C   0  0  0  0  0  0  0  0  0  0  0  0
   44.9730   13.3715   -7.2860 C   0  0  0  0  0  0  0  0  0  0  0  0
   48.8994    9.8122   -9.4628 H   0  0  0  0  0  0  0  0  0  0  0  0
   42.8822   15.2466  -10.5519 C   0  0  0  0  0  0  0  0  0  0  0  0
   42.0775   14.7942   -9.4321 N   0  0  0  0  0  0  0  0  0  0  0  0
   42.4735   13.8710   -9.1532 H   0  0  0  0  0  0  0  0  0  0  0  0
   41.1665   13.9948   -7.2895 O   0  0  0  0  0  0  0  0  0  0  0  0
   39.9133   14.0905   -6.6972 C   0  0  0  0  0  0  0  0  0  0  0  0
 33 34  1  0  0  0
 34  1  1  0  0  0
  1  2  1  0  0  0
  2  3  1  0  0  0
  3  4  1  0  0  0
  4  5  1  0  0  0
  5  6  1  0  0  0
  5  7  1  0  0  0
  7 36  1  0  0  0
 36 37  1  0  0  0
  5  8  1  0  0  0
  8  9  1  0  0  0
  9 10  2  0  0  0
 10 11  1  0  0  0
 11 12  2  0  0  0
 12 13  1  0  0  0
 13 14  2  0  0  0
 14 15  1  0  0  0
 15 16  2  0  0  0
 16 17  1  0  0  0
 17 18  1  0  0  0
 18 19  1  0  0  0
 19 20  2  0  0  0
 19 21  1  0  0  0
 21 22  2  0  0  0
 22 23  1  0  0  0
 23 24  2  0  0  0
 24 25  1  0  0  0
 25 26  2  0  0  0
 26 27  1  0  0  0
 27 28  2  0  0  0
 28 29  1  0  0  0
 29 30  1  0  0  0
 30 31  2  0  0  0
  7  1  1  0  0  0
 31  8  1  0  0  0
 29  3  1  0  0  0
 14  9  1  0  0  0
 31 15  1  0  0  0
 21 16  1  0  0  0
 30 22  1  0  0  0
 28 23  1  0  0  0
 34 35  1  0  0  0
 18 32  1  0  0  0
M  END
> <minimizedAffinity>
-5.01162

> <CNNscore>
0.1776753068

> <CNNaffinity>
5.1258711815

> <CNN_VS>
0.9107407331

> <CNNaffinity_variance>
0.2284524441

$$$$
[H]c1c([H])c([H])c2c(c1[H])c1c3c(c4c5c([H])c([H])c([H])c([H])c5n5c4c1n2[C@@]1(C([H])([H])[H])O[C@]5([H])C([H])([H])[C@@]([H])(N([H])C([H])([H])[H])[C@@]1([H])OC([H])([H])[H])C(=O)N([H])C3([H])[H]


 37 44  0  0  0  0  0  0  0  0999 V2000
   38.6116   15.9205   -9.9546 C   0  0  0  0  0  0  0  0  0  0  0  0
   37.1892   15.5945   -9.8365 C   0  0  0  0  0  0  0  0  0  0  0  0
   36.8629   14.8442   -8.6064 C   0  0  0  0  0  0  0  0  0  0  0  0
   37.7837   14.2723   -7.8786 O   0  0  0  0  0  0  0  0  0  0  0  0
   39.0554   14.8116   -7.7045 C   0  0  0  0  0  0  0  0  0  0  0  0
   39.8291   13.5703   -7.2405 C   0  0  0  0  0  0  0  0  0  0  0  0
   39.5680   15.2876   -8.9835 C   0  0  0  0  0  0  0  0  0  0  0  0
   38.9733   15.8232   -6.6362 N   0  0  0  0  0  0  0  0  0  0  0  0
   39.9450   16.2314   -5.8224 C   0  0  0  0  0  0  0  0  0  0  0  0
   41.2705   15.9110   -5.7246 C   0  0  0  0  0  0  0  0  0  0  0  0
   42.0866   16.4884   -4.7777 C   0  0  0  0  0  0  0  0  0  0  0  0
   41.5903   17.4315   -3.8723 C   0  0  0  0  0  0  0  0  0  0  0  0
   40.2731   17.7536   -3.9660 C   0  0  0  0  0  0  0  0  0  0  0  0
   39.4712   17.1726   -4.9123 C   0  0  0  0  0  0  0  0  0  0  0  0
   38.1417   17.3402   -5.1969 C   0  0  0  0  0  0  0  0  0  0  0  0
   37.1358   18.1354   -4.6435 C   0  0  0  0  0  0  0  0  0  0  0  0
   37.1935   19.0950   -3.5171 C   0  0  0  0  0  0  0  0  0  0  0  0
   35.8846   19.6383   -3.3625 N   0  0  0  0  0  0  0  0  0  0  0  0
   35.0358   19.0450   -4.3505 C   0  0  0  0  0  0  0  0  0  0  0  0
   33.8436   19.3479   -4.4299 O   0  0  0  0  0  0  0  0  0  0  0  0
   35.8307   18.1173   -5.1331 C   0  0  0  0  0  0  0  0  0  0  0  0
   35.5751   17.2771   -6.1932 C   0  0  0  0  0  0  0  0  0  0  0  0
   34.4533   16.9886   -6.9491 C   0  0  0  0  0  0  0  0  0  0  0  0
   33.1636   17.4383   -6.9033 C   0  0  0  0  0  0  0  0  0  0  0  0
   32.2474   16.9519   -7.8151 C   0  0  0  0  0  0  0  0  0  0  0  0
   32.6176   16.0284   -8.7591 C   0  0  0  0  0  0  0  0  0  0  0  0
   33.9139   15.5661   -8.8172 C   0  0  0  0  0  0  0  0  0  0  0  0
   34.8134   16.0535   -7.9105 C   0  0  0  0  0  0  0  0  0  0  0  0
   36.0913   15.7757   -7.7590 N   0  0  0  0  0  0  0  0  0  0  0  0
   36.5945   16.4804   -6.7431 C   0  0  0  0  0  0  0  0  0  0  0  0
   37.8842   16.5112   -6.2409 C   0  0  0  0  0  0  0  0  0  0  0  0
   35.6173   20.3487   -2.6411 H   0  0  0  0  0  0  0  0  0  0  0  0
   37.4175   18.0013  -10.0194 C   0  0  0  0  0  0  0  0  0  0  0  0
   38.7323   17.3956   -9.9167 N   0  0  0  0  0  0  0  0  0  0  0  0
   39.1208   17.7145   -9.0034 H   0  0  0  0  0  0  0  0  0  0  0  0
   40.6329   16.1839   -8.9271 O   0  0  0  0  0  0  0  0  0  0  0  0
   41.7906   15.6963   -9.5208 C   0  0  0  0  0  0  0  0  0  0  0  0
 33 34  1  0  0  0
 34  1  1  0  0  0
  1  2  1  0  0  0
  2  3  1  0  0  0
  3  4  1  0  0  0
  4  5  1  0  0  0
  5  6  1  0  0  0
  5  7  1  0  0  0
  7 36  1  0  0  0
 36 37  1  0  0  0
  5  8  1  0  0  0
  8  9  1  0  0  0
  9 10  2  0  0  0
 10 11  1  0  0  0
 11 12  2  0  0  0
 12 13  1  0  0  0
 13 14  2  0  0  0
 14 15  1  0  0  0
 15 16  2  0  0  0
 16 17  1  0  0  0
 17 18  1  0  0  0
 18 19  1  0  0  0
 19 20  2  0  0  0
 19 21  1  0  0  0
 21 22  2  0  0  0
 22 23  1  0  0  0
 23 24  2  0  0  0
 24 25  1  0  0  0
 25 26  2  0  0  0
 26 27  1  0  0  0
 27 28  2  0  0  0
 28 29  1  0  0  0
 29 30  1  0  0  0
 30 31  2  0  0  0
  7  1  1  0  0  0
 31  8  1  0  0  0
 29  3  1  0  0  0
 14  9  1  0  0  0
 31 15  1  0  0  0
 21 16  1  0  0  0
 30 22  1  0  0  0
 28 23  1  0  0  0
 34 35  1  0  0  0
 18 32  1  0  0  0
M  END
> <minimizedAffinity>
-5.85309

> <CNNscore>
0.1499677747

> <CNNaffinity>
5.3980431557

> <CNN_VS>
0.8095325232

> <CNNaffinity_variance>
0.2332634628

$$$$
[H]c1c([H])c([H])c2c(c1[H])c1c3c(c4c5c([H])c([H])c([H])c([H])c5n5c4c1n2[C@@]1(C([H])([H])[H])O[C@]5([H])C([H])([H])[C@@]([H])(N([H])C([H])([H])[H])[C@@]1([H])OC([H])([H])[H])C(=O)N([H])C3([H])[H]


 37 44  0  0  0  0  0  0  0  0999 V2000
   45.1877   15.7222   -6.3298 C   0  0  0  0  0  0  0  0  0  0  0  0
   45.6469   15.3130   -7.6583 C   0  0  0  0  0  0  0  0  0  0  0  0
   44.9077   14.1540   -8.1996 C   0  0  0  0  0  0  0  0  0  0  0  0
   44.1554   13.3984   -7.4460 O   0  0  0  0  0  0  0  0  0  0  0  0
   43.4147   13.8935   -6.3761 C   0  0  0  0  0  0  0  0  0  0  0  0
   43.1651   12.6040   -5.5827 C   0  0  0  0  0  0  0  0  0  0  0  0
   44.2282   14.8232   -5.6020 C   0  0  0  0  0  0  0  0  0  0  0  0
   42.1585   14.4441   -6.9146 N   0  0  0  0  0  0  0  0  0  0  0  0
   40.9894   14.5720   -6.2898 C   0  0  0  0  0  0  0  0  0  0  0  0
   40.5834   14.2969   -5.0136 C   0  0  0  0  0  0  0  0  0  0  0  0
   39.2903   14.5270   -4.6002 C   0  0  0  0  0  0  0  0  0  0  0  0
   38.3341   15.0546   -5.4736 C   0  0  0  0  0  0  0  0  0  0  0  0
   38.7333   15.3301   -6.7433 C   0  0  0  0  0  0  0  0  0  0  0  0
   40.0225   15.0970   -7.1429 C   0  0  0  0  0  0  0  0  0  0  0  0
   40.6461   15.2973   -8.3461 C   0  0  0  0  0  0  0  0  0  0  0  0
   40.2146   15.7924   -9.5786 C   0  0  0  0  0  0  0  0  0  0  0  0
   38.8791   16.2796   -9.9932 C   0  0  0  0  0  0  0  0  0  0  0  0
   38.9821   16.6714  -11.3601 N   0  0  0  0  0  0  0  0  0  0  0  0
   40.3275   16.4399  -11.7903 C   0  0  0  0  0  0  0  0  0  0  0  0
   40.6801   16.6978  -12.9428 O   0  0  0  0  0  0  0  0  0  0  0  0
   41.0738   15.8953  -10.6716 C   0  0  0  0  0  0  0  0  0  0  0  0
   42.3745   15.4863  -10.4817 C   0  0  0  0  0  0  0  0  0  0  0  0
   43.5006   15.4424  -11.2836 C   0  0  0  0  0  0  0  0  0  0  0  0
   43.7250   15.7873  -12.5868 C   0  0  0  0  0  0  0  0  0  0  0  0
   44.9890   15.6246  -13.1191 C   0  0  0  0  0  0  0  0  0  0  0  0
   46.0134   15.1238  -12.3571 C   0  0  0  0  0  0  0  0  0  0  0  0
   45.8020   14.7719  -11.0421 C   0  0  0  0  0  0  0  0  0  0  0  0
   44.5476   14.9365  -10.5245 C   0  0  0  0  0  0  0  0  0  0  0  0
   44.0951   14.6795   -9.3151 N   0  0  0  0  0  0  0  0  0  0  0  0
   42.7990   14.9894   -9.2371 C   0  0  0  0  0  0  0  0  0  0  0  0
   41.9294   14.8929   -8.1643 C   0  0  0  0  0  0  0  0  0  0  0  0
   38.1927   17.0591  -11.9284 H   0  0  0  0  0  0  0  0  0  0  0  0
   45.1809   17.7412   -7.6272 C   0  0  0  0  0  0  0  0  0  0  0  0
   44.6277   17.0870   -6.4558 N   0  0  0  0  0  0  0  0  0  0  0  0
   43.5971   17.0543   -6.6095 H   0  0  0  0  0  0  0  0  0  0  0  0
   43.5403   15.6842   -4.7501 O   0  0  0  0  0  0  0  0  0  0  0  0
   43.8917   15.5290   -3.4148 C   0  0  0  0  0  0  0  0  0  0  0  0
 33 34  1  0  0  0
 34  1  1  0  0  0
  1  2  1  0  0  0
  2  3  1  0  0  0
  3  4  1  0  0  0
  4  5  1  0  0  0
  5  6  1  0  0  0
  5  7  1  0  0  0
  7 36  1  0  0  0
 36 37  1  0  0  0
  5  8  1  0  0  0
  8  9  1  0  0  0
  9 10  2  0  0  0
 10 11  1  0  0  0
 11 12  2  0  0  0
 12 13  1  0  0  0
 13 14  2  0  0  0
 14 15  1  0  0  0
 15 16  2  0  0  0
 16 17  1  0  0  0
 17 18  1  0  0  0
 18 19  1  0  0  0
 19 20  2  0  0  0
 19 21  1  0  0  0
 21 22  2  0  0  0
 22 23  1  0  0  0
 23 24  2  0  0  0
 24 25  1  0  0  0
 25 26  2  0  0  0
 26 27  1  0  0  0
 27 28  2  0  0  0
 28 29  1  0  0  0
 29 30  1  0  0  0
 30 31  2  0  0  0
  7  1  1  0  0  0
 31  8  1  0  0  0
 29  3  1  0  0  0
 14  9  1  0  0  0
 31 15  1  0  0  0
 21 16  1  0  0  0
 30 22  1  0  0  0
 28 23  1  0  0  0
 34 35  1  0  0  0
 18 32  1  0  0  0
M  END
> <minimizedAffinity>
-6.29361

> <CNNscore>
0.1366097182

> <CNNaffinity>
5.2215762138

> <CNN_VS>
0.7133180499

> <CNNaffinity_variance>
0.1984195262

$$$$
[H]c1c([H])c([H])c2c(c1[H])c1c3c(c4c5c([H])c([H])c([H])c([H])c5n5c4c1n2[C@@]1(C([H])([H])[H])O[C@]5([H])C([H])([H])[C@@]([H])(N([H])C([H])([H])[H])[C@@]1([H])OC([H])([H])[H])C(=O)N([H])C3([H])[H]


 37 44  0  0  0  0  0  0  0  0999 V2000
   37.3921   15.3528   -9.4633 C   0  0  0  0  0  0  0  0  0  0  0  0
   35.9458   15.1298   -9.4194 C   0  0  0  0  0  0  0  0  0  0  0  0
   35.4854   14.5368   -8.1470 C   0  0  0  0  0  0  0  0  0  0  0  0
   36.3127   13.9900   -7.2977 O   0  0  0  0  0  0  0  0  0  0  0  0
   37.6041   14.4651   -7.0848 C   0  0  0  0  0  0  0  0  0  0  0  0
   38.2564   13.2350   -6.4400 C   0  0  0  0  0  0  0  0  0  0  0  0
   38.2342   14.7692   -8.3638 C   0  0  0  0  0  0  0  0  0  0  0  0
   37.5198   15.5881   -6.1345 N   0  0  0  0  0  0  0  0  0  0  0  0
   38.4599   16.0200   -5.2961 C   0  0  0  0  0  0  0  0  0  0  0  0
   39.7503   15.6305   -5.0672 C   0  0  0  0  0  0  0  0  0  0  0  0
   40.5381   16.2541   -4.1257 C   0  0  0  0  0  0  0  0  0  0  0  0
   40.0480   17.3174   -3.3611 C   0  0  0  0  0  0  0  0  0  0  0  0
   38.7658   17.7084   -3.5855 C   0  0  0  0  0  0  0  0  0  0  0  0
   37.9917   17.0804   -4.5249 C   0  0  0  0  0  0  0  0  0  0  0  0
   36.6995   17.2986   -4.9238 C   0  0  0  0  0  0  0  0  0  0  0  0
   35.7159   18.2090   -4.5313 C   0  0  0  0  0  0  0  0  0  0  0  0
   35.7632   19.2779   -3.5075 C   0  0  0  0  0  0  0  0  0  0  0  0
   34.4876   19.9145   -3.5076 N   0  0  0  0  0  0  0  0  0  0  0  0
   33.6688   19.2728   -4.4908 C   0  0  0  0  0  0  0  0  0  0  0  0
   32.5087   19.6386   -4.6896 O   0  0  0  0  0  0  0  0  0  0  0  0
   34.4490   18.2194   -5.1129 C   0  0  0  0  0  0  0  0  0  0  0  0
   34.2083   17.2883   -6.0978 C   0  0  0  0  0  0  0  0  0  0  0  0
   33.1233   16.9907   -6.9022 C   0  0  0  0  0  0  0  0  0  0  0  0
   31.8677   17.5216   -6.9992 C   0  0  0  0  0  0  0  0  0  0  0  0
   30.9840   16.9982   -7.9227 C   0  0  0  0  0  0  0  0  0  0  0  0
   31.3527   15.9582   -8.7371 C   0  0  0  0  0  0  0  0  0  0  0  0
   32.6148   15.4130   -8.6505 C   0  0  0  0  0  0  0  0  0  0  0  0
   33.4821   15.9379   -7.7335 C   0  0  0  0  0  0  0  0  0  0  0  0
   34.7245   15.5993   -7.4592 N   0  0  0  0  0  0  0  0  0  0  0  0
   35.2051   16.3760   -6.4857 C   0  0  0  0  0  0  0  0  0  0  0  0
   36.4567   16.3804   -5.8941 C   0  0  0  0  0  0  0  0  0  0  0  0
   34.2218   20.7130   -2.8845 H   0  0  0  0  0  0  0  0  0  0  0  0
   36.7829   17.3633  -10.6237 C   0  0  0  0  0  0  0  0  0  0  0  0
   37.6120   16.8133   -9.5671 N   0  0  0  0  0  0  0  0  0  0  0  0
   37.3158   17.2979   -8.6930 H   0  0  0  0  0  0  0  0  0  0  0  0
   39.3523   15.5989   -8.3196 O   0  0  0  0  0  0  0  0  0  0  0  0
   40.5370   14.9368   -8.6171 C   0  0  0  0  0  0  0  0  0  0  0  0
 33 34  1  0  0  0
 34  1  1  0  0  0
  1  2  1  0  0  0
  2  3  1  0  0  0
  3  4  1  0  0  0
  4  5  1  0  0  0
  5  6  1  0  0  0
  5  7  1  0  0  0
  7 36  1  0  0  0
 36 37  1  0  0  0
  5  8  1  0  0  0
  8  9  1  0  0  0
  9 10  2  0  0  0
 10 11  1  0  0  0
 11 12  2  0  0  0
 12 13  1  0  0  0
 13 14  2  0  0  0
 14 15  1  0  0  0
 15 16  2  0  0  0
 16 17  1  0  0  0
 17 18  1  0  0  0
 18 19  1  0  0  0
 19 20  2  0  0  0
 19 21  1  0  0  0
 21 22  2  0  0  0
 22 23  1  0  0  0
 23 24  2  0  0  0
 24 25  1  0  0  0
 25 26  2  0  0  0
 26 27  1  0  0  0
 27 28  2  0  0  0
 28 29  1  0  0  0
 29 30  1  0  0  0
 30 31  2  0  0  0
  7  1  1  0  0  0
 31  8  1  0  0  0
 29  3  1  0  0  0
 14  9  1  0  0  0
 31 15  1  0  0  0
 21 16  1  0  0  0
 30 22  1  0  0  0
 28 23  1  0  0  0
 34 35  1  0  0  0
 18 32  1  0  0  0
M  END
> <minimizedAffinity>
-6.06829

> <CNNscore>
0.1305533350

> <CNNaffinity>
5.4454736710

> <CNN_VS>
0.7109247446

> <CNNaffinity_variance>
0.1668576896

$$$$
[H]c1c([H])c([H])c2c(c1[H])c1c3c(c4c5c([H])c([H])c([H])c([H])c5n5c4c1n2[C@@]1(C([H])([H])[H])O[C@]5([H])C([H])([H])[C@@]([H])(N([H])C([H])([H])[H])[C@@]1([H])OC([H])([H])[H])C(=O)N([H])C3([H])[H]


 37 44  0  0  0  0  0  0  0  0999 V2000
   37.8317   17.2838   -9.8047 C   0  0  0  0  0  0  0  0  0  0  0  0
   36.7256   16.7781  -10.6197 C   0  0  0  0  0  0  0  0  0  0  0  0
   36.4018   15.3622  -10.3495 C   0  0  0  0  0  0  0  0  0  0  0  0
   37.2138   14.5788   -9.6925 O   0  0  0  0  0  0  0  0  0  0  0  0
   38.0123   15.0241   -8.6425 C   0  0  0  0  0  0  0  0  0  0  0  0
   39.0661   13.9097   -8.5949 C   0  0  0  0  0  0  0  0  0  0  0  0
   38.6273   16.2974   -8.9970 C   0  0  0  0  0  0  0  0  0  0  0  0
   37.1867   15.0347   -7.4220 N   0  0  0  0  0  0  0  0  0  0  0  0
   37.5944   14.9154   -6.1599 C   0  0  0  0  0  0  0  0  0  0  0  0
   38.8315   14.7918   -5.5912 C   0  0  0  0  0  0  0  0  0  0  0  0
   38.9940   14.6861   -4.2280 C   0  0  0  0  0  0  0  0  0  0  0  0
   37.8941   14.7011   -3.3646 C   0  0  0  0  0  0  0  0  0  0  0  0
   36.6621   14.8243   -3.9254 C   0  0  0  0  0  0  0  0  0  0  0  0
   36.5131   14.9288   -5.2829 C   0  0  0  0  0  0  0  0  0  0  0  0
   35.3944   15.0657   -6.0615 C   0  0  0  0  0  0  0  0  0  0  0  0
   34.0298   15.1413   -5.7740 C   0  0  0  0  0  0  0  0  0  0  0  0
   33.3283   15.0934   -4.4708 C   0  0  0  0  0  0  0  0  0  0  0  0
   31.9336   15.2126   -4.7414 N   0  0  0  0  0  0  0  0  0  0  0  0
   31.7625   15.3299   -6.1576 C   0  0  0  0  0  0  0  0  0  0  0  0
   30.6409   15.4461   -6.6554 O   0  0  0  0  0  0  0  0  0  0  0  0
   33.0732   15.2835   -6.7780 C   0  0  0  0  0  0  0  0  0  0  0  0
   33.5350   15.3476   -8.0733 C   0  0  0  0  0  0  0  0  0  0  0  0
   32.9306   15.4955   -9.3086 C   0  0  0  0  0  0  0  0  0  0  0  0
   31.6253   15.6219   -9.6930 C   0  0  0  0  0  0  0  0  0  0  0  0
   31.3278   15.7571  -11.0349 C   0  0  0  0  0  0  0  0  0  0  0  0
   32.3235   15.7657  -11.9781 C   0  0  0  0  0  0  0  0  0  0  0  0
   33.6436   15.6392  -11.6053 C   0  0  0  0  0  0  0  0  0  0  0  0
   33.9278   15.5059  -10.2749 C   0  0  0  0  0  0  0  0  0  0  0  0
   35.0900   15.3710   -9.6713 N   0  0  0  0  0  0  0  0  0  0  0  0
   34.9106   15.2705   -8.3524 C   0  0  0  0  0  0  0  0  0  0  0  0
   35.8449   15.1270   -7.3409 C   0  0  0  0  0  0  0  0  0  0  0  0
   31.1840   15.2114   -4.0102 H   0  0  0  0  0  0  0  0  0  0  0  0
   37.8510   19.6331   -9.3146 C   0  0  0  0  0  0  0  0  0  0  0  0
   37.2883   18.3507   -8.9338 N   0  0  0  0  0  0  0  0  0  0  0  0
   36.2576   18.4451   -9.0587 H   0  0  0  0  0  0  0  0  0  0  0  0
   39.1313   17.0548   -7.9421 O   0  0  0  0  0  0  0  0  0  0  0  0
   40.4899   16.8584   -7.7276 C   0  0  0  0  0  0  0  0  0  0  0  0
 33 34  1  0  0  0
 34  1  1  0  0  0
  1  2  1  0  0  0
  2  3  1  0  0  0
  3  4  1  0  0  0
  4  5  1  0  0  0
  5  6  1  0  0  0
  5  7  1  0  0  0
  7 36  1  0  0  0
 36 37  1  0  0  0
  5  8  1  0  0  0
  8  9  1  0  0  0
  9 10  2  0  0  0
 10 11  1  0  0  0
 11 12  2  0  0  0
 12 13  1  0  0  0
 13 14  2  0  0  0
 14 15  1  0  0  0
 15 16  2  0  0  0
 16 17  1  0  0  0
 17 18  1  0  0  0
 18 19  1  0  0  0
 19 20  2  0  0  0
 19 21  1  0  0  0
 21 22  2  0  0  0
 22 23  1  0  0  0
 23 24  2  0  0  0
 24 25  1  0  0  0
 25 26  2  0  0  0
 26 27  1  0  0  0
 27 28  2  0  0  0
 28 29  1  0  0  0
 29 30  1  0  0  0
 30 31  2  0  0  0
  7  1  1  0  0  0
 31  8  1  0  0  0
 29  3  1  0  0  0
 14  9  1  0  0  0
 31 15  1  0  0  0
 21 16  1  0  0  0
 30 22  1  0  0  0
 28 23  1  0  0  0
 34 35  1  0  0  0
 18 32  1  0  0  0
M  END
> <minimizedAffinity>
-5.38107

> <CNNscore>
0.1270100325

> <CNNaffinity>
5.5534143448

> <CNN_VS>
0.7053393126

> <CNNaffinity_variance>
0.1316618770

$$$$
[H]c1nc(N([H])c2c([H])c([H])c(N3C([H])([H])C([H])([H])C([H])(N4C([H])([H])C([H])([H])N(C([H])([H])[H])C([H])([H])C4([H])[H])C([H])([H])C3([H])[H])c([H])c2OC([H])([H])[H])nc(N([H])c2c([H])c([H])c([H])c([H])c2S(=O)(=O)C([H])(C([H])([H])[H])C([H])([H])[H])c1Cl


 44 48  0  0  0  0  0  0  0  0999 V2000
   34.2723   14.7094  -13.6459 N   0  0  0  0  0  0  0  0  0  0  0  0
   33.4582   15.3465  -13.9660 H   0  0  0  0  0  0  0  0  0  0  0  0
   34.5159   13.5585  -14.4413 C   0  0  0  0  0  0  0  0  0  0  0  0
   33.6022   12.8621  -15.1221 N   0  0  0  0  0  0  0  0  0  0  0  0
   33.9017   11.7833  -15.8561 C   0  0  0  0  0  0  0  0  0  0  0  0
   35.2035   11.3467  -15.9326 C   0  0  0  0  0  0  0  0  0  0  0  0
   35.6163    9.9299  -16.8933 Cl  0  0  0  0  0  0  0  0  0  0  0  0
   36.1880   12.0648  -15.2227 C   0  0  0  0  0  0  0  0  0  0  0  0
   35.7893   13.1267  -14.5196 N   0  0  0  0  0  0  0  0  0  0  0  0
   37.5085   11.5998  -15.3191 N   0  0  0  0  0  0  0  0  0  0  0  0
   37.8218   10.9823  -14.4996 H   0  0  0  0  0  0  0  0  0  0  0  0
   38.4965   11.7960  -16.2958 C   0  0  0  0  0  0  0  0  0  0  0  0
   38.4570   11.0764  -17.4713 C   0  0  0  0  0  0  0  0  0  0  0  0
   39.4370   11.2594  -18.4555 C   0  0  0  0  0  0  0  0  0  0  0  0
   40.4347   12.1612  -18.2365 C   0  0  0  0  0  0  0  0  0  0  0  0
   40.4713   12.8782  -17.0620 C   0  0  0  0  0  0  0  0  0  0  0  0
   39.5259   12.7194  -16.0827 C   0  0  0  0  0  0  0  0  0  0  0  0
   39.5851   13.6212  -14.6255 S   0  0  0  0  0  0  0  0  0  0  0  0
   38.7670   12.9326  -13.5622 O   0  0  0  0  0  0  0  0  0  0  0  0
   39.0906   15.0359  -14.7422 O   0  0  0  0  0  0  0  0  0  0  0  0
   41.2356   13.7406  -13.9622 C   0  0  0  0  0  0  0  0  0  0  0  0
   42.2464   13.2904  -14.9664 C   0  0  0  0  0  0  0  0  0  0  0  0
   41.5209   15.0520  -13.3098 C   0  0  0  0  0  0  0  0  0  0  0  0
   34.1775   15.3806  -11.3410 C   0  0  0  0  0  0  0  0  0  0  0  0
   34.7643   15.8055  -10.1631 C   0  0  0  0  0  0  0  0  0  0  0  0
   36.1222   16.0106  -10.0606 C   0  0  0  0  0  0  0  0  0  0  0  0
   36.8608   15.7693  -11.1935 C   0  0  0  0  0  0  0  0  0  0  0  0
   36.2996   15.3394  -12.4000 C   0  0  0  0  0  0  0  0  0  0  0  0
   34.9458   15.1369  -12.4961 C   0  0  0  0  0  0  0  0  0  0  0  0
   36.7155   16.4431   -8.8333 N   0  0  0  0  0  0  0  0  0  0  0  0
   35.9625   16.3083   -7.6337 C   0  0  0  0  0  0  0  0  0  0  0  0
   36.7366   16.4386   -6.3520 C   0  0  0  0  0  0  0  0  0  0  0  0
   37.7381   17.5440   -6.3459 C   0  0  0  0  0  0  0  0  0  0  0  0
   38.0491   18.0689   -7.7333 C   0  0  0  0  0  0  0  0  0  0  0  0
   38.0413   17.0113   -8.7843 C   0  0  0  0  0  0  0  0  0  0  0  0
   38.9457   17.3247   -5.6550 N   0  0  0  0  0  0  0  0  0  0  0  0
   39.2981   16.0204   -5.2758 C   0  0  0  0  0  0  0  0  0  0  0  0
   40.4145   16.0740   -4.2291 C   0  0  0  0  0  0  0  0  0  0  0  0
   41.3938   17.0451   -4.6769 N   0  0  0  0  0  0  0  0  0  0  0  0
   42.1642   16.6248   -5.8034 C   0  0  0  0  0  0  0  0  0  0  0  0
   40.8822   18.3761   -4.7395 C   0  0  0  0  0  0  0  0  0  0  0  0
   39.3559   18.3233   -4.7207 C   0  0  0  0  0  0  0  0  0  0  0  0
   32.0015   15.8692  -10.4331 C   0  0  0  0  0  0  0  0  0  0  0  0
   32.8042   15.1941  -11.3744 O   0  0  0  0  0  0  0  0  0  0  0  0
 43 44  1  0  0  0
 44 24  1  0  0  0
 24 25  2  0  0  0
 25 26  1  0  0  0
 26 27  2  0  0  0
 27 28  1  0  0  0
 28 29  2  0  0  0
 29  1  1  0  0  0
  1  3  1  0  0  0
  3  4  2  0  0  0
  4  5  1  0  0  0
  5  6  2  0  0  0
  6  7  1  0  0  0
  6  8  1  0  0  0
  8 10  1  0  0  0
 10 12  1  0  0  0
 12 13  2  0  0  0
 13 14  1  0  0  0
 14 15  2  0  0  0
 15 16  1  0  0  0
 16 17  2  0  0  0
 17 18  1  0  0  0
 18 19  2  0  0  0
 18 20  2  0  0  0
 18 21  1  0  0  0
 21 22  1  0  0  0
 21 23  1  0  0  0
  8  9  2  0  0  0
 26 30  1  0  0  0
 30 31  1  0  0  0
 31 32  1  0  0  0
 32 33  1  0  0  0
 33 34  1  0  0  0
 34 35  1  0  0  0
 33 36  1  0  0  0
 36 37  1  0  0  0
 37 38  1  0  0  0
 38 39  1  0  0  0
 39 40  1  0  0  0
 39 41  1  0  0  0
 41 42  1  0  0  0
 29 24  1  0  0  0
  9  3  1  0  0  0
 35 30  1  0  0  0
 42 36  1  0  0  0
 17 12  1  0  0  0
  1  2  1  0  0  0
 10 11  1  0  0  0
M  END
> <minimizedAffinity>
-8.79163

> <CNNscore>
0.3268491030

> <CNNaffinity>
7.5633416176

> <CNN_VS>
2.4720714092

> <CNNaffinity_variance>
0.2782112062

$$$$
[H]c1nc(N([H])c2c([H])c([H])c(N3C([H])([H])C([H])([H])C([H])(N4C([H])([H])C([H])([H])N(C([H])([H])[H])C([H])([H])C4([H])[H])C([H])([H])C3([H])[H])c([H])c2OC([H])([H])[H])nc(N([H])c2c([H])c([H])c([H])c([H])c2S(=O)(=O)C([H])(C([H])([H])[H])C([H])([H])[H])c1Cl


 44 48  0  0  0  0  0  0  0  0999 V2000
   33.9668   14.2228  -13.6945 N   0  0  0  0  0  0  0  0  0  0  0  0
   33.1768   14.8732  -14.0466 H   0  0  0  0  0  0  0  0  0  0  0  0
   34.3169   13.1445  -14.5496 C   0  0  0  0  0  0  0  0  0  0  0  0
   33.4794   12.4411  -15.3158 N   0  0  0  0  0  0  0  0  0  0  0  0
   33.8782   11.4338  -16.1025 C   0  0  0  0  0  0  0  0  0  0  0  0
   35.2072   11.0830  -16.1455 C   0  0  0  0  0  0  0  0  0  0  0  0
   35.7501    9.7612  -17.1744 Cl  0  0  0  0  0  0  0  0  0  0  0  0
   36.1126   11.8105  -15.3456 C   0  0  0  0  0  0  0  0  0  0  0  0
   35.6174   12.7969  -14.5954 N   0  0  0  0  0  0  0  0  0  0  0  0
   37.4629   11.4338  -15.4093 N   0  0  0  0  0  0  0  0  0  0  0  0
   37.7672   10.7444  -14.6456 H   0  0  0  0  0  0  0  0  0  0  0  0
   38.4905   11.7958  -16.2933 C   0  0  0  0  0  0  0  0  0  0  0  0
   38.6627   11.1019  -17.4723 C   0  0  0  0  0  0  0  0  0  0  0  0
   39.6850   11.4498  -18.3646 C   0  0  0  0  0  0  0  0  0  0  0  0
   40.5115   12.4872  -18.0523 C   0  0  0  0  0  0  0  0  0  0  0  0
   40.3370   13.1782  -16.8746 C   0  0  0  0  0  0  0  0  0  0  0  0
   39.3455   12.8594  -15.9840 C   0  0  0  0  0  0  0  0  0  0  0  0
   39.1406   13.7309  -14.5216 S   0  0  0  0  0  0  0  0  0  0  0  0
   38.8245   12.7780  -13.3962 O   0  0  0  0  0  0  0  0  0  0  0  0
   38.0590   14.7740  -14.5586 O   0  0  0  0  0  0  0  0  0  0  0  0
   40.6218   14.5896  -14.0245 C   0  0  0  0  0  0  0  0  0  0  0  0
   40.3404   15.5250  -12.8939 C   0  0  0  0  0  0  0  0  0  0  0  0
   41.7958   13.6885  -13.8333 C   0  0  0  0  0  0  0  0  0  0  0  0
   33.7219   15.3568  -11.5906 C   0  0  0  0  0  0  0  0  0  0  0  0
   34.1809   15.7379  -10.3431 C   0  0  0  0  0  0  0  0  0  0  0  0
   35.4221   15.3624   -9.8797 C   0  0  0  0  0  0  0  0  0  0  0  0
   36.1784   14.5883  -10.7258 C   0  0  0  0  0  0  0  0  0  0  0  0
   35.7451   14.1857  -11.9929 C   0  0  0  0  0  0  0  0  0  0  0  0
   34.5072   14.5631  -12.4493 C   0  0  0  0  0  0  0  0  0  0  0  0
   35.8800   15.7582   -8.5839 N   0  0  0  0  0  0  0  0  0  0  0  0
   35.5144   17.0458   -8.1015 C   0  0  0  0  0  0  0  0  0  0  0  0
   35.7096   17.2775   -6.6294 C   0  0  0  0  0  0  0  0  0  0  0  0
   36.9910   16.7417   -6.0852 C   0  0  0  0  0  0  0  0  0  0  0  0
   37.6616   15.7515   -7.0162 C   0  0  0  0  0  0  0  0  0  0  0  0
   36.6987   14.8953   -7.7665 C   0  0  0  0  0  0  0  0  0  0  0  0
   36.9724   16.2085   -4.7817 N   0  0  0  0  0  0  0  0  0  0  0  0
   36.1177   16.7665   -3.8188 C   0  0  0  0  0  0  0  0  0  0  0  0
   36.5424   16.3001   -2.4234 C   0  0  0  0  0  0  0  0  0  0  0  0
   36.8089   14.8766   -2.4953 N   0  0  0  0  0  0  0  0  0  0  0  0
   35.6423   14.0687   -2.6551 C   0  0  0  0  0  0  0  0  0  0  0  0
   37.9086   14.5498   -3.3445 C   0  0  0  0  0  0  0  0  0  0  0  0
   38.2121   15.7440   -4.2468 C   0  0  0  0  0  0  0  0  0  0  0  0
   31.3294   15.2350  -11.3484 C   0  0  0  0  0  0  0  0  0  0  0  0
   32.4618   15.7702  -11.9944 O   0  0  0  0  0  0  0  0  0  0  0  0
 43 44  1  0  0  0
 44 24  1  0  0  0
 24 25  2  0  0  0
 25 26  1  0  0  0
 26 27  2  0  0  0
 27 28  1  0  0  0
 28 29  2  0  0  0
 29  1  1  0  0  0
  1  3  1  0  0  0
  3  4  2  0  0  0
  4  5  1  0  0  0
  5  6  2  0  0  0
  6  7  1  0  0  0
  6  8  1  0  0  0
  8 10  1  0  0  0
 10 12  1  0  0  0
 12 13  2  0  0  0
 13 14  1  0  0  0
 14 15  2  0  0  0
 15 16  1  0  0  0
 16 17  2  0  0  0
 17 18  1  0  0  0
 18 19  2  0  0  0
 18 20  2  0  0  0
 18 21  1  0  0  0
 21 22  1  0  0  0
 21 23  1  0  0  0
  8  9  2  0  0  0
 26 30  1  0  0  0
 30 31  1  0  0  0
 31 32  1  0  0  0
 32 33  1  0  0  0
 33 34  1  0  0  0
 34 35  1  0  0  0
 33 36  1  0  0  0
 36 37  1  0  0  0
 37 38  1  0  0  0
 38 39  1  0  0  0
 39 40  1  0  0  0
 39 41  1  0  0  0
 41 42  1  0  0  0
 29 24  1  0  0  0
  9  3  1  0  0  0
 35 30  1  0  0  0
 42 36  1  0  0  0
 17 12  1  0  0  0
  1  2  1  0  0  0
 10 11  1  0  0  0
M  END
> <minimizedAffinity>
-8.79259

> <CNNscore>
0.2879383564

> <CNNaffinity>
7.4586319923

> <CNN_VS>
2.1476261616

> <CNNaffinity_variance>
0.1995829791

$$$$
[H]c1nc(N([H])c2c([H])c([H])c(N3C([H])([H])C([H])([H])C([H])(N4C([H])([H])C([H])([H])N(C([H])([H])[H])C([H])([H])C4([H])[H])C([H])([H])C3([H])[H])c([H])c2OC([H])([H])[H])nc(N([H])c2c([H])c([H])c([H])c([H])c2S(=O)(=O)C([H])(C([H])([H])[H])C([H])([H])[H])c1Cl


 44 48  0  0  0  0  0  0  0  0999 V2000
   34.1341   14.9393  -13.8405 N   0  0  0  0  0  0  0  0  0  0  0  0
   34.2674   15.8298  -14.4409 H   0  0  0  0  0  0  0  0  0  0  0  0
   34.3319   13.7007  -14.5062 C   0  0  0  0  0  0  0  0  0  0  0  0
   33.3839   12.9480  -15.0702 N   0  0  0  0  0  0  0  0  0  0  0  0
   33.6409   11.7869  -15.6853 C   0  0  0  0  0  0  0  0  0  0  0  0
   34.9326   11.3205  -15.7563 C   0  0  0  0  0  0  0  0  0  0  0  0
   35.2896    9.7957  -16.5615 Cl  0  0  0  0  0  0  0  0  0  0  0  0
   35.9526   12.0969  -15.1684 C   0  0  0  0  0  0  0  0  0  0  0  0
   35.5952   13.2394  -14.5786 N   0  0  0  0  0  0  0  0  0  0  0  0
   37.2619   11.5996  -15.2566 N   0  0  0  0  0  0  0  0  0  0  0  0
   37.5314   10.9193  -14.4720 H   0  0  0  0  0  0  0  0  0  0  0  0
   38.2857   11.8310  -16.1876 C   0  0  0  0  0  0  0  0  0  0  0  0
   38.3421   11.0905  -17.3494 C   0  0  0  0  0  0  0  0  0  0  0  0
   39.3590   11.3082  -18.2880 C   0  0  0  0  0  0  0  0  0  0  0  0
   40.2965   12.2649  -18.0383 C   0  0  0  0  0  0  0  0  0  0  0  0
   40.2375   13.0027  -16.8776 C   0  0  0  0  0  0  0  0  0  0  0  0
   39.2541   12.8108  -15.9427 C   0  0  0  0  0  0  0  0  0  0  0  0
   39.1940   13.7392  -14.5023 S   0  0  0  0  0  0  0  0  0  0  0  0
   38.8447   12.8519  -13.3340 O   0  0  0  0  0  0  0  0  0  0  0  0
   38.2095   14.8747  -14.5278 O   0  0  0  0  0  0  0  0  0  0  0  0
   40.7669   14.4738  -14.0965 C   0  0  0  0  0  0  0  0  0  0  0  0
   40.6411   15.3827  -12.9172 C   0  0  0  0  0  0  0  0  0  0  0  0
   41.8842   13.4869  -14.0283 C   0  0  0  0  0  0  0  0  0  0  0  0
   34.8338   15.3984  -11.5884 C   0  0  0  0  0  0  0  0  0  0  0  0
   34.5789   15.6334  -10.2497 C   0  0  0  0  0  0  0  0  0  0  0  0
   33.2970   15.6548   -9.7470 C   0  0  0  0  0  0  0  0  0  0  0  0
   32.2861   15.4300  -10.6496 C   0  0  0  0  0  0  0  0  0  0  0  0
   32.5087   15.1892  -12.0090 C   0  0  0  0  0  0  0  0  0  0  0  0
   33.7884   15.1689  -12.5040 C   0  0  0  0  0  0  0  0  0  0  0  0
   33.0489   15.9066   -8.3612 N   0  0  0  0  0  0  0  0  0  0  0  0
   32.0384   15.1486   -7.7064 C   0  0  0  0  0  0  0  0  0  0  0  0
   32.0532   15.1901   -6.2042 C   0  0  0  0  0  0  0  0  0  0  0  0
   32.2987   16.5435   -5.6269 C   0  0  0  0  0  0  0  0  0  0  0  0
   32.8557   17.5262   -6.6374 C   0  0  0  0  0  0  0  0  0  0  0  0
   33.7861   16.9029   -7.6218 C   0  0  0  0  0  0  0  0  0  0  0  0
   33.0593   16.6186   -4.4439 N   0  0  0  0  0  0  0  0  0  0  0  0
   33.6144   15.4485   -3.9036 C   0  0  0  0  0  0  0  0  0  0  0  0
   34.0480   15.7062   -2.4577 C   0  0  0  0  0  0  0  0  0  0  0  0
   34.7370   16.9815   -2.4235 N   0  0  0  0  0  0  0  0  0  0  0  0
   36.0234   16.9701   -3.0435 C   0  0  0  0  0  0  0  0  0  0  0  0
   33.8982   18.0863   -2.7599 C   0  0  0  0  0  0  0  0  0  0  0  0
   32.6440   17.5638   -3.4576 C   0  0  0  0  0  0  0  0  0  0  0  0
   37.1849   15.3212  -11.0746 C   0  0  0  0  0  0  0  0  0  0  0  0
   36.1487   15.3907  -12.0273 O   0  0  0  0  0  0  0  0  0  0  0  0
 43 44  1  0  0  0
 44 24  1  0  0  0
 24 25  2  0  0  0
 25 26  1  0  0  0
 26 27  2  0  0  0
 27 28  1  0  0  0
 28 29  2  0  0  0
 29  1  1  0  0  0
  1  3  1  0  0  0
  3  4  2  0  0  0
  4  5  1  0  0  0
  5  6  2  0  0  0
  6  7  1  0  0  0
  6  8  1  0  0  0
  8 10  1  0  0  0
 10 12  1  0  0  0
 12 13  2  0  0  0
 13 14  1  0  0  0
 14 15  2  0  0  0
 15 16  1  0  0  0
 16 17  2  0  0  0
 17 18  1  0  0  0
 18 19  2  0  0  0
 18 20  2  0  0  0
 18 21  1  0  0  0
 21 22  1  0  0  0
 21 23  1  0  0  0
  8  9  2  0  0  0
 26 30  1  0  0  0
 30 31  1  0  0  0
 31 32  1  0  0  0
 32 33  1  0  0  0
 33 34  1  0  0  0
 34 35  1  0  0  0
 33 36  1  0  0  0
 36 37  1  0  0  0
 37 38  1  0  0  0
 38 39  1  0  0  0
 39 40  1  0  0  0
 39 41  1  0  0  0
 41 42  1  0  0  0
 29 24  1  0  0  0
  9  3  1  0  0  0
 35 30  1  0  0  0
 42 36  1  0  0  0
 17 12  1  0  0  0
  1  2  1  0  0  0
 10 11  1  0  0  0
M  END
> <minimizedAffinity>
-8.51894

> <CNNscore>
0.2862206101

> <CNNaffinity>
7.2870736122

> <CNN_VS>
2.0857107639

> <CNNaffinity_variance>
0.1007100344

$$$$
[H]c1nc(N([H])c2c([H])c([H])c(N3C([H])([H])C([H])([H])C([H])(N4C([H])([H])C([H])([H])N(C([H])([H])[H])C([H])([H])C4([H])[H])C([H])([H])C3([H])[H])c([H])c2OC([H])([H])[H])nc(N([H])c2c([H])c([H])c([H])c([H])c2S(=O)(=O)C([H])(C([H])([H])[H])C([H])([H])[H])c1Cl


 44 48  0  0  0  0  0  0  0  0999 V2000
   34.2872   14.9320  -13.4951 N   0  0  0  0  0  0  0  0  0  0  0  0
   33.9951   15.8226  -14.0361 H   0  0  0  0  0  0  0  0  0  0  0  0
   34.4501   13.7540  -14.2712 C   0  0  0  0  0  0  0  0  0  0  0  0
   33.4835   13.0907  -14.9109 N   0  0  0  0  0  0  0  0  0  0  0  0
   33.7076   11.9830  -15.6288 C   0  0  0  0  0  0  0  0  0  0  0  0
   34.9833   11.4797  -15.7315 C   0  0  0  0  0  0  0  0  0  0  0  0
   35.2970   10.0242  -16.6716 Cl  0  0  0  0  0  0  0  0  0  0  0  0
   36.0223   12.1618  -15.0652 C   0  0  0  0  0  0  0  0  0  0  0  0
   35.6975   13.2568  -14.3751 N   0  0  0  0  0  0  0  0  0  0  0  0
   37.3147   11.6286  -15.1877 N   0  0  0  0  0  0  0  0  0  0  0  0
   37.5676   10.9031  -14.4389 H   0  0  0  0  0  0  0  0  0  0  0  0
   38.3392   11.8726  -16.1147 C   0  0  0  0  0  0  0  0  0  0  0  0
   38.4125   11.1290  -17.2736 C   0  0  0  0  0  0  0  0  0  0  0  0
   39.4303   11.3591  -18.2082 C   0  0  0  0  0  0  0  0  0  0  0  0
   40.3518   12.3310  -17.9575 C   0  0  0  0  0  0  0  0  0  0  0  0
   40.2758   13.0718  -16.7998 C   0  0  0  0  0  0  0  0  0  0  0  0
   39.2912   12.8681  -15.8687 C   0  0  0  0  0  0  0  0  0  0  0  0
   39.2099   13.8004  -14.4320 S   0  0  0  0  0  0  0  0  0  0  0  0
   38.9011   12.9068  -13.2571 O   0  0  0  0  0  0  0  0  0  0  0  0
   38.1861   14.9007  -14.4545 O   0  0  0  0  0  0  0  0  0  0  0  0
   40.7592   14.5914  -14.0420 C   0  0  0  0  0  0  0  0  0  0  0  0
   40.5899   15.5730  -12.9282 C   0  0  0  0  0  0  0  0  0  0  0  0
   41.8930   13.6338  -13.8851 C   0  0  0  0  0  0  0  0  0  0  0  0
   33.3099   15.3987  -11.3506 C   0  0  0  0  0  0  0  0  0  0  0  0
   33.3874   15.5814   -9.9821 C   0  0  0  0  0  0  0  0  0  0  0  0
   34.5810   15.4823   -9.3023 C   0  0  0  0  0  0  0  0  0  0  0  0
   35.6897   15.1916  -10.0595 C   0  0  0  0  0  0  0  0  0  0  0  0
   35.6465   15.0011  -11.4442 C   0  0  0  0  0  0  0  0  0  0  0  0
   34.4542   15.1013  -12.1161 C   0  0  0  0  0  0  0  0  0  0  0  0
   34.6440   15.6666   -7.8854 N   0  0  0  0  0  0  0  0  0  0  0  0
   35.1350   14.5973   -7.0855 C   0  0  0  0  0  0  0  0  0  0  0  0
   35.5120   14.9500   -5.6740 C   0  0  0  0  0  0  0  0  0  0  0  0
   34.5496   15.8596   -4.9874 C   0  0  0  0  0  0  0  0  0  0  0  0
   33.5981   16.5474   -5.9458 C   0  0  0  0  0  0  0  0  0  0  0  0
   34.2214   16.8943   -7.2552 C   0  0  0  0  0  0  0  0  0  0  0  0
   35.0782   16.8153   -4.0980 N   0  0  0  0  0  0  0  0  0  0  0  0
   36.4695   16.9609   -3.9868 C   0  0  0  0  0  0  0  0  0  0  0  0
   36.8032   17.7508   -2.7181 C   0  0  0  0  0  0  0  0  0  0  0  0
   35.8950   18.8791   -2.6483 N   0  0  0  0  0  0  0  0  0  0  0  0
   36.1481   19.8967   -3.6176 C   0  0  0  0  0  0  0  0  0  0  0  0
   34.5285   18.4961   -2.4961 C   0  0  0  0  0  0  0  0  0  0  0  0
   34.3807   17.0226   -2.8696 C   0  0  0  0  0  0  0  0  0  0  0  0
   30.9172   15.1453  -11.2581 C   0  0  0  0  0  0  0  0  0  0  0  0
   32.0757   15.5129  -11.9715 O   0  0  0  0  0  0  0  0  0  0  0  0
 43 44  1  0  0  0
 44 24  1  0  0  0
 24 25  2  0  0  0
 25 26  1  0  0  0
 26 27  2  0  0  0
 27 28  1  0  0  0
 28 29  2  0  0  0
 29  1  1  0  0  0
  1  3  1  0  0  0
  3  4  2  0  0  0
  4  5  1  0  0  0
  5  6  2  0  0  0
  6  7  1  0  0  0
  6  8  1  0  0  0
  8 10  1  0  0  0
 10 12  1  0  0  0
 12 13  2  0  0  0
 13 14  1  0  0  0
 14 15  2  0  0  0
 15 16  1  0  0  0
 16 17  2  0  0  0
 17 18  1  0  0  0
 18 19  2  0  0  0
 18 20  2  0  0  0
 18 21  1  0  0  0
 21 22  1  0  0  0
 21 23  1  0  0  0
  8  9  2  0  0  0
 26 30  1  0  0  0
 30 31  1  0  0  0
 31 32  1  0  0  0
 32 33  1  0  0  0
 33 34  1  0  0  0
 34 35  1  0  0  0
 33 36  1  0  0  0
 36 37  1  0  0  0
 37 38  1  0  0  0
 38 39  1  0  0  0
 39 40  1  0  0  0
 39 41  1  0  0  0
 41 42  1  0  0  0
 29 24  1  0  0  0
  9  3  1  0  0  0
 35 30  1  0  0  0
 42 36  1  0  0  0
 17 12  1  0  0  0
  1  2  1  0  0  0
 10 11  1  0  0  0
M  END
> <minimizedAffinity>
-8.26115

> <CNNscore>
0.2427086681

> <CNNaffinity>
7.2720870972

> <CNN_VS>
1.7649985552

> <CNNaffinity_variance>
0.1347934604

$$$$
[H]c1nc(N([H])c2c([H])c([H])c(N3C([H])([H])C([H])([H])C([H])(N4C([H])([H])C([H])([H])N(C([H])([H])[H])C([H])([H])C4([H])[H])C([H])([H])C3([H])[H])c([H])c2OC([H])([H])[H])nc(N([H])c2c([H])c([H])c([H])c([H])c2S(=O)(=O)C([H])(C([H])([H])[H])C([H])([H])[H])c1Cl


 44 48  0  0  0  0  0  0  0  0999 V2000
   33.4102   14.8433  -13.1698 N   0  0  0  0  0  0  0  0  0  0  0  0
   32.5513   15.2956  -13.6483 H   0  0  0  0  0  0  0  0  0  0  0  0
   34.1497   13.9200  -13.9554 C   0  0  0  0  0  0  0  0  0  0  0  0
   33.6484   12.8939  -14.6475 N   0  0  0  0  0  0  0  0  0  0  0  0
   34.4054   12.0598  -15.3712 C   0  0  0  0  0  0  0  0  0  0  0  0
   35.7674   12.2423  -15.4241 C   0  0  0  0  0  0  0  0  0  0  0  0
   36.7789   11.1554  -16.3708 Cl  0  0  0  0  0  0  0  0  0  0  0  0
   36.3221   13.3190  -14.7018 C   0  0  0  0  0  0  0  0  0  0  0  0
   35.4842   14.0943  -14.0106 N   0  0  0  0  0  0  0  0  0  0  0  0
   37.7138   13.4842  -14.7741 N   0  0  0  0  0  0  0  0  0  0  0  0
   38.1791   12.9707  -15.5931 H   0  0  0  0  0  0  0  0  0  0  0  0
   38.6100   14.2017  -13.9675 C   0  0  0  0  0  0  0  0  0  0  0  0
   38.1461   14.8994  -12.8725 C   0  0  0  0  0  0  0  0  0  0  0  0
   39.0277   15.6221  -12.0584 C   0  0  0  0  0  0  0  0  0  0  0  0
   40.3559   15.6277  -12.3628 C   0  0  0  0  0  0  0  0  0  0  0  0
   40.8161   14.9300  -13.4566 C   0  0  0  0  0  0  0  0  0  0  0  0
   39.9762   14.2149  -14.2697 C   0  0  0  0  0  0  0  0  0  0  0  0
   40.5656   13.3501  -15.6279 S   0  0  0  0  0  0  0  0  0  0  0  0
   40.5721   14.2442  -16.8423 O   0  0  0  0  0  0  0  0  0  0  0  0
   39.7842   12.1129  -15.9718 O   0  0  0  0  0  0  0  0  0  0  0  0
   42.2519   12.8119  -15.4163 C   0  0  0  0  0  0  0  0  0  0  0  0
   42.7821   12.2141  -16.6789 C   0  0  0  0  0  0  0  0  0  0  0  0
   43.1273   13.8370  -14.7760 C   0  0  0  0  0  0  0  0  0  0  0  0
   32.5194   15.5498  -11.0533 C   0  0  0  0  0  0  0  0  0  0  0  0
   32.6594   15.9611   -9.7405 C   0  0  0  0  0  0  0  0  0  0  0  0
   33.8960   16.0999   -9.1506 C   0  0  0  0  0  0  0  0  0  0  0  0
   34.9821   15.8069   -9.9389 C   0  0  0  0  0  0  0  0  0  0  0  0
   34.8761   15.3889  -11.2692 C   0  0  0  0  0  0  0  0  0  0  0  0
   33.6411   15.2525  -11.8517 C   0  0  0  0  0  0  0  0  0  0  0  0
   34.0245   16.5191   -7.7893 N   0  0  0  0  0  0  0  0  0  0  0  0
   33.2277   15.8718   -6.8041 C   0  0  0  0  0  0  0  0  0  0  0  0
   33.6416   16.0886   -5.3757 C   0  0  0  0  0  0  0  0  0  0  0  0
   34.0263   17.4928   -5.0512 C   0  0  0  0  0  0  0  0  0  0  0  0
   34.2903   18.3343   -6.2838 C   0  0  0  0  0  0  0  0  0  0  0  0
   34.9278   17.5741   -7.3969 C   0  0  0  0  0  0  0  0  0  0  0  0
   35.0739   17.6846   -4.1296 N   0  0  0  0  0  0  0  0  0  0  0  0
   35.9681   16.6344   -3.8713 C   0  0  0  0  0  0  0  0  0  0  0  0
   36.7528   16.9317   -2.5904 C   0  0  0  0  0  0  0  0  0  0  0  0
   37.1754   18.3178   -2.6426 N   0  0  0  0  0  0  0  0  0  0  0  0
   38.2017   18.5825   -3.5995 C   0  0  0  0  0  0  0  0  0  0  0  0
   36.0870   19.2412   -2.6316 C   0  0  0  0  0  0  0  0  0  0  0  0
   34.8012   18.4983   -2.9886 C   0  0  0  0  0  0  0  0  0  0  0  0
   30.3425   14.5223  -10.9954 C   0  0  0  0  0  0  0  0  0  0  0  0
   31.2444   15.4311  -11.5844 O   0  0  0  0  0  0  0  0  0  0  0  0
 43 44  1  0  0  0
 44 24  1  0  0  0
 24 25  2  0  0  0
 25 26  1  0  0  0
 26 27  2  0  0  0
 27 28  1  0  0  0
 28 29  2  0  0  0
 29  1  1  0  0  0
  1  3  1  0  0  0
  3  4  2  0  0  0
  4  5  1  0  0  0
  5  6  2  0  0  0
  6  7  1  0  0  0
  6  8  1  0  0  0
  8 10  1  0  0  0
 10 12  1  0  0  0
 12 13  2  0  0  0
 13 14  1  0  0  0
 14 15  2  0  0  0
 15 16  1  0  0  0
 16 17  2  0  0  0
 17 18  1  0  0  0
 18 19  2  0  0  0
 18 20  2  0  0  0
 18 21  1  0  0  0
 21 22  1  0  0  0
 21 23  1  0  0  0
  8  9  2  0  0  0
 26 30  1  0  0  0
 30 31  1  0  0  0
 31 32  1  0  0  0
 32 33  1  0  0  0
 33 34  1  0  0  0
 34 35  1  0  0  0
 33 36  1  0  0  0
 36 37  1  0  0  0
 37 38  1  0  0  0
 38 39  1  0  0  0
 39 40  1  0  0  0
 39 41  1  0  0  0
 41 42  1  0  0  0
 29 24  1  0  0  0
  9  3  1  0  0  0
 35 30  1  0  0  0
 42 36  1  0  0  0
 17 12  1  0  0  0
  1  2  1  0  0  0
 10 11  1  0  0  0
M  END
> <minimizedAffinity>
-8.85239

> <CNNscore>
0.1740900129

> <CNNaffinity>
7.2376556396

> <CNN_VS>
1.2600035667

> <CNNaffinity_variance>
0.0992006809

$$$$
[H]c1nc(N([H])c2c([H])c([H])c(N3C([H])([H])C([H])([H])C([H])(N4C([H])([H])C([H])([H])N(C([H])([H])[H])C([H])([H])C4([H])[H])C([H])([H])C3([H])[H])c([H])c2OC([H])([H])[H])nc(N([H])c2c([H])c([H])c([H])c([H])c2S(=O)(=O)C([H])(C([H])([H])[H])C([H])([H])[H])c1Cl


 44 48  0  0  0  0  0  0  0  0999 V2000
   41.1395   12.8688  -15.8758 N   0  0  0  0  0  0  0  0  0  0  0  0
   40.6746   12.3778  -16.7208 H   0  0  0  0  0  0  0  0  0  0  0  0
   42.5582   12.8275  -15.8312 C   0  0  0  0  0  0  0  0  0  0  0  0
   43.3554   12.1699  -16.6770 N   0  0  0  0  0  0  0  0  0  0  0  0
   44.6905   12.1746  -16.5778 C   0  0  0  0  0  0  0  0  0  0  0  0
   45.2999   12.8810  -15.5674 C   0  0  0  0  0  0  0  0  0  0  0  0
   47.0546   12.8989  -15.4213 Cl  0  0  0  0  0  0  0  0  0  0  0  0
   44.4803   13.5843  -14.6605 C   0  0  0  0  0  0  0  0  0  0  0  0
   43.1601   13.5177  -14.8435 N   0  0  0  0  0  0  0  0  0  0  0  0
   45.1270   14.2986  -13.6402 N   0  0  0  0  0  0  0  0  0  0  0  0
   45.5631   13.6838  -12.8768 H   0  0  0  0  0  0  0  0  0  0  0  0
   45.3077   15.6749  -13.4369 C   0  0  0  0  0  0  0  0  0  0  0  0
   45.9839   16.4279  -14.3735 C   0  0  0  0  0  0  0  0  0  0  0  0
   46.1742   17.8027  -14.1842 C   0  0  0  0  0  0  0  0  0  0  0  0
   45.6811   18.3904  -13.0581 C   0  0  0  0  0  0  0  0  0  0  0  0
   45.0063   17.6362  -12.1250 C   0  0  0  0  0  0  0  0  0  0  0  0
   44.8058   16.2900  -12.2846 C   0  0  0  0  0  0  0  0  0  0  0  0
   43.9620   15.3647  -11.1133 S   0  0  0  0  0  0  0  0  0  0  0  0
   44.9354   14.5276  -10.3220 O   0  0  0  0  0  0  0  0  0  0  0  0
   42.9150   14.4443  -11.6754 O   0  0  0  0  0  0  0  0  0  0  0  0
   43.1178   16.3821   -9.9173 C   0  0  0  0  0  0  0  0  0  0  0  0
   41.6574   16.0673   -9.8873 C   0  0  0  0  0  0  0  0  0  0  0  0
   43.7923   16.4198   -8.5867 C   0  0  0  0  0  0  0  0  0  0  0  0
   38.9849   12.8686  -14.8129 C   0  0  0  0  0  0  0  0  0  0  0  0
   38.0492   13.3916  -13.9392 C   0  0  0  0  0  0  0  0  0  0  0  0
   38.3084   14.5130  -13.1831 C   0  0  0  0  0  0  0  0  0  0  0  0
   39.5480   15.0826  -13.3451 C   0  0  0  0  0  0  0  0  0  0  0  0
   40.5166   14.5798  -14.2195 C   0  0  0  0  0  0  0  0  0  0  0  0
   40.2525   13.4620  -14.9704 C   0  0  0  0  0  0  0  0  0  0  0  0
   37.3332   15.0379  -12.2781 N   0  0  0  0  0  0  0  0  0  0  0  0
   35.9565   14.8740  -12.5977 C   0  0  0  0  0  0  0  0  0  0  0  0
   34.9865   15.1165  -11.4757 C   0  0  0  0  0  0  0  0  0  0  0  0
   35.3003   16.3086  -10.6357 C   0  0  0  0  0  0  0  0  0  0  0  0
   36.7158   16.8141  -10.8304 C   0  0  0  0  0  0  0  0  0  0  0  0
   37.7080   15.7264  -11.0663 C   0  0  0  0  0  0  0  0  0  0  0  0
   35.0273   16.2235   -9.2566 N   0  0  0  0  0  0  0  0  0  0  0  0
   33.7376   15.8744   -8.8275 C   0  0  0  0  0  0  0  0  0  0  0  0
   33.5790   16.2199   -7.3442 C   0  0  0  0  0  0  0  0  0  0  0  0
   34.7749   15.7738   -6.6561 N   0  0  0  0  0  0  0  0  0  0  0  0
   34.8921   14.3551   -6.5434 C   0  0  0  0  0  0  0  0  0  0  0  0
   35.9552   16.4608   -7.0712 C   0  0  0  0  0  0  0  0  0  0  0  0
   35.6815   17.1606   -8.4008 C   0  0  0  0  0  0  0  0  0  0  0  0
   37.4847   11.7452  -16.3246 C   0  0  0  0  0  0  0  0  0  0  0  0
   38.6579   11.7369  -15.5437 O   0  0  0  0  0  0  0  0  0  0  0  0
 43 44  1  0  0  0
 44 24  1  0  0  0
 24 25  2  0  0  0
 25 26  1  0  0  0
 26 27  2  0  0  0
 27 28  1  0  0  0
 28 29  2  0  0  0
 29  1  1  0  0  0
  1  3  1  0  0  0
  3  4  2  0  0  0
  4  5  1  0  0  0
  5  6  2  0  0  0
  6  7  1  0  0  0
  6  8  1  0  0  0
  8 10  1  0  0  0
 10 12  1  0  0  0
 12 13  2  0  0  0
 13 14  1  0  0  0
 14 15  2  0  0  0
 15 16  1  0  0  0
 16 17  2  0  0  0
 17 18  1  0  0  0
 18 19  2  0  0  0
 18 20  2  0  0  0
 18 21  1  0  0  0
 21 22  1  0  0  0
 21 23  1  0  0  0
  8  9  2  0  0  0
 26 30  1  0  0  0
 30 31  1  0  0  0
 31 32  1  0  0  0
 32 33  1  0  0  0
 33 34  1  0  0  0
 34 35  1  0  0  0
 33 36  1  0  0  0
 36 37  1  0  0  0
 37 38  1  0  0  0
 38 39  1  0  0  0
 39 40  1  0  0  0
 39 41  1  0  0  0
 41 42  1  0  0  0
 29 24  1  0  0  0
  9  3  1  0  0  0
 35 30  1  0  0  0
 42 36  1  0  0  0
 17 12  1  0  0  0
  1  2  1  0  0  0
 10 11  1  0  0  0
M  END
> <minimizedAffinity>
-8.25288

> <CNNscore>
0.0631211177

> <CNNaffinity>
6.6328330040

> <CNN_VS>
0.4186718464

> <CNNaffinity_variance>
0.7367760539

$$$$
[H]c1nc(N([H])c2c([H])c([H])c(N3C([H])([H])C([H])([H])C([H])(N4C([H])([H])C([H])([H])N(C([H])([H])[H])C([H])([H])C4([H])[H])C([H])([H])C3([H])[H])c([H])c2OC([H])([H])[H])nc(N([H])c2c([H])c([H])c([H])c([H])c2S(=O)(=O)C([H])(C([H])([H])[H])C([H])([H])[H])c1Cl


 44 48  0  0  0  0  0  0  0  0999 V2000
   41.2889   12.9865  -15.7756 N   0  0  0  0  0  0  0  0  0  0  0  0
   40.8311   12.5185  -16.6374 H   0  0  0  0  0  0  0  0  0  0  0  0
   42.7070   12.9412  -15.7190 C   0  0  0  0  0  0  0  0  0  0  0  0
   43.5191   12.4537  -16.6603 N   0  0  0  0  0  0  0  0  0  0  0  0
   44.8528   12.4432  -16.5426 C   0  0  0  0  0  0  0  0  0  0  0  0
   45.4445   12.9518  -15.4102 C   0  0  0  0  0  0  0  0  0  0  0  0
   47.1969   12.9466  -15.2380 Cl  0  0  0  0  0  0  0  0  0  0  0  0
   44.6089   13.4728  -14.4007 C   0  0  0  0  0  0  0  0  0  0  0  0
   43.2917   13.4380  -14.6119 N   0  0  0  0  0  0  0  0  0  0  0  0
   45.2378   13.9872  -13.2565 N   0  0  0  0  0  0  0  0  0  0  0  0
   46.3053   13.8800  -13.2514 H   0  0  0  0  0  0  0  0  0  0  0  0
   44.7225   14.6187  -12.1145 C   0  0  0  0  0  0  0  0  0  0  0  0
   43.9847   13.8966  -11.2005 C   0  0  0  0  0  0  0  0  0  0  0  0
   43.4618   14.5129  -10.0563 C   0  0  0  0  0  0  0  0  0  0  0  0
   43.6919   15.8409   -9.8560 C   0  0  0  0  0  0  0  0  0  0  0  0
   44.4291   16.5591  -10.7702 C   0  0  0  0  0  0  0  0  0  0  0  0
   44.9522   15.9818  -11.8976 C   0  0  0  0  0  0  0  0  0  0  0  0
   45.8694   16.8902  -13.0262 S   0  0  0  0  0  0  0  0  0  0  0  0
   45.1887   16.8747  -14.3717 O   0  0  0  0  0  0  0  0  0  0  0  0
   47.2808   16.4105  -13.2192 O   0  0  0  0  0  0  0  0  0  0  0  0
   46.0023   18.6093  -12.5728 C   0  0  0  0  0  0  0  0  0  0  0  0
   47.4009   19.1016  -12.7573 C   0  0  0  0  0  0  0  0  0  0  0  0
   44.9374   19.4662  -13.1717 C   0  0  0  0  0  0  0  0  0  0  0  0
   39.0982   13.0119  -14.7894 C   0  0  0  0  0  0  0  0  0  0  0  0
   38.1536   13.5175  -13.9152 C   0  0  0  0  0  0  0  0  0  0  0  0
   38.4311   14.5745  -13.0774 C   0  0  0  0  0  0  0  0  0  0  0  0
   39.6985   15.0982  -13.1585 C   0  0  0  0  0  0  0  0  0  0  0  0
   40.6770   14.6114  -14.0309 C   0  0  0  0  0  0  0  0  0  0  0  0
   40.3945   13.5578  -14.8635 C   0  0  0  0  0  0  0  0  0  0  0  0
   37.4459   15.0817  -12.1732 N   0  0  0  0  0  0  0  0  0  0  0  0
   36.0747   14.8262  -12.4542 C   0  0  0  0  0  0  0  0  0  0  0  0
   35.1153   15.0613  -11.3215 C   0  0  0  0  0  0  0  0  0  0  0  0
   35.3768   16.3044  -10.5395 C   0  0  0  0  0  0  0  0  0  0  0  0
   36.7565   16.8807  -10.7875 C   0  0  0  0  0  0  0  0  0  0  0  0
   37.8049   15.8420  -11.0001 C   0  0  0  0  0  0  0  0  0  0  0  0
   35.1373   16.2635   -9.1522 N   0  0  0  0  0  0  0  0  0  0  0  0
   35.5426   17.3403   -8.3488 C   0  0  0  0  0  0  0  0  0  0  0  0
   35.5358   16.9143   -6.8779 C   0  0  0  0  0  0  0  0  0  0  0  0
   34.3080   16.1820   -6.6355 N   0  0  0  0  0  0  0  0  0  0  0  0
   33.1317   16.9918   -6.6388 C   0  0  0  0  0  0  0  0  0  0  0  0
   34.2218   14.9633   -7.3733 C   0  0  0  0  0  0  0  0  0  0  0  0
   35.2452   14.9947   -8.5065 C   0  0  0  0  0  0  0  0  0  0  0  0
   37.4116   11.8136  -16.0212 C   0  0  0  0  0  0  0  0  0  0  0  0
   38.7516   11.9459  -15.6050 O   0  0  0  0  0  0  0  0  0  0  0  0
 43 44  1  0  0  0
 44 24  1  0  0  0
 24 25  2  0  0  0
 25 26  1  0  0  0
 26 27  2  0  0  0
 27 28  1  0  0  0
 28 29  2  0  0  0
 29  1  1  0  0  0
  1  3  1  0  0  0
  3  4  2  0  0  0
  4  5  1  0  0  0
  5  6  2  0  0  0
  6  7  1  0  0  0
  6  8  1  0  0  0
  8 10  1  0  0  0
 10 12  1  0  0  0
 12 13  2  0  0  0
 13 14  1  0  0  0
 14 15  2  0  0  0
 15 16  1  0  0  0
 16 17  2  0  0  0
 17 18  1  0  0  0
 18 19  2  0  0  0
 18 20  2  0  0  0
 18 21  1  0  0  0
 21 22  1  0  0  0
 21 23  1  0  0  0
  8  9  2  0  0  0
 26 30  1  0  0  0
 30 31  1  0  0  0
 31 32  1  0  0  0
 32 33  1  0  0  0
 33 34  1  0  0  0
 34 35  1  0  0  0
 33 36  1  0  0  0
 36 37  1  0  0  0
 37 38  1  0  0  0
 38 39  1  0  0  0
 39 40  1  0  0  0
 39 41  1  0  0  0
 41 42  1  0  0  0
 29 24  1  0  0  0
  9  3  1  0  0  0
 35 30  1  0  0  0
 42 36  1  0  0  0
 17 12  1  0  0  0
  1  2  1  0  0  0
 10 11  1  0  0  0
M  END
> <minimizedAffinity>
-8.07955

> <CNNscore>
0.0602416173

> <CNNaffinity>
6.6210656166

> <CNN_VS>
0.3988637030

> <CNNaffinity_variance>
0.6141880155

$$$$
[H]c1nc(N([H])c2c([H])c([H])c(N3C([H])([H])C([H])([H])C([H])(N4C([H])([H])C([H])([H])N(C([H])([H])[H])C([H])([H])C4([H])[H])C([H])([H])C3([H])[H])c([H])c2OC([H])([H])[H])nc(N([H])c2c([H])c([H])c([H])c([H])c2S(=O)(=O)C([H])(C([H])([H])[H])C([H])([H])[H])c1Cl


 44 48  0  0  0  0  0  0  0  0999 V2000
   41.3463   16.2571  -11.7127 N   0  0  0  0  0  0  0  0  0  0  0  0
   41.7263   17.2586  -11.8671 H   0  0  0  0  0  0  0  0  0  0  0  0
   41.6712   15.3036  -12.7136 C   0  0  0  0  0  0  0  0  0  0  0  0
   42.7723   14.5492  -12.7569 N   0  0  0  0  0  0  0  0  0  0  0  0
   43.0160   13.6655  -13.7326 C   0  0  0  0  0  0  0  0  0  0  0  0
   42.1083   13.5039  -14.7530 C   0  0  0  0  0  0  0  0  0  0  0  0
   42.4119   12.3463  -16.0447 Cl  0  0  0  0  0  0  0  0  0  0  0  0
   40.9369   14.2888  -14.7307 C   0  0  0  0  0  0  0  0  0  0  0  0
   40.7855   15.1414  -13.7152 N   0  0  0  0  0  0  0  0  0  0  0  0
   40.0263   14.1033  -15.7822 N   0  0  0  0  0  0  0  0  0  0  0  0
   39.7371   15.0071  -16.2827 H   0  0  0  0  0  0  0  0  0  0  0  0
   39.4238   12.9467  -16.2997 C   0  0  0  0  0  0  0  0  0  0  0  0
   40.0027   12.2828  -17.3605 C   0  0  0  0  0  0  0  0  0  0  0  0
   39.4125   11.1278  -17.8898 C   0  0  0  0  0  0  0  0  0  0  0  0
   38.2539   10.6657  -17.3414 C   0  0  0  0  0  0  0  0  0  0  0  0
   37.6784   11.3306  -16.2823 C   0  0  0  0  0  0  0  0  0  0  0  0
   38.2340   12.4622  -15.7450 C   0  0  0  0  0  0  0  0  0  0  0  0
   37.5052   13.2781  -14.4247 S   0  0  0  0  0  0  0  0  0  0  0  0
   37.4415   14.7580  -14.7079 O   0  0  0  0  0  0  0  0  0  0  0  0
   38.2050   13.0915  -13.1076 O   0  0  0  0  0  0  0  0  0  0  0  0
   35.8194   12.7665  -14.1516 C   0  0  0  0  0  0  0  0  0  0  0  0
   35.6979   11.9917  -12.8798 C   0  0  0  0  0  0  0  0  0  0  0  0
   34.8277   13.8677  -14.3280 C   0  0  0  0  0  0  0  0  0  0  0  0
   41.2988   15.8403   -9.3471 C   0  0  0  0  0  0  0  0  0  0  0  0
   40.6346   15.6530   -8.1487 C   0  0  0  0  0  0  0  0  0  0  0  0
   39.2605   15.6900   -8.0662 C   0  0  0  0  0  0  0  0  0  0  0  0
   38.5868   15.9235   -9.2404 C   0  0  0  0  0  0  0  0  0  0  0  0
   39.2270   16.1167  -10.4686 C   0  0  0  0  0  0  0  0  0  0  0  0
   40.5966   16.0786  -10.5446 C   0  0  0  0  0  0  0  0  0  0  0  0
   38.5879   15.5019   -6.8181 N   0  0  0  0  0  0  0  0  0  0  0  0
   39.3611   15.5194   -5.6239 C   0  0  0  0  0  0  0  0  0  0  0  0
   38.5906   15.6721   -4.3426 C   0  0  0  0  0  0  0  0  0  0  0  0
   37.3423   14.8586   -4.2726 C   0  0  0  0  0  0  0  0  0  0  0  0
   36.8965   14.3407   -5.6254 C   0  0  0  0  0  0  0  0  0  0  0  0
   37.1621   15.2917   -6.7427 C   0  0  0  0  0  0  0  0  0  0  0  0
   36.2354   15.4202   -3.6069 N   0  0  0  0  0  0  0  0  0  0  0  0
   36.1236   16.8155   -3.5077 C   0  0  0  0  0  0  0  0  0  0  0  0
   35.0869   17.1726   -2.4387 C   0  0  0  0  0  0  0  0  0  0  0  0
   33.9363   16.3121   -2.6338 N   0  0  0  0  0  0  0  0  0  0  0  0
   33.1684   16.6147   -3.7992 C   0  0  0  0  0  0  0  0  0  0  0  0
   34.2224   14.9297   -2.4235 C   0  0  0  0  0  0  0  0  0  0  0  0
   35.7351   14.7230   -2.4659 C   0  0  0  0  0  0  0  0  0  0  0  0
   43.3521   15.1557   -8.2921 C   0  0  0  0  0  0  0  0  0  0  0  0
   42.6841   15.7903   -9.3585 O   0  0  0  0  0  0  0  0  0  0  0  0
 43 44  1  0  0  0
 44 24  1  0  0  0
 24 25  2  0  0  0
 25 26  1  0  0  0
 26 27  2  0  0  0
 27 28  1  0  0  0
 28 29  2  0  0  0
 29  1  1  0  0  0
  1  3  1  0  0  0
  3  4  2  0  0  0
  4  5  1  0  0  0
  5  6  2  0  0  0
  6  7  1  0  0  0
  6  8  1  0  0  0
  8 10  1  0  0  0
 10 12  1  0  0  0
 12 13  2  0  0  0
 13 14  1  0  0  0
 14 15  2  0  0  0
 15 16  1  0  0  0
 16 17  2  0  0  0
 17 18  1  0  0  0
 18 19  2  0  0  0
 18 20  2  0  0  0
 18 21  1  0  0  0
 21 22  1  0  0  0
 21 23  1  0  0  0
  8  9  2  0  0  0
 26 30  1  0  0  0
 30 31  1  0  0  0
 31 32  1  0  0  0
 32 33  1  0  0  0
 33 34  1  0  0  0
 34 35  1  0  0  0
 33 36  1  0  0  0
 36 37  1  0  0  0
 37 38  1  0  0  0
 38 39  1  0  0  0
 39 40  1  0  0  0
 39 41  1  0  0  0
 41 42  1  0  0  0
 29 24  1  0  0  0
  9  3  1  0  0  0
 35 30  1  0  0  0
 42 36  1  0  0  0
 17 12  1  0  0  0
  1  2  1  0  0  0
 10 11  1  0  0  0
M  END
> <minimizedAffinity>
-8.20799

> <CNNscore>
0.0589180030

> <CNNaffinity>
6.6056222916

> <CNN_VS>
0.3891900778

> <CNNaffinity_variance>
0.2352221757

$$$$
[H]c1nc(N([H])c2c([H])c([H])c(N3C([H])([H])C([H])([H])C([H])(N4C([H])([H])C([H])([H])N(C([H])([H])[H])C([H])([H])C4([H])[H])C([H])([H])C3([H])[H])c([H])c2OC([H])([H])[H])nc(N([H])c2c([H])c([H])c([H])c([H])c2S(=O)(=O)C([H])(C([H])([H])[H])C([H])([H])[H])c1Cl


 44 48  0  0  0  0  0  0  0  0999 V2000
   39.1047   13.5743  -14.9151 N   0  0  0  0  0  0  0  0  0  0  0  0
   38.4179   13.4014  -15.7334 H   0  0  0  0  0  0  0  0  0  0  0  0
   40.4736   13.3053  -15.1799 C   0  0  0  0  0  0  0  0  0  0  0  0
   40.9563   12.6197  -16.2192 N   0  0  0  0  0  0  0  0  0  0  0  0
   42.2638   12.4036  -16.4097 C   0  0  0  0  0  0  0  0  0  0  0  0
   43.1782   12.8985  -15.5097 C   0  0  0  0  0  0  0  0  0  0  0  0
   44.9017   12.6244  -15.7440 Cl  0  0  0  0  0  0  0  0  0  0  0  0
   42.6942   13.6264  -14.4030 C   0  0  0  0  0  0  0  0  0  0  0  0
   41.3734   13.7879  -14.3014 N   0  0  0  0  0  0  0  0  0  0  0  0
   43.6480   14.1221  -13.5008 N   0  0  0  0  0  0  0  0  0  0  0  0
   44.1324   15.0247  -13.8195 H   0  0  0  0  0  0  0  0  0  0  0  0
   44.0842   13.6503  -12.2536 C   0  0  0  0  0  0  0  0  0  0  0  0
   44.4871   12.3390  -12.1143 C   0  0  0  0  0  0  0  0  0  0  0  0
   44.9235   11.8523  -10.8753 C   0  0  0  0  0  0  0  0  0  0  0  0
   44.9453   12.6939   -9.8039 C   0  0  0  0  0  0  0  0  0  0  0  0
   44.5426   14.0026   -9.9462 C   0  0  0  0  0  0  0  0  0  0  0  0
   44.1113   14.5050  -11.1460 C   0  0  0  0  0  0  0  0  0  0  0  0
   43.6141   16.1381  -11.3067 S   0  0  0  0  0  0  0  0  0  0  0  0
   43.3747   16.7382   -9.9441 O   0  0  0  0  0  0  0  0  0  0  0  0
   42.3675   16.3375  -12.1226 O   0  0  0  0  0  0  0  0  0  0  0  0
   44.8593   17.1595  -12.0714 C   0  0  0  0  0  0  0  0  0  0  0  0
   44.2608   18.0212  -13.1353 C   0  0  0  0  0  0  0  0  0  0  0  0
   45.7330   17.8670  -11.0901 C   0  0  0  0  0  0  0  0  0  0  0  0
   37.3432   13.3937  -13.2913 C   0  0  0  0  0  0  0  0  0  0  0  0
   36.6990   13.7881  -12.1329 C   0  0  0  0  0  0  0  0  0  0  0  0
   37.1698   14.8232  -11.3562 C   0  0  0  0  0  0  0  0  0  0  0  0
   38.3148   15.4416  -11.7963 C   0  0  0  0  0  0  0  0  0  0  0  0
   38.9906   15.0683  -12.9622 C   0  0  0  0  0  0  0  0  0  0  0  0
   38.5166   14.0361  -13.7322 C   0  0  0  0  0  0  0  0  0  0  0  0
   36.4966   15.2148  -10.1566 N   0  0  0  0  0  0  0  0  0  0  0  0
   35.1821   15.7487  -10.2623 C   0  0  0  0  0  0  0  0  0  0  0  0
   34.3926   15.8126   -8.9850 C   0  0  0  0  0  0  0  0  0  0  0  0
   35.1701   16.2830   -7.8021 C   0  0  0  0  0  0  0  0  0  0  0  0
   36.6688   16.2408   -8.0237 C   0  0  0  0  0  0  0  0  0  0  0  0
   37.1138   15.0881   -8.8582 C   0  0  0  0  0  0  0  0  0  0  0  0
   34.8725   15.7017   -6.5542 N   0  0  0  0  0  0  0  0  0  0  0  0
   33.9863   14.6154   -6.4914 C   0  0  0  0  0  0  0  0  0  0  0  0
   33.5245   14.4126   -5.0456 C   0  0  0  0  0  0  0  0  0  0  0  0
   34.6911   14.5150   -4.1905 N   0  0  0  0  0  0  0  0  0  0  0  0
   35.5926   13.4122   -4.2936 C   0  0  0  0  0  0  0  0  0  0  0  0
   35.2927   15.8092   -4.2079 C   0  0  0  0  0  0  0  0  0  0  0  0
   34.7877   16.5758   -5.4285 C   0  0  0  0  0  0  0  0  0  0  0  0
   35.4251   12.3062  -14.2588 C   0  0  0  0  0  0  0  0  0  0  0  0
   36.8145   12.3436  -14.0259 O   0  0  0  0  0  0  0  0  0  0  0  0
 43 44  1  0  0  0
 44 24  1  0  0  0
 24 25  2  0  0  0
 25 26  1  0  0  0
 26 27  2  0  0  0
 27 28  1  0  0  0
 28 29  2  0  0  0
 29  1  1  0  0  0
  1  3  1  0  0  0
  3  4  2  0  0  0
  4  5  1  0  0  0
  5  6  2  0  0  0
  6  7  1  0  0  0
  6  8  1  0  0  0
  8 10  1  0  0  0
 10 12  1  0  0  0
 12 13  2  0  0  0
 13 14  1  0  0  0
 14 15  2  0  0  0
 15 16  1  0  0  0
 16 17  2  0  0  0
 17 18  1  0  0  0
 18 19  2  0  0  0
 18 20  2  0  0  0
 18 21  1  0  0  0
 21 22  1  0  0  0
 21 23  1  0  0  0
  8  9  2  0  0  0
 26 30  1  0  0  0
 30 31  1  0  0  0
 31 32  1  0  0  0
 32 33  1  0  0  0
 33 34  1  0  0  0
 34 35  1  0  0  0
 33 36  1  0  0  0
 36 37  1  0  0  0
 37 38  1  0  0  0
 38 39  1  0  0  0
 39 40  1  0  0  0
 39 41  1  0  0  0
 41 42  1  0  0  0
 29 24  1  0  0  0
  9  3  1  0  0  0
 35 30  1  0  0  0
 42 36  1  0  0  0
 17 12  1  0  0  0
  1  2  1  0  0  0
 10 11  1  0  0  0
M  END
> <minimizedAffinity>
-7.52253

> <CNNscore>
0.0425379388

> <CNNaffinity>
6.6400060654

> <CNN_VS>
0.2824521661

> <CNNaffinity_variance>
0.3389868438

$$$$
[H]c1nc(N([H])[H])c2c(-c3c([H])c([H])c(C(=O)N([H])c4c([H])c([H])c([H])c(F)c4F)c([H])c3[H])nc([C@]3([H])OC([H])([H])C([H])([H])C([H])([H])N(C(=O)N([H])C([H])([H])C([H])([H])[H])C3([H])[H])n2c1[H]


 43 47  0  0  0  0  0  0  0  0999 V2000
   38.0863   13.0613  -14.0588 C   0  0  0  0  0  0  0  0  0  0  0  0
   39.0074   13.7370  -13.3740 N   0  0  0  0  0  0  0  0  0  0  0  0
   40.1833   13.7412  -14.0758 C   0  0  0  0  0  0  0  0  0  0  0  0
   39.9269   13.0327  -15.2168 C   0  0  0  0  0  0  0  0  0  0  0  0
   40.6936   12.6695  -16.3055 C   0  0  0  0  0  0  0  0  0  0  0  0
   42.0585   13.0427  -16.3491 N   0  0  0  0  0  0  0  0  0  0  0  0
   40.1936   11.9326  -17.3292 N   0  0  0  0  0  0  0  0  0  0  0  0
   38.9196   11.5502  -17.2721 C   0  0  0  0  0  0  0  0  0  0  0  0
   38.1068   11.8753  -16.2198 C   0  0  0  0  0  0  0  0  0  0  0  0
   38.6223   12.6050  -15.2174 N   0  0  0  0  0  0  0  0  0  0  0  0
   42.7323   12.5703  -15.7319 H   0  0  0  0  0  0  0  0  0  0  0  0
   42.3697   13.7809  -16.9940 H   0  0  0  0  0  0  0  0  0  0  0  0
   35.0413   15.3062  -10.6273 N   0  0  0  0  0  0  0  0  0  0  0  0
   34.2072   14.7281  -11.6060 C   0  0  0  0  0  0  0  0  0  0  0  0
   32.9611   14.9177  -11.5237 O   0  0  0  0  0  0  0  0  0  0  0  0
   34.7412   13.9354  -12.6849 N   0  0  0  0  0  0  0  0  0  0  0  0
   33.7302   13.4265  -13.5951 C   0  0  0  0  0  0  0  0  0  0  0  0
   33.9784   14.1492  -14.9283 C   0  0  0  0  0  0  0  0  0  0  0  0
   35.4596   13.9656  -15.2201 C   0  0  0  0  0  0  0  0  0  0  0  0
   35.8744   12.7264  -14.7916 O   0  0  0  0  0  0  0  0  0  0  0  0
   36.6693   12.8035  -13.6774 C   0  0  0  0  0  0  0  0  0  0  0  0
   36.1612   13.7868  -12.6758 C   0  0  0  0  0  0  0  0  0  0  0  0
   36.0630   15.1631  -10.6783 H   0  0  0  0  0  0  0  0  0  0  0  0
   35.5544   16.8928   -8.8510 C   0  0  0  0  0  0  0  0  0  0  0  0
   34.4820   16.0908   -9.5639 C   0  0  0  0  0  0  0  0  0  0  0  0
   41.4292   14.3678  -13.6190 C   0  0  0  0  0  0  0  0  0  0  0  0
   42.5787   13.5754  -13.6298 C   0  0  0  0  0  0  0  0  0  0  0  0
   43.7577   14.0724  -13.1683 C   0  0  0  0  0  0  0  0  0  0  0  0
   43.8928   15.3700  -12.6679 C   0  0  0  0  0  0  0  0  0  0  0  0
   42.7460   16.1158  -12.6726 C   0  0  0  0  0  0  0  0  0  0  0  0
   41.5367   15.6293  -13.1372 C   0  0  0  0  0  0  0  0  0  0  0  0
   45.1964   15.8417  -12.1783 C   0  0  0  0  0  0  0  0  0  0  0  0
   46.0945   14.9831  -12.1035 O   0  0  0  0  0  0  0  0  0  0  0  0
   45.3828   17.1607  -11.8314 N   0  0  0  0  0  0  0  0  0  0  0  0
   44.5327   17.8063  -11.9473 H   0  0  0  0  0  0  0  0  0  0  0  0
   46.5317   17.8174  -11.3446 C   0  0  0  0  0  0  0  0  0  0  0  0
   46.9814   17.7152  -10.0620 C   0  0  0  0  0  0  0  0  0  0  0  0
   48.1269   18.3842   -9.6204 C   0  0  0  0  0  0  0  0  0  0  0  0
   48.8472   19.1724  -10.4588 C   0  0  0  0  0  0  0  0  0  0  0  0
   48.4153   19.2947  -11.7638 C   0  0  0  0  0  0  0  0  0  0  0  0
   49.1451   20.0851  -12.5886 F   0  0  0  0  0  0  0  0  0  0  0  0
   47.2926   18.6342  -12.1825 C   0  0  0  0  0  0  0  0  0  0  0  0
   46.9237   18.7955  -13.4695 F   0  0  0  0  0  0  0  0  0  0  0  0
 24 25  1  0  0  0
 25 13  1  0  0  0
 13 14  1  0  0  0
 14 15  2  0  0  0
 14 16  1  0  0  0
 16 17  1  0  0  0
 17 18  1  0  0  0
 18 19  1  0  0  0
 19 20  1  0  0  0
 20 21  1  0  0  0
 21 22  1  0  0  0
 21  1  1  0  0  0
  1  2  2  0  0  0
  2  3  1  0  0  0
  3 26  1  0  0  0
 26 27  2  0  0  0
 27 28  1  0  0  0
 28 29  2  0  0  0
 29 30  1  0  0  0
 30 31  2  0  0  0
 29 32  1  0  0  0
 32 33  2  0  0  0
 32 34  1  0  0  0
 34 36  1  0  0  0
 36 37  2  0  0  0
 37 38  1  0  0  0
 38 39  2  0  0  0
 39 40  1  0  0  0
 40 41  1  0  0  0
 40 42  2  0  0  0
 42 43  1  0  0  0
  3  4  2  0  0  0
  4  5  1  0  0  0
  5  6  1  0  0  0
  5  7  2  0  0  0
  7  8  1  0  0  0
  8  9  2  0  0  0
  9 10  1  0  0  0
 22 16  1  0  0  0
 10  1  1  0  0  0
 31 26  1  0  0  0
 42 36  1  0  0  0
 10  4  1  0  0  0
 13 23  1  0  0  0
 34 35  1  0  0  0
  6 11  1  0  0  0
  6 12  1  0  0  0
M  END
> <minimizedAffinity>
-7.90459

> <CNNscore>
0.2636727095

> <CNNaffinity>
7.2145409584

> <CNN_VS>
1.9022775888

> <CNNaffinity_variance>
0.4199930727

$$$$
[H]c1nc(N([H])[H])c2c(-c3c([H])c([H])c(C(=O)N([H])c4c([H])c([H])c([H])c(F)c4F)c([H])c3[H])nc([C@]3([H])OC([H])([H])C([H])([H])C([H])([H])N(C(=O)N([H])C([H])([H])C([H])([H])[H])C3([H])[H])n2c1[H]


 43 47  0  0  0  0  0  0  0  0999 V2000
   37.9255   13.1096  -13.5188 C   0  0  0  0  0  0  0  0  0  0  0  0
   37.9641   13.8785  -12.4320 N   0  0  0  0  0  0  0  0  0  0  0  0
   36.6876   14.2145  -12.0674 C   0  0  0  0  0  0  0  0  0  0  0  0
   35.8770   13.6123  -12.9893 C   0  0  0  0  0  0  0  0  0  0  0  0
   34.5106   13.5818  -13.1813 C   0  0  0  0  0  0  0  0  0  0  0  0
   33.6698   14.3085  -12.3043 N   0  0  0  0  0  0  0  0  0  0  0  0
   33.9390   12.9034  -14.2080 N   0  0  0  0  0  0  0  0  0  0  0  0
   34.7312   12.2491  -15.0548 C   0  0  0  0  0  0  0  0  0  0  0  0
   36.0935   12.2415  -14.9214 C   0  0  0  0  0  0  0  0  0  0  0  0
   36.6380   12.9198  -13.8983 N   0  0  0  0  0  0  0  0  0  0  0  0
   33.6433   15.3351  -12.3634 H   0  0  0  0  0  0  0  0  0  0  0  0
   33.0919   13.8101  -11.6149 H   0  0  0  0  0  0  0  0  0  0  0  0
   38.2222   10.9532  -18.1393 N   0  0  0  0  0  0  0  0  0  0  0  0
   39.5097   11.4326  -17.8225 C   0  0  0  0  0  0  0  0  0  0  0  0
   40.4204   11.3333  -18.6921 O   0  0  0  0  0  0  0  0  0  0  0  0
   39.8035   12.0264  -16.5424 N   0  0  0  0  0  0  0  0  0  0  0  0
   41.1814   12.4635  -16.4009 C   0  0  0  0  0  0  0  0  0  0  0  0
   41.1182   13.9966  -16.3179 C   0  0  0  0  0  0  0  0  0  0  0  0
   40.0846   14.3029  -15.2451 C   0  0  0  0  0  0  0  0  0  0  0  0
   40.1507   13.3619  -14.2444 O   0  0  0  0  0  0  0  0  0  0  0  0
   39.0733   12.5144  -14.2593 C   0  0  0  0  0  0  0  0  0  0  0  0
   38.6995   12.0839  -15.6388 C   0  0  0  0  0  0  0  0  0  0  0  0
   37.4642   11.0264  -17.4415 H   0  0  0  0  0  0  0  0  0  0  0  0
   37.7751   11.4320  -20.4860 C   0  0  0  0  0  0  0  0  0  0  0  0
   37.9582   10.3663  -19.4220 C   0  0  0  0  0  0  0  0  0  0  0  0
   36.3401   15.0750  -10.9307 C   0  0  0  0  0  0  0  0  0  0  0  0
   36.5959   16.4407  -11.0676 C   0  0  0  0  0  0  0  0  0  0  0  0
   36.3506   17.2905  -10.0343 C   0  0  0  0  0  0  0  0  0  0  0  0
   35.8417   16.8661   -8.8041 C   0  0  0  0  0  0  0  0  0  0  0  0
   35.6045   15.5223   -8.7072 C   0  0  0  0  0  0  0  0  0  0  0  0
   35.8472   14.6408   -9.7458 C   0  0  0  0  0  0  0  0  0  0  0  0
   35.6062   17.8379   -7.7264 C   0  0  0  0  0  0  0  0  0  0  0  0
   36.6185   18.2442   -7.1269 O   0  0  0  0  0  0  0  0  0  0  0  0
   34.3304   18.2556   -7.4216 N   0  0  0  0  0  0  0  0  0  0  0  0
   33.5398   17.8379   -8.0160 H   0  0  0  0  0  0  0  0  0  0  0  0
   33.8832   19.1649   -6.4410 C   0  0  0  0  0  0  0  0  0  0  0  0
   33.2648   18.7943   -5.2843 C   0  0  0  0  0  0  0  0  0  0  0  0
   32.8367   19.7299   -4.3376 C   0  0  0  0  0  0  0  0  0  0  0  0
   33.0205   21.0608   -4.5322 C   0  0  0  0  0  0  0  0  0  0  0  0
   33.6441   21.4654   -5.6949 C   0  0  0  0  0  0  0  0  0  0  0  0
   33.8204   22.7975   -5.8747 F   0  0  0  0  0  0  0  0  0  0  0  0
   34.0581   20.5390   -6.6128 C   0  0  0  0  0  0  0  0  0  0  0  0
   34.6607   20.9993   -7.7279 F   0  0  0  0  0  0  0  0  0  0  0  0
 24 25  1  0  0  0
 25 13  1  0  0  0
 13 14  1  0  0  0
 14 15  2  0  0  0
 14 16  1  0  0  0
 16 17  1  0  0  0
 17 18  1  0  0  0
 18 19  1  0  0  0
 19 20  1  0  0  0
 20 21  1  0  0  0
 21 22  1  0  0  0
 21  1  1  0  0  0
  1  2  2  0  0  0
  2  3  1  0  0  0
  3 26  1  0  0  0
 26 27  2  0  0  0
 27 28  1  0  0  0
 28 29  2  0  0  0
 29 30  1  0  0  0
 30 31  2  0  0  0
 29 32  1  0  0  0
 32 33  2  0  0  0
 32 34  1  0  0  0
 34 36  1  0  0  0
 36 37  2  0  0  0
 37 38  1  0  0  0
 38 39  2  0  0  0
 39 40  1  0  0  0
 40 41  1  0  0  0
 40 42  2  0  0  0
 42 43  1  0  0  0
  3  4  2  0  0  0
  4  5  1  0  0  0
  5  6  1  0  0  0
  5  7  2  0  0  0
  7  8  1  0  0  0
  8  9  2  0  0  0
  9 10  1  0  0  0
 22 16  1  0  0  0
 10  1  1  0  0  0
 31 26  1  0  0  0
 42 36  1  0  0  0
 10  4  1  0  0  0
 13 23  1  0  0  0
 34 35  1  0  0  0
  6 11  1  0  0  0
  6 12  1  0  0  0
M  END
> <minimizedAffinity>
-8.53374

> <CNNscore>
0.1595026702

> <CNNaffinity>
6.8550658226

> <CNN_VS>
1.0934013128

> <CNNaffinity_variance>
0.3229318559

$$$$
[H]c1nc(N([H])[H])c2c(-c3c([H])c([H])c(C(=O)N([H])c4c([H])c([H])c([H])c(F)c4F)c([H])c3[H])nc([C@]3([H])OC([H])([H])C([H])([H])C([H])([H])N(C(=O)N([H])C([H])([H])C([H])([H])[H])C3([H])[H])n2c1[H]


 43 47  0  0  0  0  0  0  0  0999 V2000
   37.7744   13.3016  -13.3087 C   0  0  0  0  0  0  0  0  0  0  0  0
   37.8186   14.0674  -12.2198 N   0  0  0  0  0  0  0  0  0  0  0  0
   36.5475   14.4456  -11.8784 C   0  0  0  0  0  0  0  0  0  0  0  0
   35.7344   13.8722  -12.8163 C   0  0  0  0  0  0  0  0  0  0  0  0
   34.3716   13.8878  -13.0337 C   0  0  0  0  0  0  0  0  0  0  0  0
   33.5395   14.6413  -12.1710 N   0  0  0  0  0  0  0  0  0  0  0  0
   33.7967   13.2304  -14.0721 N   0  0  0  0  0  0  0  0  0  0  0  0
   34.5821   12.5509  -14.9052 C   0  0  0  0  0  0  0  0  0  0  0  0
   35.9407   12.4974  -14.7466 C   0  0  0  0  0  0  0  0  0  0  0  0
   36.4885   13.1556  -13.7123 N   0  0  0  0  0  0  0  0  0  0  0  0
   33.5486   15.6683  -12.2287 H   0  0  0  0  0  0  0  0  0  0  0  0
   32.9324   14.1618  -11.4934 H   0  0  0  0  0  0  0  0  0  0  0  0
   38.0281   10.9171  -17.8183 N   0  0  0  0  0  0  0  0  0  0  0  0
   39.3186   11.4105  -17.5374 C   0  0  0  0  0  0  0  0  0  0  0  0
   40.2214   11.2670  -18.4091 O   0  0  0  0  0  0  0  0  0  0  0  0
   39.6244   12.0671  -16.2912 N   0  0  0  0  0  0  0  0  0  0  0  0
   41.0037   12.5095  -16.1842 C   0  0  0  0  0  0  0  0  0  0  0  0
   40.9420   14.0449  -16.1772 C   0  0  0  0  0  0  0  0  0  0  0  0
   39.9183   14.4053  -15.1118 C   0  0  0  0  0  0  0  0  0  0  0  0
   39.9930   13.5153  -14.0660 O   0  0  0  0  0  0  0  0  0  0  0  0
   38.9151   12.6691  -14.0288 C   0  0  0  0  0  0  0  0  0  0  0  0
   38.5286   12.1706  -15.3817 C   0  0  0  0  0  0  0  0  0  0  0  0
   37.2765   11.0257  -17.1181 H   0  0  0  0  0  0  0  0  0  0  0  0
   37.7638   11.2582  -20.2161 C   0  0  0  0  0  0  0  0  0  0  0  0
   37.7522   10.2671  -19.0676 C   0  0  0  0  0  0  0  0  0  0  0  0
   36.2080   15.3159  -10.7466 C   0  0  0  0  0  0  0  0  0  0  0  0
   36.6942   16.6241  -10.7844 C   0  0  0  0  0  0  0  0  0  0  0  0
   36.4657   17.4702   -9.7442 C   0  0  0  0  0  0  0  0  0  0  0  0
   35.7506   17.0976   -8.6030 C   0  0  0  0  0  0  0  0  0  0  0  0
   35.2908   15.8091   -8.6018 C   0  0  0  0  0  0  0  0  0  0  0  0
   35.5124   14.9325   -9.6491 C   0  0  0  0  0  0  0  0  0  0  0  0
   35.5457   18.0609   -7.5115 C   0  0  0  0  0  0  0  0  0  0  0  0
   35.5895   17.5958   -6.3577 O   0  0  0  0  0  0  0  0  0  0  0  0
   35.3215   19.3922   -7.7803 N   0  0  0  0  0  0  0  0  0  0  0  0
   35.3141   19.6721   -8.8169 H   0  0  0  0  0  0  0  0  0  0  0  0
   35.1015   20.4713   -6.8998 C   0  0  0  0  0  0  0  0  0  0  0  0
   36.0699   21.3497   -6.5147 C   0  0  0  0  0  0  0  0  0  0  0  0
   35.8083   22.4074   -5.6385 C   0  0  0  0  0  0  0  0  0  0  0  0
   34.5660   22.6065   -5.1287 C   0  0  0  0  0  0  0  0  0  0  0  0
   33.5652   21.7324   -5.5013 C   0  0  0  0  0  0  0  0  0  0  0  0
   32.3302   21.9443   -4.9839 F   0  0  0  0  0  0  0  0  0  0  0  0
   33.8352   20.7016   -6.3596 C   0  0  0  0  0  0  0  0  0  0  0  0
   32.8139   19.8830   -6.6842 F   0  0  0  0  0  0  0  0  0  0  0  0
 24 25  1  0  0  0
 25 13  1  0  0  0
 13 14  1  0  0  0
 14 15  2  0  0  0
 14 16  1  0  0  0
 16 17  1  0  0  0
 17 18  1  0  0  0
 18 19  1  0  0  0
 19 20  1  0  0  0
 20 21  1  0  0  0
 21 22  1  0  0  0
 21  1  1  0  0  0
  1  2  2  0  0  0
  2  3  1  0  0  0
  3 26  1  0  0  0
 26 27  2  0  0  0
 27 28  1  0  0  0
 28 29  2  0  0  0
 29 30  1  0  0  0
 30 31  2  0  0  0
 29 32  1  0  0  0
 32 33  2  0  0  0
 32 34  1  0  0  0
 34 36  1  0  0  0
 36 37  2  0  0  0
 37 38  1  0  0  0
 38 39  2  0  0  0
 39 40  1  0  0  0
 40 41  1  0  0  0
 40 42  2  0  0  0
 42 43  1  0  0  0
  3  4  2  0  0  0
  4  5  1  0  0  0
  5  6  1  0  0  0
  5  7  2  0  0  0
  7  8  1  0  0  0
  8  9  2  0  0  0
  9 10  1  0  0  0
 22 16  1  0  0  0
 10  1  1  0  0  0
 31 26  1  0  0  0
 42 36  1  0  0  0
 10  4  1  0  0  0
 13 23  1  0  0  0
 34 35  1  0  0  0
  6 11  1  0  0  0
  6 12  1  0  0  0
M  END
> <minimizedAffinity>
-8.87143

> <CNNscore>
0.1404010355

> <CNNaffinity>
6.8747138977

> <CNN_VS>
0.9652169347

> <CNNaffinity_variance>
0.3738801181

$$$$
[H]c1nc(N([H])[H])c2c(-c3c([H])c([H])c(C(=O)N([H])c4c([H])c([H])c([H])c(F)c4F)c([H])c3[H])nc([C@]3([H])OC([H])([H])C([H])([H])C([H])([H])N(C(=O)N([H])C([H])([H])C([H])([H])[H])C3([H])[H])n2c1[H]


 43 47  0  0  0  0  0  0  0  0999 V2000
   42.7316   14.1157  -13.8292 C   0  0  0  0  0  0  0  0  0  0  0  0
   41.5006   14.2457  -13.3374 N   0  0  0  0  0  0  0  0  0  0  0  0
   40.6073   13.6445  -14.1835 C   0  0  0  0  0  0  0  0  0  0  0  0
   41.3597   13.1474  -15.2113 C   0  0  0  0  0  0  0  0  0  0  0  0
   41.0559   12.4614  -16.3697 C   0  0  0  0  0  0  0  0  0  0  0  0
   39.7034   12.1693  -16.6692 N   0  0  0  0  0  0  0  0  0  0  0  0
   42.0092   12.0824  -17.2577 N   0  0  0  0  0  0  0  0  0  0  0  0
   43.2781   12.3883  -16.9948 C   0  0  0  0  0  0  0  0  0  0  0  0
   43.6455   13.0687  -15.8653 C   0  0  0  0  0  0  0  0  0  0  0  0
   42.6857   13.4343  -15.0003 N   0  0  0  0  0  0  0  0  0  0  0  0
   39.0759   12.9278  -16.9678 H   0  0  0  0  0  0  0  0  0  0  0  0
   39.3550   11.2052  -16.5874 H   0  0  0  0  0  0  0  0  0  0  0  0
   43.7828   16.2209   -9.2961 N   0  0  0  0  0  0  0  0  0  0  0  0
   44.9773   15.6416   -9.7708 C   0  0  0  0  0  0  0  0  0  0  0  0
   45.9959   15.6640   -9.0242 O   0  0  0  0  0  0  0  0  0  0  0  0
   45.0582   15.0319  -11.0744 N   0  0  0  0  0  0  0  0  0  0  0  0
   46.3677   14.4867  -11.3868 C   0  0  0  0  0  0  0  0  0  0  0  0
   46.1723   12.9639  -11.4523 C   0  0  0  0  0  0  0  0  0  0  0  0
   44.9899   12.7460  -12.3837 C   0  0  0  0  0  0  0  0  0  0  0  0
   45.0035   13.6832  -13.3901 O   0  0  0  0  0  0  0  0  0  0  0  0
   44.0078   14.6140  -13.2437 C   0  0  0  0  0  0  0  0  0  0  0  0
   43.8475   15.0668  -11.8304 C   0  0  0  0  0  0  0  0  0  0  0  0
   42.9390   16.2115   -9.8918 H   0  0  0  0  0  0  0  0  0  0  0  0
   42.4414   16.4683   -7.2773 C   0  0  0  0  0  0  0  0  0  0  0  0
   43.7312   16.8213   -7.9937 C   0  0  0  0  0  0  0  0  0  0  0  0
   39.1543   13.6104  -13.9810 C   0  0  0  0  0  0  0  0  0  0  0  0
   38.5123   14.8348  -13.7858 C   0  0  0  0  0  0  0  0  0  0  0  0
   37.1757   14.8754  -13.5370 C   0  0  0  0  0  0  0  0  0  0  0  0
   36.3802   13.7290  -13.4625 C   0  0  0  0  0  0  0  0  0  0  0  0
   37.0438   12.5489  -13.6582 C   0  0  0  0  0  0  0  0  0  0  0  0
   38.4026   12.4855  -13.9122 C   0  0  0  0  0  0  0  0  0  0  0  0
   34.9414   13.8443  -13.1832 C   0  0  0  0  0  0  0  0  0  0  0  0
   34.1840   13.2341  -13.9599 O   0  0  0  0  0  0  0  0  0  0  0  0
   34.4885   14.5896  -12.1181 N   0  0  0  0  0  0  0  0  0  0  0  0
   35.2413   15.0631  -11.5164 H   0  0  0  0  0  0  0  0  0  0  0  0
   33.1722   14.8333  -11.6754 C   0  0  0  0  0  0  0  0  0  0  0  0
   32.0599   14.3238  -12.2763 C   0  0  0  0  0  0  0  0  0  0  0  0
   30.7714   14.5908  -11.8038 C   0  0  0  0  0  0  0  0  0  0  0  0
   30.5712   15.3771  -10.7154 C   0  0  0  0  0  0  0  0  0  0  0  0
   31.6793   15.9069  -10.0863 C   0  0  0  0  0  0  0  0  0  0  0  0
   31.4631   16.6899   -9.0010 F   0  0  0  0  0  0  0  0  0  0  0  0
   32.9346   15.6373  -10.5594 C   0  0  0  0  0  0  0  0  0  0  0  0
   33.9753   16.1854   -9.8999 F   0  0  0  0  0  0  0  0  0  0  0  0
 24 25  1  0  0  0
 25 13  1  0  0  0
 13 14  1  0  0  0
 14 15  2  0  0  0
 14 16  1  0  0  0
 16 17  1  0  0  0
 17 18  1  0  0  0
 18 19  1  0  0  0
 19 20  1  0  0  0
 20 21  1  0  0  0
 21 22  1  0  0  0
 21  1  1  0  0  0
  1  2  2  0  0  0
  2  3  1  0  0  0
  3 26  1  0  0  0
 26 27  2  0  0  0
 27 28  1  0  0  0
 28 29  2  0  0  0
 29 30  1  0  0  0
 30 31  2  0  0  0
 29 32  1  0  0  0
 32 33  2  0  0  0
 32 34  1  0  0  0
 34 36  1  0  0  0
 36 37  2  0  0  0
 37 38  1  0  0  0
 38 39  2  0  0  0
 39 40  1  0  0  0
 40 41  1  0  0  0
 40 42  2  0  0  0
 42 43  1  0  0  0
  3  4  2  0  0  0
  4  5  1  0  0  0
  5  6  1  0  0  0
  5  7  2  0  0  0
  7  8  1  0  0  0
  8  9  2  0  0  0
  9 10  1  0  0  0
 22 16  1  0  0  0
 10  1  1  0  0  0
 31 26  1  0  0  0
 42 36  1  0  0  0
 10  4  1  0  0  0
 13 23  1  0  0  0
 34 35  1  0  0  0
  6 11  1  0  0  0
  6 12  1  0  0  0
M  END
> <minimizedAffinity>
-8.05427

> <CNNscore>
0.1280612797

> <CNNaffinity>
6.8200807571

> <CNN_VS>
0.8733882904

> <CNNaffinity_variance>
0.0733592361

$$$$
[H]c1nc(N([H])[H])c2c(-c3c([H])c([H])c(C(=O)N([H])c4c([H])c([H])c([H])c(F)c4F)c([H])c3[H])nc([C@]3([H])OC([H])([H])C([H])([H])C([H])([H])N(C(=O)N([H])C([H])([H])C([H])([H])[H])C3([H])[H])n2c1[H]


 43 47  0  0  0  0  0  0  0  0999 V2000
   35.9532   15.9960   -7.0926 C   0  0  0  0  0  0  0  0  0  0  0  0
   36.5542   15.6630   -8.2336 N   0  0  0  0  0  0  0  0  0  0  0  0
   35.6192   15.5714   -9.2299 C   0  0  0  0  0  0  0  0  0  0  0  0
   34.4240   15.8632   -8.6332 C   0  0  0  0  0  0  0  0  0  0  0  0
   33.1217   15.9218   -9.0865 C   0  0  0  0  0  0  0  0  0  0  0  0
   32.8436   15.6169  -10.4407 N   0  0  0  0  0  0  0  0  0  0  0  0
   32.0839   16.2300   -8.2688 N   0  0  0  0  0  0  0  0  0  0  0  0
   32.3399   16.4817   -6.9867 C   0  0  0  0  0  0  0  0  0  0  0  0
   33.6083   16.4381   -6.4738 C   0  0  0  0  0  0  0  0  0  0  0  0
   34.6205   16.1306   -7.3010 N   0  0  0  0  0  0  0  0  0  0  0  0
   32.8989   14.6410  -10.7615 H   0  0  0  0  0  0  0  0  0  0  0  0
   32.5889   16.3680  -11.0954 H   0  0  0  0  0  0  0  0  0  0  0  0
   40.6651   15.0346   -5.3720 N   0  0  0  0  0  0  0  0  0  0  0  0
   40.1306   16.0598   -4.5651 C   0  0  0  0  0  0  0  0  0  0  0  0
   40.8711   16.5814   -3.6848 O   0  0  0  0  0  0  0  0  0  0  0  0
   38.7734   16.5189   -4.7231 N   0  0  0  0  0  0  0  0  0  0  0  0
   38.4033   17.5821   -3.8054 C   0  0  0  0  0  0  0  0  0  0  0  0
   38.1904   18.8252   -4.6833 C   0  0  0  0  0  0  0  0  0  0  0  0
   37.2478   18.3829   -5.7917 C   0  0  0  0  0  0  0  0  0  0  0  0
   36.3376   17.4756   -5.3024 O   0  0  0  0  0  0  0  0  0  0  0  0
   36.5786   16.2047   -5.7565 C   0  0  0  0  0  0  0  0  0  0  0  0
   38.0301   15.8563   -5.7463 C   0  0  0  0  0  0  0  0  0  0  0  0
   40.0752   14.5964   -6.0979 H   0  0  0  0  0  0  0  0  0  0  0  0
   42.2563   13.2549   -5.8585 C   0  0  0  0  0  0  0  0  0  0  0  0
   42.0200   14.5973   -5.1924 C   0  0  0  0  0  0  0  0  0  0  0  0
   35.9092   15.1987  -10.6192 C   0  0  0  0  0  0  0  0  0  0  0  0
   35.9099   13.8360  -10.9234 C   0  0  0  0  0  0  0  0  0  0  0  0
   36.2246   13.4142  -12.1776 C   0  0  0  0  0  0  0  0  0  0  0  0
   36.5581   14.2902  -13.2139 C   0  0  0  0  0  0  0  0  0  0  0  0
   36.5474   15.6164  -12.8783 C   0  0  0  0  0  0  0  0  0  0  0  0
   36.2306   16.0664  -11.6088 C   0  0  0  0  0  0  0  0  0  0  0  0
   36.8948   13.7661  -14.5456 C   0  0  0  0  0  0  0  0  0  0  0  0
   36.0920   14.0366  -15.4576 O   0  0  0  0  0  0  0  0  0  0  0  0
   38.0374   13.0239  -14.7418 N   0  0  0  0  0  0  0  0  0  0  0  0
   38.6539   12.8646  -13.8772 H   0  0  0  0  0  0  0  0  0  0  0  0
   38.5443   12.4316  -15.9167 C   0  0  0  0  0  0  0  0  0  0  0  0
   39.7622   12.7255  -16.4534 C   0  0  0  0  0  0  0  0  0  0  0  0
   40.2268   12.1138  -17.6217 C   0  0  0  0  0  0  0  0  0  0  0  0
   39.4769   11.1920  -18.2781 C   0  0  0  0  0  0  0  0  0  0  0  0
   38.2389   10.8745  -17.7575 C   0  0  0  0  0  0  0  0  0  0  0  0
   37.5020    9.9524  -18.4242 F   0  0  0  0  0  0  0  0  0  0  0  0
   37.7967   11.4808  -16.6133 C   0  0  0  0  0  0  0  0  0  0  0  0
   36.5783   11.1266  -16.1567 F   0  0  0  0  0  0  0  0  0  0  0  0
 24 25  1  0  0  0
 25 13  1  0  0  0
 13 14  1  0  0  0
 14 15  2  0  0  0
 14 16  1  0  0  0
 16 17  1  0  0  0
 17 18  1  0  0  0
 18 19  1  0  0  0
 19 20  1  0  0  0
 20 21  1  0  0  0
 21 22  1  0  0  0
 21  1  1  0  0  0
  1  2  2  0  0  0
  2  3  1  0  0  0
  3 26  1  0  0  0
 26 27  2  0  0  0
 27 28  1  0  0  0
 28 29  2  0  0  0
 29 30  1  0  0  0
 30 31  2  0  0  0
 29 32  1  0  0  0
 32 33  2  0  0  0
 32 34  1  0  0  0
 34 36  1  0  0  0
 36 37  2  0  0  0
 37 38  1  0  0  0
 38 39  2  0  0  0
 39 40  1  0  0  0
 40 41  1  0  0  0
 40 42  2  0  0  0
 42 43  1  0  0  0
  3  4  2  0  0  0
  4  5  1  0  0  0
  5  6  1  0  0  0
  5  7  2  0  0  0
  7  8  1  0  0  0
  8  9  2  0  0  0
  9 10  1  0  0  0
 22 16  1  0  0  0
 10  1  1  0  0  0
 31 26  1  0  0  0
 42 36  1  0  0  0
 10  4  1  0  0  0
 13 23  1  0  0  0
 34 35  1  0  0  0
  6 11  1  0  0  0
  6 12  1  0  0  0
M  END
> <minimizedAffinity>
-8.44219

> <CNNscore>
0.0970626101

> <CNNaffinity>
6.4827027321

> <CNN_VS>
0.6292280555

> <CNNaffinity_variance>
0.5484520197

$$$$
[H]c1nc(N([H])[H])c2c(-c3c([H])c([H])c(C(=O)N([H])c4c([H])c([H])c([H])c(F)c4F)c([H])c3[H])nc([C@]3([H])OC([H])([H])C([H])([H])C([H])([H])N(C(=O)N([H])C([H])([H])C([H])([H])[H])C3([H])[H])n2c1[H]


 43 47  0  0  0  0  0  0  0  0999 V2000
   44.1692   15.6275  -10.4071 C   0  0  0  0  0  0  0  0  0  0  0  0
   42.9987   15.0208  -10.2178 N   0  0  0  0  0  0  0  0  0  0  0  0
   42.4357   15.4725   -9.0540 C   0  0  0  0  0  0  0  0  0  0  0  0
   43.3254   16.3798   -8.5493 C   0  0  0  0  0  0  0  0  0  0  0  0
   43.3494   17.1587   -7.4101 C   0  0  0  0  0  0  0  0  0  0  0  0
   42.2822   17.0678   -6.4844 N   0  0  0  0  0  0  0  0  0  0  0  0
   44.3822   17.9907   -7.1239 N   0  0  0  0  0  0  0  0  0  0  0  0
   45.4035   18.0501   -7.9760 C   0  0  0  0  0  0  0  0  0  0  0  0
   45.4420   17.3023   -9.1219 C   0  0  0  0  0  0  0  0  0  0  0  0
   44.4093   16.4853   -9.3853 N   0  0  0  0  0  0  0  0  0  0  0  0
   42.1935   16.2294   -5.8950 H   0  0  0  0  0  0  0  0  0  0  0  0
   41.6032   17.8361   -6.4050 H   0  0  0  0  0  0  0  0  0  0  0  0
   47.1876   11.7129  -11.6925 N   0  0  0  0  0  0  0  0  0  0  0  0
   46.9355   12.4458  -12.8703 C   0  0  0  0  0  0  0  0  0  0  0  0
   47.3879   12.0034  -13.9635 O   0  0  0  0  0  0  0  0  0  0  0  0
   46.1811   13.6738  -12.8520 N   0  0  0  0  0  0  0  0  0  0  0  0
   46.0221   14.2842  -14.1604 C   0  0  0  0  0  0  0  0  0  0  0  0
   44.5229   14.1808  -14.4811 C   0  0  0  0  0  0  0  0  0  0  0  0
   43.8073   14.7420  -13.2621 C   0  0  0  0  0  0  0  0  0  0  0  0
   44.5310   15.7824  -12.7281 O   0  0  0  0  0  0  0  0  0  0  0  0
   45.1218   15.4445  -11.5381 C   0  0  0  0  0  0  0  0  0  0  0  0
   45.7220   14.0780  -11.5619 C   0  0  0  0  0  0  0  0  0  0  0  0
   46.8250   12.0581  -10.7891 H   0  0  0  0  0  0  0  0  0  0  0  0
   47.0318    9.2816  -11.6685 C   0  0  0  0  0  0  0  0  0  0  0  0
   47.9420   10.4931  -11.7405 C   0  0  0  0  0  0  0  0  0  0  0  0
   41.1557   15.0078   -8.5072 C   0  0  0  0  0  0  0  0  0  0  0  0
   40.0074   15.6902   -8.9133 C   0  0  0  0  0  0  0  0  0  0  0  0
   38.7926   15.3503   -8.4047 C   0  0  0  0  0  0  0  0  0  0  0  0
   38.6183   14.3263   -7.4701 C   0  0  0  0  0  0  0  0  0  0  0  0
   39.7652   13.6812   -7.0959 C   0  0  0  0  0  0  0  0  0  0  0  0
   41.0104   14.0115   -7.6008 C   0  0  0  0  0  0  0  0  0  0  0  0
   37.2766   14.0150   -6.9558 C   0  0  0  0  0  0  0  0  0  0  0  0
   37.0814   12.8323   -6.6204 O   0  0  0  0  0  0  0  0  0  0  0  0
   36.3140   14.9945   -6.8618 N   0  0  0  0  0  0  0  0  0  0  0  0
   36.6066   15.9788   -7.1758 H   0  0  0  0  0  0  0  0  0  0  0  0
   34.9818   14.9171   -6.4062 C   0  0  0  0  0  0  0  0  0  0  0  0
   33.9444   14.4562   -7.1606 C   0  0  0  0  0  0  0  0  0  0  0  0
   32.6370   14.3961   -6.6689 C   0  0  0  0  0  0  0  0  0  0  0  0
   32.3420   14.7985   -5.4063 C   0  0  0  0  0  0  0  0  0  0  0  0
   33.3729   15.2700   -4.6193 C   0  0  0  0  0  0  0  0  0  0  0  0
   33.0625   15.6680   -3.3611 F   0  0  0  0  0  0  0  0  0  0  0  0
   34.6477   15.3232   -5.1132 C   0  0  0  0  0  0  0  0  0  0  0  0
   35.6096   15.7940   -4.2936 F   0  0  0  0  0  0  0  0  0  0  0  0
 24 25  1  0  0  0
 25 13  1  0  0  0
 13 14  1  0  0  0
 14 15  2  0  0  0
 14 16  1  0  0  0
 16 17  1  0  0  0
 17 18  1  0  0  0
 18 19  1  0  0  0
 19 20  1  0  0  0
 20 21  1  0  0  0
 21 22  1  0  0  0
 21  1  1  0  0  0
  1  2  2  0  0  0
  2  3  1  0  0  0
  3 26  1  0  0  0
 26 27  2  0  0  0
 27 28  1  0  0  0
 28 29  2  0  0  0
 29 30  1  0  0  0
 30 31  2  0  0  0
 29 32  1  0  0  0
 32 33  2  0  0  0
 32 34  1  0  0  0
 34 36  1  0  0  0
 36 37  2  0  0  0
 37 38  1  0  0  0
 38 39  2  0  0  0
 39 40  1  0  0  0
 40 41  1  0  0  0
 40 42  2  0  0  0
 42 43  1  0  0  0
  3  4  2  0  0  0
  4  5  1  0  0  0
  5  6  1  0  0  0
  5  7  2  0  0  0
  7  8  1  0  0  0
  8  9  2  0  0  0
  9 10  1  0  0  0
 22 16  1  0  0  0
 10  1  1  0  0  0
 31 26  1  0  0  0
 42 36  1  0  0  0
 10  4  1  0  0  0
 13 23  1  0  0  0
 34 35  1  0  0  0
  6 11  1  0  0  0
  6 12  1  0  0  0
M  END
> <minimizedAffinity>
-7.17383

> <CNNscore>
0.0830052271

> <CNNaffinity>
5.6200318336

> <CNN_VS>
0.4664920270

> <CNNaffinity_variance>
0.0950815901

$$$$
[H]c1nc(N([H])[H])c2c(-c3c([H])c([H])c(C(=O)N([H])c4c([H])c([H])c([H])c(F)c4F)c([H])c3[H])nc([C@]3([H])OC([H])([H])C([H])([H])C([H])([H])N(C(=O)N([H])C([H])([H])C([H])([H])[H])C3([H])[H])n2c1[H]


 43 47  0  0  0  0  0  0  0  0999 V2000
   31.9235   15.9199   -8.7843 C   0  0  0  0  0  0  0  0  0  0  0  0
   33.2056   16.0243   -9.1297 N   0  0  0  0  0  0  0  0  0  0  0  0
   33.3725   15.5536  -10.4049 C   0  0  0  0  0  0  0  0  0  0  0  0
   32.1283   15.1579  -10.8108 C   0  0  0  0  0  0  0  0  0  0  0  0
   31.6401   14.5895  -11.9699 C   0  0  0  0  0  0  0  0  0  0  0  0
   32.5332   14.2931  -13.0276 N   0  0  0  0  0  0  0  0  0  0  0  0
   30.3304   14.2696  -12.1232 N   0  0  0  0  0  0  0  0  0  0  0  0
   29.4957   14.5147  -11.1154 C   0  0  0  0  0  0  0  0  0  0  0  0
   29.9165   15.0743   -9.9391 C   0  0  0  0  0  0  0  0  0  0  0  0
   31.2170   15.3826   -9.8089 N   0  0  0  0  0  0  0  0  0  0  0  0
   33.1881   13.5057  -12.9313 H   0  0  0  0  0  0  0  0  0  0  0  0
   32.5243   14.8631  -13.8835 H   0  0  0  0  0  0  0  0  0  0  0  0
   33.9182   17.7072   -4.4353 N   0  0  0  0  0  0  0  0  0  0  0  0
   32.5756   18.1351   -4.4819 C   0  0  0  0  0  0  0  0  0  0  0  0
   32.1526   18.8924   -3.5638 O   0  0  0  0  0  0  0  0  0  0  0  0
   31.6877   17.7308   -5.5429 N   0  0  0  0  0  0  0  0  0  0  0  0
   30.3456   18.2732   -5.4232 C   0  0  0  0  0  0  0  0  0  0  0  0
   30.1897   19.2446   -6.6036 C   0  0  0  0  0  0  0  0  0  0  0  0
   30.6103   18.4577   -7.8353 C   0  0  0  0  0  0  0  0  0  0  0  0
   30.2237   17.1439   -7.7101 O   0  0  0  0  0  0  0  0  0  0  0  0
   31.2895   16.3094   -7.4935 C   0  0  0  0  0  0  0  0  0  0  0  0
   32.2734   16.8735   -6.5229 C   0  0  0  0  0  0  0  0  0  0  0  0
   34.2828   17.0882   -5.1776 H   0  0  0  0  0  0  0  0  0  0  0  0
   35.5561   19.3730   -3.7436 C   0  0  0  0  0  0  0  0  0  0  0  0
   34.7799   18.1253   -3.3666 C   0  0  0  0  0  0  0  0  0  0  0  0
   34.6567   15.4870  -11.1118 C   0  0  0  0  0  0  0  0  0  0  0  0
   34.9574   14.2928  -11.7696 C   0  0  0  0  0  0  0  0  0  0  0  0
   36.1534   14.1397  -12.3990 C   0  0  0  0  0  0  0  0  0  0  0  0
   37.1313   15.1374  -12.4282 C   0  0  0  0  0  0  0  0  0  0  0  0
   36.8015   16.2920  -11.7729 C   0  0  0  0  0  0  0  0  0  0  0  0
   35.5908   16.4681  -11.1264 C   0  0  0  0  0  0  0  0  0  0  0  0
   38.4063   14.9030  -13.1217 C   0  0  0  0  0  0  0  0  0  0  0  0
   39.3315   15.6877  -12.8431 O   0  0  0  0  0  0  0  0  0  0  0  0
   38.5392   13.8686  -14.0202 N   0  0  0  0  0  0  0  0  0  0  0  0
   37.6703   13.2559  -14.1699 H   0  0  0  0  0  0  0  0  0  0  0  0
   39.6533   13.4702  -14.7871 C   0  0  0  0  0  0  0  0  0  0  0  0
   40.9471   13.7144  -14.4347 C   0  0  0  0  0  0  0  0  0  0  0  0
   42.0236   13.3010  -15.2254 C   0  0  0  0  0  0  0  0  0  0  0  0
   41.8239   12.6322  -16.3898 C   0  0  0  0  0  0  0  0  0  0  0  0
   40.5239   12.3710  -16.7721 C   0  0  0  0  0  0  0  0  0  0  0  0
   40.3408   11.7024  -17.9371 F   0  0  0  0  0  0  0  0  0  0  0  0
   39.4799   12.7812  -15.9885 C   0  0  0  0  0  0  0  0  0  0  0  0
   38.2341   12.4948  -16.4182 F   0  0  0  0  0  0  0  0  0  0  0  0
 24 25  1  0  0  0
 25 13  1  0  0  0
 13 14  1  0  0  0
 14 15  2  0  0  0
 14 16  1  0  0  0
 16 17  1  0  0  0
 17 18  1  0  0  0
 18 19  1  0  0  0
 19 20  1  0  0  0
 20 21  1  0  0  0
 21 22  1  0  0  0
 21  1  1  0  0  0
  1  2  2  0  0  0
  2  3  1  0  0  0
  3 26  1  0  0  0
 26 27  2  0  0  0
 27 28  1  0  0  0
 28 29  2  0  0  0
 29 30  1  0  0  0
 30 31  2  0  0  0
 29 32  1  0  0  0
 32 33  2  0  0  0
 32 34  1  0  0  0
 34 36  1  0  0  0
 36 37  2  0  0  0
 37 38  1  0  0  0
 38 39  2  0  0  0
 39 40  1  0  0  0
 40 41  1  0  0  0
 40 42  2  0  0  0
 42 43  1  0  0  0
  3  4  2  0  0  0
  4  5  1  0  0  0
  5  6  1  0  0  0
  5  7  2  0  0  0
  7  8  1  0  0  0
  8  9  2  0  0  0
  9 10  1  0  0  0
 22 16  1  0  0  0
 10  1  1  0  0  0
 31 26  1  0  0  0
 42 36  1  0  0  0
 10  4  1  0  0  0
 13 23  1  0  0  0
 34 35  1  0  0  0
  6 11  1  0  0  0
  6 12  1  0  0  0
M  END
> <minimizedAffinity>
-9.45707

> <CNNscore>
0.0807851925

> <CNNaffinity>
6.3992300034

> <CNN_VS>
0.5169630051

> <CNNaffinity_variance>
0.2569927275

$$$$
[H]c1nc(N([H])[H])c2c(-c3c([H])c([H])c(C(=O)N([H])c4c([H])c([H])c([H])c(F)c4F)c([H])c3[H])nc([C@]3([H])OC([H])([H])C([H])([H])C([H])([H])N(C(=O)N([H])C([H])([H])C([H])([H])[H])C3([H])[H])n2c1[H]


 43 47  0  0  0  0  0  0  0  0999 V2000
   34.4793   16.8801   -7.6471 C   0  0  0  0  0  0  0  0  0  0  0  0
   35.4538   16.5672   -8.4995 N   0  0  0  0  0  0  0  0  0  0  0  0
   34.9082   16.0446   -9.6416 C   0  0  0  0  0  0  0  0  0  0  0  0
   33.5565   16.0554   -9.4354 C   0  0  0  0  0  0  0  0  0  0  0  0
   32.4742   15.6495  -10.1896 C   0  0  0  0  0  0  0  0  0  0  0  0
   32.6934   15.0665  -11.4609 N   0  0  0  0  0  0  0  0  0  0  0  0
   31.1982   15.7576   -9.7411 N   0  0  0  0  0  0  0  0  0  0  0  0
   30.9931   16.2726   -8.5306 C   0  0  0  0  0  0  0  0  0  0  0  0
   32.0228   16.6918   -7.7320 C   0  0  0  0  0  0  0  0  0  0  0  0
   33.2777   16.5752   -8.1957 N   0  0  0  0  0  0  0  0  0  0  0  0
   33.0777   14.1142  -11.5216 H   0  0  0  0  0  0  0  0  0  0  0  0
   32.4689   15.5943  -12.3146 H   0  0  0  0  0  0  0  0  0  0  0  0
   38.5409   17.5670   -4.6274 N   0  0  0  0  0  0  0  0  0  0  0  0
   37.5761   18.5225   -4.2479 C   0  0  0  0  0  0  0  0  0  0  0  0
   37.8823   19.3683   -3.3611 O   0  0  0  0  0  0  0  0  0  0  0  0
   36.2642   18.5531   -4.8441 N   0  0  0  0  0  0  0  0  0  0  0  0
   35.4100   19.6087   -4.3286 C   0  0  0  0  0  0  0  0  0  0  0  0
   35.2051   20.5795   -5.5019 C   0  0  0  0  0  0  0  0  0  0  0  0
   34.7630   19.7146   -6.6721 C   0  0  0  0  0  0  0  0  0  0  0  0
   33.9698   18.6845   -6.2237 O   0  0  0  0  0  0  0  0  0  0  0  0
   34.6097   17.4737   -6.2868 C   0  0  0  0  0  0  0  0  0  0  0  0
   36.0294   17.5494   -5.8320 C   0  0  0  0  0  0  0  0  0  0  0  0
   38.3094   16.8677   -5.3515 H   0  0  0  0  0  0  0  0  0  0  0  0
   40.8504   18.3047   -4.8679 C   0  0  0  0  0  0  0  0  0  0  0  0
   39.8394   17.5599   -4.0166 C   0  0  0  0  0  0  0  0  0  0  0  0
   35.6789   15.5622  -10.7934 C   0  0  0  0  0  0  0  0  0  0  0  0
   36.2261   14.2812  -10.6989 C   0  0  0  0  0  0  0  0  0  0  0  0
   36.9983   13.7901  -11.7051 C   0  0  0  0  0  0  0  0  0  0  0  0
   37.2867   14.5132  -12.8655 C   0  0  0  0  0  0  0  0  0  0  0  0
   36.7343   15.7635  -12.9220 C   0  0  0  0  0  0  0  0  0  0  0  0
   35.9463   16.2819  -11.9096 C   0  0  0  0  0  0  0  0  0  0  0  0
   38.1348   13.9244  -13.9120 C   0  0  0  0  0  0  0  0  0  0  0  0
   39.3386   14.2395  -13.8807 O   0  0  0  0  0  0  0  0  0  0  0  0
   37.6011   13.0774  -14.8569 N   0  0  0  0  0  0  0  0  0  0  0  0
   36.5497   12.8764  -14.7737 H   0  0  0  0  0  0  0  0  0  0  0  0
   38.2223   12.4126  -15.9341 C   0  0  0  0  0  0  0  0  0  0  0  0
   39.5094   12.6330  -16.3248 C   0  0  0  0  0  0  0  0  0  0  0  0
   40.0870   11.9509  -17.3999 C   0  0  0  0  0  0  0  0  0  0  0  0
   39.3832   11.0308  -18.1078 C   0  0  0  0  0  0  0  0  0  0  0  0
   38.0772   10.7869  -17.7347 C   0  0  0  0  0  0  0  0  0  0  0  0
   37.3876    9.8656  -18.4512 F   0  0  0  0  0  0  0  0  0  0  0  0
   37.5246   11.4617  -16.6805 C   0  0  0  0  0  0  0  0  0  0  0  0
   36.2442   11.1775  -16.3668 F   0  0  0  0  0  0  0  0  0  0  0  0
 24 25  1  0  0  0
 25 13  1  0  0  0
 13 14  1  0  0  0
 14 15  2  0  0  0
 14 16  1  0  0  0
 16 17  1  0  0  0
 17 18  1  0  0  0
 18 19  1  0  0  0
 19 20  1  0  0  0
 20 21  1  0  0  0
 21 22  1  0  0  0
 21  1  1  0  0  0
  1  2  2  0  0  0
  2  3  1  0  0  0
  3 26  1  0  0  0
 26 27  2  0  0  0
 27 28  1  0  0  0
 28 29  2  0  0  0
 29 30  1  0  0  0
 30 31  2  0  0  0
 29 32  1  0  0  0
 32 33  2  0  0  0
 32 34  1  0  0  0
 34 36  1  0  0  0
 36 37  2  0  0  0
 37 38  1  0  0  0
 38 39  2  0  0  0
 39 40  1  0  0  0
 40 41  1  0  0  0
 40 42  2  0  0  0
 42 43  1  0  0  0
  3  4  2  0  0  0
  4  5  1  0  0  0
  5  6  1  0  0  0
  5  7  2  0  0  0
  7  8  1  0  0  0
  8  9  2  0  0  0
  9 10  1  0  0  0
 22 16  1  0  0  0
 10  1  1  0  0  0
 31 26  1  0  0  0
 42 36  1  0  0  0
 10  4  1  0  0  0
 13 23  1  0  0  0
 34 35  1  0  0  0
  6 11  1  0  0  0
  6 12  1  0  0  0
M  END
> <minimizedAffinity>
-8.98965

> <CNNscore>
0.0696712360

> <CNNaffinity>
6.5984063148

> <CNN_VS>
0.4597191215

> <CNNaffinity_variance>
0.3662916124

$$$$
[H]c1nc(N([H])[H])c2c(-c3c([H])c([H])c(C(=O)N([H])c4c([H])c([H])c([H])c(F)c4F)c([H])c3[H])nc([C@]3([H])OC([H])([H])C([H])([H])C([H])([H])N(C(=O)N([H])C([H])([H])C([H])([H])[H])C3([H])[H])n2c1[H]


 43 47  0  0  0  0  0  0  0  0999 V2000
   37.8442   13.7181  -14.8818 C   0  0  0  0  0  0  0  0  0  0  0  0
   38.0636   14.4129  -13.7668 N   0  0  0  0  0  0  0  0  0  0  0  0
   36.9309   14.4067  -12.9972 C   0  0  0  0  0  0  0  0  0  0  0  0
   36.0165   13.6759  -13.7039 C   0  0  0  0  0  0  0  0  0  0  0  0
   34.7009   13.3232  -13.4809 C   0  0  0  0  0  0  0  0  0  0  0  0
   34.0508   13.7738  -12.3068 N   0  0  0  0  0  0  0  0  0  0  0  0
   33.9897   12.5828  -14.3680 N   0  0  0  0  0  0  0  0  0  0  0  0
   34.5892   12.1888  -15.4896 C   0  0  0  0  0  0  0  0  0  0  0  0
   35.8904   12.5068  -15.7718 C   0  0  0  0  0  0  0  0  0  0  0  0
   36.5755   13.2407  -14.8800 N   0  0  0  0  0  0  0  0  0  0  0  0
   33.7871   14.7645  -12.2228 H   0  0  0  0  0  0  0  0  0  0  0  0
   33.8458   13.1127  -11.5462 H   0  0  0  0  0  0  0  0  0  0  0  0
   42.9388   13.3713  -14.9908 N   0  0  0  0  0  0  0  0  0  0  0  0
   42.4501   12.6409  -16.0934 C   0  0  0  0  0  0  0  0  0  0  0  0
   43.2755   12.0089  -16.8108 O   0  0  0  0  0  0  0  0  0  0  0  0
   41.0454   12.6014  -16.4139 N   0  0  0  0  0  0  0  0  0  0  0  0
   40.7325   11.7962  -17.5815 C   0  0  0  0  0  0  0  0  0  0  0  0
   39.9343   10.5959  -17.0493 C   0  0  0  0  0  0  0  0  0  0  0  0
   38.8305   11.1915  -16.1892 C   0  0  0  0  0  0  0  0  0  0  0  0
   38.3940   12.3756  -16.7357 O   0  0  0  0  0  0  0  0  0  0  0  0
   38.7931   13.4624  -16.0016 C   0  0  0  0  0  0  0  0  0  0  0  0
   40.2073   13.3538  -15.5364 C   0  0  0  0  0  0  0  0  0  0  0  0
   42.2791   13.8938  -14.3919 H   0  0  0  0  0  0  0  0  0  0  0  0
   44.5882   13.4396  -13.1990 C   0  0  0  0  0  0  0  0  0  0  0  0
   44.3429   13.3930  -14.6954 C   0  0  0  0  0  0  0  0  0  0  0  0
   36.7904   15.0931  -11.7078 C   0  0  0  0  0  0  0  0  0  0  0  0
   36.4058   16.4348  -11.7422 C   0  0  0  0  0  0  0  0  0  0  0  0
   36.3093   17.1495  -10.5890 C   0  0  0  0  0  0  0  0  0  0  0  0
   36.5805   16.6049   -9.3311 C   0  0  0  0  0  0  0  0  0  0  0  0
   36.9547   15.2891   -9.3373 C   0  0  0  0  0  0  0  0  0  0  0  0
   37.0593   14.5444  -10.4987 C   0  0  0  0  0  0  0  0  0  0  0  0
   36.4629   17.4364   -8.1244 C   0  0  0  0  0  0  0  0  0  0  0  0
   37.0572   17.0187   -7.1136 O   0  0  0  0  0  0  0  0  0  0  0  0
   35.7324   18.6031   -8.1418 N   0  0  0  0  0  0  0  0  0  0  0  0
   35.2720   18.8605   -9.0770 H   0  0  0  0  0  0  0  0  0  0  0  0
   35.4897   19.5372   -7.1139 C   0  0  0  0  0  0  0  0  0  0  0  0
   34.5393   19.3790   -6.1497 C   0  0  0  0  0  0  0  0  0  0  0  0
   34.3316   20.3313   -5.1473 C   0  0  0  0  0  0  0  0  0  0  0  0
   35.0751   21.4658   -5.0912 C   0  0  0  0  0  0  0  0  0  0  0  0
   36.0451   21.6529   -6.0547 C   0  0  0  0  0  0  0  0  0  0  0  0
   36.7791   22.7905   -5.9853 F   0  0  0  0  0  0  0  0  0  0  0  0
   36.2377   20.7127   -7.0299 C   0  0  0  0  0  0  0  0  0  0  0  0
   37.2013   20.9553   -7.9417 F   0  0  0  0  0  0  0  0  0  0  0  0
 24 25  1  0  0  0
 25 13  1  0  0  0
 13 14  1  0  0  0
 14 15  2  0  0  0
 14 16  1  0  0  0
 16 17  1  0  0  0
 17 18  1  0  0  0
 18 19  1  0  0  0
 19 20  1  0  0  0
 20 21  1  0  0  0
 21 22  1  0  0  0
 21  1  1  0  0  0
  1  2  2  0  0  0
  2  3  1  0  0  0
  3 26  1  0  0  0
 26 27  2  0  0  0
 27 28  1  0  0  0
 28 29  2  0  0  0
 29 30  1  0  0  0
 30 31  2  0  0  0
 29 32  1  0  0  0
 32 33  2  0  0  0
 32 34  1  0  0  0
 34 36  1  0  0  0
 36 37  2  0  0  0
 37 38  1  0  0  0
 38 39  2  0  0  0
 39 40  1  0  0  0
 40 41  1  0  0  0
 40 42  2  0  0  0
 42 43  1  0  0  0
  3  4  2  0  0  0
  4  5  1  0  0  0
  5  6  1  0  0  0
  5  7  2  0  0  0
  7  8  1  0  0  0
  8  9  2  0  0  0
  9 10  1  0  0  0
 22 16  1  0  0  0
 10  1  1  0  0  0
 31 26  1  0  0  0
 42 36  1  0  0  0
 10  4  1  0  0  0
 13 23  1  0  0  0
 34 35  1  0  0  0
  6 11  1  0  0  0
  6 12  1  0  0  0
M  END
> <minimizedAffinity>
-8.41408

> <CNNscore>
0.0674872920

> <CNNaffinity>
6.8787803650

> <CNN_VS>
0.4642302692

> <CNNaffinity_variance>
0.2811425626

$$$$
[H]c1c([H])c(Cl)c(-c2c([H])c3c([H])nc(N([H])c4c([H])c([H])c(C([H])([H])N5C([H])([H])C([H])([H])N(C([H])([H])C([H])([H])[H])C([H])([H])C5([H])[H])c(C(=O)N([H])[H])c4[H])nc3n(C([H])([H])[H])c2=O)c(Cl)c1[H]


 42 46  0  0  0  0  0  0  0  0999 V2000
   39.2372   14.6113  -14.6648 N   0  0  0  0  0  0  0  0  0  0  0  0
   38.8768   14.8024  -15.6541 H   0  0  0  0  0  0  0  0  0  0  0  0
   40.5604   14.2552  -14.5267 C   0  0  0  0  0  0  0  0  0  0  0  0
   41.1244   13.4101  -15.4517 N   0  0  0  0  0  0  0  0  0  0  0  0
   42.4025   13.0109  -15.3541 C   0  0  0  0  0  0  0  0  0  0  0  0
   43.1894   13.4445  -14.3104 C   0  0  0  0  0  0  0  0  0  0  0  0
   44.5137   13.0698  -14.1493 C   0  0  0  0  0  0  0  0  0  0  0  0
   45.2658   13.5259  -13.0890 C   0  0  0  0  0  0  0  0  0  0  0  0
   44.6380   14.3765  -12.1911 C   0  0  0  0  0  0  0  0  0  0  0  0
   45.2857   14.8102  -11.2184 O   0  0  0  0  0  0  0  0  0  0  0  0
   43.3361   14.7536  -12.3360 N   0  0  0  0  0  0  0  0  0  0  0  0
   42.6756   15.6394  -11.3979 C   0  0  0  0  0  0  0  0  0  0  0  0
   42.6234   14.2956  -13.3782 C   0  0  0  0  0  0  0  0  0  0  0  0
   41.3454   14.6549  -13.5335 N   0  0  0  0  0  0  0  0  0  0  0  0
   46.6651   13.1603  -12.8772 C   0  0  0  0  0  0  0  0  0  0  0  0
   47.0290   12.0816  -12.0969 C   0  0  0  0  0  0  0  0  0  0  0  0
   45.7617   11.1423  -11.3533 Cl  0  0  0  0  0  0  0  0  0  0  0  0
   48.3484   11.7325  -11.8935 C   0  0  0  0  0  0  0  0  0  0  0  0
   49.3673   12.4588  -12.4706 C   0  0  0  0  0  0  0  0  0  0  0  0
   49.0116   13.5406  -13.2540 C   0  0  0  0  0  0  0  0  0  0  0  0
   47.6818   13.8907  -13.4575 C   0  0  0  0  0  0  0  0  0  0  0  0
   47.2331   15.2551  -14.4456 Cl  0  0  0  0  0  0  0  0  0  0  0  0
   36.2626   14.8538  -11.6427 C   0  0  0  0  0  0  0  0  0  0  0  0
   37.5256   15.3620  -11.4329 C   0  0  0  0  0  0  0  0  0  0  0  0
   38.5370   15.3187  -12.3968 C   0  0  0  0  0  0  0  0  0  0  0  0
   38.3098   14.7528  -13.6228 C   0  0  0  0  0  0  0  0  0  0  0  0
   37.0351   14.2359  -13.8439 C   0  0  0  0  0  0  0  0  0  0  0  0
   36.0370   14.2872  -12.8731 C   0  0  0  0  0  0  0  0  0  0  0  0
   34.7316   13.7096  -13.1910 C   0  0  0  0  0  0  0  0  0  0  0  0
   33.6724   14.5673  -13.6808 N   0  0  0  0  0  0  0  0  0  0  0  0
   34.5321   12.4965  -13.0431 O   0  0  0  0  0  0  0  0  0  0  0  0
   33.4242   14.4697  -14.6732 H   0  0  0  0  0  0  0  0  0  0  0  0
   33.2274   15.2277  -13.0057 H   0  0  0  0  0  0  0  0  0  0  0  0
   35.2521   14.8960  -10.5703 C   0  0  0  0  0  0  0  0  0  0  0  0
   35.0627   15.9683   -6.5563 N   0  0  0  0  0  0  0  0  0  0  0  0
   36.1918   15.2191   -7.0375 C   0  0  0  0  0  0  0  0  0  0  0  0
   35.9672   14.6183   -8.3861 C   0  0  0  0  0  0  0  0  0  0  0  0
   35.7224   15.6770   -9.3975 N   0  0  0  0  0  0  0  0  0  0  0  0
   34.5085   16.3535   -8.9160 C   0  0  0  0  0  0  0  0  0  0  0  0
   34.6813   16.9481   -7.5585 C   0  0  0  0  0  0  0  0  0  0  0  0
   34.1102   14.2665   -5.0473 C   0  0  0  0  0  0  0  0  0  0  0  0
   33.9262   15.1537   -6.2512 C   0  0  0  0  0  0  0  0  0  0  0  0
 41 42  1  0  0  0
 42 35  1  0  0  0
 35 36  1  0  0  0
 36 37  1  0  0  0
 37 38  1  0  0  0
 38 34  1  0  0  0
 34 23  1  0  0  0
 23 24  2  0  0  0
 24 25  1  0  0  0
 25 26  2  0  0  0
 26  1  1  0  0  0
  1  3  1  0  0  0
  3  4  2  0  0  0
  4  5  1  0  0  0
  5  6  2  0  0  0
  6  7  1  0  0  0
  7  8  2  0  0  0
  8 15  1  0  0  0
 15 16  2  0  0  0
 16 17  1  0  0  0
 16 18  1  0  0  0
 18 19  2  0  0  0
 19 20  1  0  0  0
 20 21  2  0  0  0
 21 22  1  0  0  0
  8  9  1  0  0  0
  9 10  2  0  0  0
  9 11  1  0  0  0
 11 12  1  0  0  0
 11 13  1  0  0  0
 13 14  2  0  0  0
 26 27  1  0  0  0
 27 28  2  0  0  0
 28 29  1  0  0  0
 29 30  1  0  0  0
 29 31  2  0  0  0
 38 39  1  0  0  0
 39 40  1  0  0  0
 40 35  1  0  0  0
 28 23  1  0  0  0
 14  3  1  0  0  0
 13  6  1  0  0  0
 21 15  1  0  0  0
  1  2  1  0  0  0
 30 32  1  0  0  0
 30 33  1  0  0  0
M  END
> <minimizedAffinity>
-7.55429

> <CNNscore>
0.0316332988

> <CNNaffinity>
6.0463418961

> <CNN_VS>
0.1912657470

> <CNNaffinity_variance>
0.2364214212

$$$$
[H]c1c([H])c(Cl)c(-c2c([H])c3c([H])nc(N([H])c4c([H])c([H])c(C([H])([H])N5C([H])([H])C([H])([H])N(C([H])([H])C([H])([H])[H])C([H])([H])C5([H])[H])c(C(=O)N([H])[H])c4[H])nc3n(C([H])([H])[H])c2=O)c(Cl)c1[H]


 42 46  0  0  0  0  0  0  0  0999 V2000
   36.1241   15.4452  -11.9275 N   0  0  0  0  0  0  0  0  0  0  0  0
   35.4303   15.0827  -12.6573 H   0  0  0  0  0  0  0  0  0  0  0  0
   37.4629   15.4100  -12.2490 C   0  0  0  0  0  0  0  0  0  0  0  0
   37.8394   14.9646  -13.4930 N   0  0  0  0  0  0  0  0  0  0  0  0
   39.1306   14.8868  -13.8524 C   0  0  0  0  0  0  0  0  0  0  0  0
   40.1219   15.2561  -12.9708 C   0  0  0  0  0  0  0  0  0  0  0  0
   41.4723   15.1985  -13.2766 C   0  0  0  0  0  0  0  0  0  0  0  0
   42.4326   15.5766  -12.3641 C   0  0  0  0  0  0  0  0  0  0  0  0
   41.9871   16.0173  -11.1267 C   0  0  0  0  0  0  0  0  0  0  0  0
   42.8261   16.3681  -10.2741 O   0  0  0  0  0  0  0  0  0  0  0  0
   40.6624   16.0792  -10.8111 N   0  0  0  0  0  0  0  0  0  0  0  0
   40.1931   16.5358   -9.5180 C   0  0  0  0  0  0  0  0  0  0  0  0
   39.7448   15.7050  -11.7177 C   0  0  0  0  0  0  0  0  0  0  0  0
   38.4423   15.7585  -11.4231 N   0  0  0  0  0  0  0  0  0  0  0  0
   43.8675   15.5349  -12.6401 C   0  0  0  0  0  0  0  0  0  0  0  0
   44.6164   14.3920  -12.4463 C   0  0  0  0  0  0  0  0  0  0  0  0
   43.8020   12.9679  -11.8545 Cl  0  0  0  0  0  0  0  0  0  0  0  0
   45.9711   14.3474  -12.7051 C   0  0  0  0  0  0  0  0  0  0  0  0
   46.6367   15.4592  -13.1736 C   0  0  0  0  0  0  0  0  0  0  0  0
   45.8940   16.6081  -13.3708 C   0  0  0  0  0  0  0  0  0  0  0  0
   44.5294   16.6509  -13.1094 C   0  0  0  0  0  0  0  0  0  0  0  0
   43.5925   18.0999  -13.3582 Cl  0  0  0  0  0  0  0  0  0  0  0  0
   34.2432   16.7189   -8.3387 C   0  0  0  0  0  0  0  0  0  0  0  0
   35.5813   16.9607   -8.5591 C   0  0  0  0  0  0  0  0  0  0  0  0
   36.2461   16.5737   -9.7262 C   0  0  0  0  0  0  0  0  0  0  0  0
   35.5781   15.9189  -10.7261 C   0  0  0  0  0  0  0  0  0  0  0  0
   34.2242   15.6696  -10.5118 C   0  0  0  0  0  0  0  0  0  0  0  0
   33.5753   16.0624   -9.3431 C   0  0  0  0  0  0  0  0  0  0  0  0
   32.1539   15.7489   -9.2015 C   0  0  0  0  0  0  0  0  0  0  0  0
   31.7563   14.5269   -8.5337 N   0  0  0  0  0  0  0  0  0  0  0  0
   31.2959   16.5217   -9.6485 O   0  0  0  0  0  0  0  0  0  0  0  0
   31.3373   14.6286   -7.6008 H   0  0  0  0  0  0  0  0  0  0  0  0
   31.9165   13.6237   -9.0322 H   0  0  0  0  0  0  0  0  0  0  0  0
   33.6105   17.1187   -7.0687 C   0  0  0  0  0  0  0  0  0  0  0  0
   34.5348   19.5421   -3.8175 N   0  0  0  0  0  0  0  0  0  0  0  0
   34.7538   18.1236   -3.7294 C   0  0  0  0  0  0  0  0  0  0  0  0
   34.0708   17.3549   -4.8123 C   0  0  0  0  0  0  0  0  0  0  0  0
   34.5806   17.7618   -6.1458 N   0  0  0  0  0  0  0  0  0  0  0  0
   34.2506   19.1926   -6.2301 C   0  0  0  0  0  0  0  0  0  0  0  0
   34.8937   19.9960   -5.1498 C   0  0  0  0  0  0  0  0  0  0  0  0
   32.9918   21.4115   -3.3642 C   0  0  0  0  0  0  0  0  0  0  0  0
   33.1835   19.9281   -3.5468 C   0  0  0  0  0  0  0  0  0  0  0  0
 41 42  1  0  0  0
 42 35  1  0  0  0
 35 36  1  0  0  0
 36 37  1  0  0  0
 37 38  1  0  0  0
 38 34  1  0  0  0
 34 23  1  0  0  0
 23 24  2  0  0  0
 24 25  1  0  0  0
 25 26  2  0  0  0
 26  1  1  0  0  0
  1  3  1  0  0  0
  3  4  2  0  0  0
  4  5  1  0  0  0
  5  6  2  0  0  0
  6  7  1  0  0  0
  7  8  2  0  0  0
  8 15  1  0  0  0
 15 16  2  0  0  0
 16 17  1  0  0  0
 16 18  1  0  0  0
 18 19  2  0  0  0
 19 20  1  0  0  0
 20 21  2  0  0  0
 21 22  1  0  0  0
  8  9  1  0  0  0
  9 10  2  0  0  0
  9 11  1  0  0  0
 11 12  1  0  0  0
 11 13  1  0  0  0
 13 14  2  0  0  0
 26 27  1  0  0  0
 27 28  2  0  0  0
 28 29  1  0  0  0
 29 30  1  0  0  0
 29 31  2  0  0  0
 38 39  1  0  0  0
 39 40  1  0  0  0
 40 35  1  0  0  0
 28 23  1  0  0  0
 14  3  1  0  0  0
 13  6  1  0  0  0
 21 15  1  0  0  0
  1  2  1  0  0  0
 30 32  1  0  0  0
 30 33  1  0  0  0
M  END
> <minimizedAffinity>
-7.27211

> <CNNscore>
0.0304355100

> <CNNaffinity>
5.8874564171

> <CNN_VS>
0.1791877449

> <CNNaffinity_variance>
0.2269520462

$$$$
[H]c1c([H])c(Cl)c(-c2c([H])c3c([H])nc(N([H])c4c([H])c([H])c(C([H])([H])N5C([H])([H])C([H])([H])N(C([H])([H])C([H])([H])[H])C([H])([H])C5([H])[H])c(C(=O)N([H])[H])c4[H])nc3n(C([H])([H])[H])c2=O)c(Cl)c1[H]


 42 46  0  0  0  0  0  0  0  0999 V2000
   36.4509   15.0824  -10.1856 N   0  0  0  0  0  0  0  0  0  0  0  0
   35.5665   15.6173   -9.9081 H   0  0  0  0  0  0  0  0  0  0  0  0
   37.4016   14.8745   -9.2111 C   0  0  0  0  0  0  0  0  0  0  0  0
   37.0241   14.2988   -8.0220 N   0  0  0  0  0  0  0  0  0  0  0  0
   37.9031   14.0939   -7.0282 C   0  0  0  0  0  0  0  0  0  0  0  0
   39.2219   14.4610   -7.1786 C   0  0  0  0  0  0  0  0  0  0  0  0
   40.1792   14.2800   -6.1932 C   0  0  0  0  0  0  0  0  0  0  0  0
   41.4887   14.6631   -6.3843 C   0  0  0  0  0  0  0  0  0  0  0  0
   41.8050   15.2376   -7.6065 C   0  0  0  0  0  0  0  0  0  0  0  0
   42.9797   15.5975   -7.8170 O   0  0  0  0  0  0  0  0  0  0  0  0
   40.8744   15.4226   -8.5851 N   0  0  0  0  0  0  0  0  0  0  0  0
   41.2003   16.0257   -9.8622 C   0  0  0  0  0  0  0  0  0  0  0  0
   39.6039   15.0407   -8.3752 C   0  0  0  0  0  0  0  0  0  0  0  0
   38.6794   15.2166   -9.3242 N   0  0  0  0  0  0  0  0  0  0  0  0
   42.5337   14.4920   -5.3766 C   0  0  0  0  0  0  0  0  0  0  0  0
   43.2634   13.3253   -5.2708 C   0  0  0  0  0  0  0  0  0  0  0  0
   42.9090   12.0320   -6.3858 Cl  0  0  0  0  0  0  0  0  0  0  0  0
   44.2506   13.1585   -4.3212 C   0  0  0  0  0  0  0  0  0  0  0  0
   44.5491   14.1658   -3.4296 C   0  0  0  0  0  0  0  0  0  0  0  0
   43.8232   15.3379   -3.5289 C   0  0  0  0  0  0  0  0  0  0  0  0
   42.8290   15.5038   -4.4862 C   0  0  0  0  0  0  0  0  0  0  0  0
   41.9134   16.9820   -4.6114 Cl  0  0  0  0  0  0  0  0  0  0  0  0
   36.4099   13.7426  -14.2159 C   0  0  0  0  0  0  0  0  0  0  0  0
   37.5188   14.3693  -13.6912 C   0  0  0  0  0  0  0  0  0  0  0  0
   37.5891   14.8189  -12.3695 C   0  0  0  0  0  0  0  0  0  0  0  0
   36.5299   14.6525  -11.5178 C   0  0  0  0  0  0  0  0  0  0  0  0
   35.4038   14.0199  -12.0400 C   0  0  0  0  0  0  0  0  0  0  0  0
   35.3492   13.5766  -13.3597 C   0  0  0  0  0  0  0  0  0  0  0  0
   34.1210   12.9321  -13.8234 C   0  0  0  0  0  0  0  0  0  0  0  0
   33.0042   13.7493  -14.2505 N   0  0  0  0  0  0  0  0  0  0  0  0
   34.0354   11.6971  -13.8514 O   0  0  0  0  0  0  0  0  0  0  0  0
   32.8084   13.7687  -15.2591 H   0  0  0  0  0  0  0  0  0  0  0  0
   32.4689   14.2658  -13.5179 H   0  0  0  0  0  0  0  0  0  0  0  0
   36.3852   13.3272  -15.6300 C   0  0  0  0  0  0  0  0  0  0  0  0
   38.1436   10.3007  -17.8763 N   0  0  0  0  0  0  0  0  0  0  0  0
   38.8445   10.8409  -16.7428 C   0  0  0  0  0  0  0  0  0  0  0  0
   38.2642   12.1259  -16.2506 C   0  0  0  0  0  0  0  0  0  0  0  0
   36.8618   11.9312  -15.8049 N   0  0  0  0  0  0  0  0  0  0  0  0
   36.1654   11.4713  -17.0160 C   0  0  0  0  0  0  0  0  0  0  0  0
   36.7302   10.2005  -17.5568 C   0  0  0  0  0  0  0  0  0  0  0  0
   39.7254   11.3025  -19.4810 C   0  0  0  0  0  0  0  0  0  0  0  0
   38.2938   11.0831  -19.0652 C   0  0  0  0  0  0  0  0  0  0  0  0
 41 42  1  0  0  0
 42 35  1  0  0  0
 35 36  1  0  0  0
 36 37  1  0  0  0
 37 38  1  0  0  0
 38 34  1  0  0  0
 34 23  1  0  0  0
 23 24  2  0  0  0
 24 25  1  0  0  0
 25 26  2  0  0  0
 26  1  1  0  0  0
  1  3  1  0  0  0
  3  4  2  0  0  0
  4  5  1  0  0  0
  5  6  2  0  0  0
  6  7  1  0  0  0
  7  8  2  0  0  0
  8 15  1  0  0  0
 15 16  2  0  0  0
 16 17  1  0  0  0
 16 18  1  0  0  0
 18 19  2  0  0  0
 19 20  1  0  0  0
 20 21  2  0  0  0
 21 22  1  0  0  0
  8  9  1  0  0  0
  9 10  2  0  0  0
  9 11  1  0  0  0
 11 12  1  0  0  0
 11 13  1  0  0  0
 13 14  2  0  0  0
 26 27  1  0  0  0
 27 28  2  0  0  0
 28 29  1  0  0  0
 29 30  1  0  0  0
 29 31  2  0  0  0
 38 39  1  0  0  0
 39 40  1  0  0  0
 40 35  1  0  0  0
 28 23  1  0  0  0
 14  3  1  0  0  0
 13  6  1  0  0  0
 21 15  1  0  0  0
  1  2  1  0  0  0
 30 32  1  0  0  0
 30 33  1  0  0  0
M  END
> <minimizedAffinity>
-7.93443

> <CNNscore>
0.0299311820

> <CNNaffinity>
6.3984479904

> <CNN_VS>
0.1915131062

> <CNNaffinity_variance>
0.1768363714

$$$$
[H]c1c([H])c(Cl)c(-c2c([H])c3c([H])nc(N([H])c4c([H])c([H])c(C([H])([H])N5C([H])([H])C([H])([H])N(C([H])([H])C([H])([H])[H])C([H])([H])C5([H])[H])c(C(=O)N([H])[H])c4[H])nc3n(C([H])([H])[H])c2=O)c(Cl)c1[H]


 42 46  0  0  0  0  0  0  0  0999 V2000
   39.1637   16.8787  -10.7133 N   0  0  0  0  0  0  0  0  0  0  0  0
   38.8961   17.9020  -10.8761 H   0  0  0  0  0  0  0  0  0  0  0  0
   40.2855   16.4038  -11.3559 C   0  0  0  0  0  0  0  0  0  0  0  0
   40.1577   15.8696  -12.6153 N   0  0  0  0  0  0  0  0  0  0  0  0
   41.2125   15.3706  -13.2792 C   0  0  0  0  0  0  0  0  0  0  0  0
   42.4646   15.3821  -12.7061 C   0  0  0  0  0  0  0  0  0  0  0  0
   43.5938   14.8821  -13.3347 C   0  0  0  0  0  0  0  0  0  0  0  0
   44.8286   14.9119  -12.7247 C   0  0  0  0  0  0  0  0  0  0  0  0
   44.8904   15.4647  -11.4541 C   0  0  0  0  0  0  0  0  0  0  0  0
   45.9903   15.5095  -10.8693 O   0  0  0  0  0  0  0  0  0  0  0  0
   43.7885   15.9601  -10.8227 N   0  0  0  0  0  0  0  0  0  0  0  0
   43.8483   16.5352   -9.4936 C   0  0  0  0  0  0  0  0  0  0  0  0
   42.5953   15.9198  -11.4381 C   0  0  0  0  0  0  0  0  0  0  0  0
   41.5053   16.4001  -10.8319 N   0  0  0  0  0  0  0  0  0  0  0  0
   46.0476   14.3986  -13.3470 C   0  0  0  0  0  0  0  0  0  0  0  0
   46.5121   13.1223  -13.1019 C   0  0  0  0  0  0  0  0  0  0  0  0
   45.5982   12.1115  -12.0136 Cl  0  0  0  0  0  0  0  0  0  0  0  0
   47.6623   12.6330  -13.6865 C   0  0  0  0  0  0  0  0  0  0  0  0
   48.4012   13.4123  -14.5500 C   0  0  0  0  0  0  0  0  0  0  0  0
   47.9427   14.6919  -14.8013 C   0  0  0  0  0  0  0  0  0  0  0  0
   46.7838   15.1828  -14.2112 C   0  0  0  0  0  0  0  0  0  0  0  0
   46.2055   16.7966  -14.5282 Cl  0  0  0  0  0  0  0  0  0  0  0  0
   36.7398   14.8158   -7.9010 C   0  0  0  0  0  0  0  0  0  0  0  0
   36.5420   14.6565   -9.2549 C   0  0  0  0  0  0  0  0  0  0  0  0
   37.3179   15.3020  -10.2221 C   0  0  0  0  0  0  0  0  0  0  0  0
   38.3335   16.1438   -9.8551 C   0  0  0  0  0  0  0  0  0  0  0  0
   38.5407   16.3113   -8.4876 C   0  0  0  0  0  0  0  0  0  0  0  0
   37.7592   15.6602   -7.5354 C   0  0  0  0  0  0  0  0  0  0  0  0
   38.0432   15.9048   -6.1218 C   0  0  0  0  0  0  0  0  0  0  0  0
   37.2756   16.8999   -5.4020 N   0  0  0  0  0  0  0  0  0  0  0  0
   38.9328   15.2665   -5.5435 O   0  0  0  0  0  0  0  0  0  0  0  0
   36.5991   16.5481   -4.7130 H   0  0  0  0  0  0  0  0  0  0  0  0
   37.4514   17.9051   -5.6220 H   0  0  0  0  0  0  0  0  0  0  0  0
   35.8609   14.1363   -6.9322 C   0  0  0  0  0  0  0  0  0  0  0  0
   31.8646   14.8440   -6.0229 N   0  0  0  0  0  0  0  0  0  0  0  0
   32.8380   14.8143   -4.9648 C   0  0  0  0  0  0  0  0  0  0  0  0
   34.1428   14.2204   -5.3829 C   0  0  0  0  0  0  0  0  0  0  0  0
   34.7556   15.0172   -6.4752 N   0  0  0  0  0  0  0  0  0  0  0  0
   33.7713   14.9405   -7.5653 C   0  0  0  0  0  0  0  0  0  0  0  0
   32.4431   15.5016   -7.1817 C   0  0  0  0  0  0  0  0  0  0  0  0
   30.2738   13.5651   -7.4065 C   0  0  0  0  0  0  0  0  0  0  0  0
   31.4046   13.5455   -6.4109 C   0  0  0  0  0  0  0  0  0  0  0  0
 41 42  1  0  0  0
 42 35  1  0  0  0
 35 36  1  0  0  0
 36 37  1  0  0  0
 37 38  1  0  0  0
 38 34  1  0  0  0
 34 23  1  0  0  0
 23 24  2  0  0  0
 24 25  1  0  0  0
 25 26  2  0  0  0
 26  1  1  0  0  0
  1  3  1  0  0  0
  3  4  2  0  0  0
  4  5  1  0  0  0
  5  6  2  0  0  0
  6  7  1  0  0  0
  7  8  2  0  0  0
  8 15  1  0  0  0
 15 16  2  0  0  0
 16 17  1  0  0  0
 16 18  1  0  0  0
 18 19  2  0  0  0
 19 20  1  0  0  0
 20 21  2  0  0  0
 21 22  1  0  0  0
  8  9  1  0  0  0
  9 10  2  0  0  0
  9 11  1  0  0  0
 11 12  1  0  0  0
 11 13  1  0  0  0
 13 14  2  0  0  0
 26 27  1  0  0  0
 27 28  2  0  0  0
 28 29  1  0  0  0
 29 30  1  0  0  0
 29 31  2  0  0  0
 38 39  1  0  0  0
 39 40  1  0  0  0
 40 35  1  0  0  0
 28 23  1  0  0  0
 14  3  1  0  0  0
 13  6  1  0  0  0
 21 15  1  0  0  0
  1  2  1  0  0  0
 30 32  1  0  0  0
 30 33  1  0  0  0
M  END
> <minimizedAffinity>
-6.66819

> <CNNscore>
0.0297498927

> <CNNaffinity>
5.5492372513

> <CNN_VS>
0.1650892198

> <CNNaffinity_variance>
0.1497565657

$$$$
[H]c1c([H])c(Cl)c(-c2c([H])c3c([H])nc(N([H])c4c([H])c([H])c(C([H])([H])N5C([H])([H])C([H])([H])N(C([H])([H])C([H])([H])[H])C([H])([H])C5([H])[H])c(C(=O)N([H])[H])c4[H])nc3n(C([H])([H])[H])c2=O)c(Cl)c1[H]


 42 46  0  0  0  0  0  0  0  0999 V2000
   38.6556   17.4294   -9.9892 N   0  0  0  0  0  0  0  0  0  0  0  0
   38.7799   18.4651   -9.7503 H   0  0  0  0  0  0  0  0  0  0  0  0
   39.6875   16.7998  -10.6493 C   0  0  0  0  0  0  0  0  0  0  0  0
   39.4578   16.2699  -11.8960 N   0  0  0  0  0  0  0  0  0  0  0  0
   40.4195   15.6251  -12.5754 C   0  0  0  0  0  0  0  0  0  0  0  0
   41.6761   15.4771  -12.0317 C   0  0  0  0  0  0  0  0  0  0  0  0
   42.7123   14.8218  -12.6776 C   0  0  0  0  0  0  0  0  0  0  0  0
   43.9551   14.6947  -12.0969 C   0  0  0  0  0  0  0  0  0  0  0  0
   44.1221   15.2520  -10.8378 C   0  0  0  0  0  0  0  0  0  0  0  0
   45.2326   15.1575  -10.2795 O   0  0  0  0  0  0  0  0  0  0  0  0
   43.1124   15.8991  -10.1898 N   0  0  0  0  0  0  0  0  0  0  0  0
   43.2819   16.4796   -8.8725 C   0  0  0  0  0  0  0  0  0  0  0  0
   41.9094   16.0101  -10.7766 C   0  0  0  0  0  0  0  0  0  0  0  0
   40.9088   16.6403  -10.1537 N   0  0  0  0  0  0  0  0  0  0  0  0
   45.0786   14.0143  -12.7384 C   0  0  0  0  0  0  0  0  0  0  0  0
   45.4393   12.7246  -12.4049 C   0  0  0  0  0  0  0  0  0  0  0  0
   44.5096   11.9037  -11.1788 Cl  0  0  0  0  0  0  0  0  0  0  0  0
   46.4991   12.0779  -13.0072 C   0  0  0  0  0  0  0  0  0  0  0  0
   47.2483   12.7054  -13.9787 C   0  0  0  0  0  0  0  0  0  0  0  0
   46.8936   13.9972  -14.3190 C   0  0  0  0  0  0  0  0  0  0  0  0
   45.8256   14.6469  -13.7109 C   0  0  0  0  0  0  0  0  0  0  0  0
   45.3781   16.2762  -14.1401 Cl  0  0  0  0  0  0  0  0  0  0  0  0
   35.1020   15.6214   -8.5253 C   0  0  0  0  0  0  0  0  0  0  0  0
   35.1352   16.2057   -9.7723 C   0  0  0  0  0  0  0  0  0  0  0  0
   36.2803   16.8036  -10.3063 C   0  0  0  0  0  0  0  0  0  0  0  0
   37.4486   16.8363   -9.5928 C   0  0  0  0  0  0  0  0  0  0  0  0
   37.4243   16.2480   -8.3302 C   0  0  0  0  0  0  0  0  0  0  0  0
   36.2749   15.6551   -7.8119 C   0  0  0  0  0  0  0  0  0  0  0  0
   36.3407   15.0712   -6.4726 C   0  0  0  0  0  0  0  0  0  0  0  0
   36.6599   13.6667   -6.3219 N   0  0  0  0  0  0  0  0  0  0  0  0
   36.1254   15.7714   -5.4743 O   0  0  0  0  0  0  0  0  0  0  0  0
   37.5897   13.4449   -5.9447 H   0  0  0  0  0  0  0  0  0  0  0  0
   35.9358   12.9687   -6.6020 H   0  0  0  0  0  0  0  0  0  0  0  0
   33.8507   15.0420   -8.0043 C   0  0  0  0  0  0  0  0  0  0  0  0
   29.9420   16.4448   -7.7766 N   0  0  0  0  0  0  0  0  0  0  0  0
   31.0255   17.3820   -7.9012 C   0  0  0  0  0  0  0  0  0  0  0  0
   32.3623   16.7748   -7.6285 C   0  0  0  0  0  0  0  0  0  0  0  0
   32.6524   15.6886   -8.5979 N   0  0  0  0  0  0  0  0  0  0  0  0
   31.5765   14.7123   -8.3689 C   0  0  0  0  0  0  0  0  0  0  0  0
   30.2195   15.2854   -8.6065 C   0  0  0  0  0  0  0  0  0  0  0  0
   28.7428   16.8591   -5.6621 C   0  0  0  0  0  0  0  0  0  0  0  0
   29.7184   16.0074   -6.4324 C   0  0  0  0  0  0  0  0  0  0  0  0
 41 42  1  0  0  0
 42 35  1  0  0  0
 35 36  1  0  0  0
 36 37  1  0  0  0
 37 38  1  0  0  0
 38 34  1  0  0  0
 34 23  1  0  0  0
 23 24  2  0  0  0
 24 25  1  0  0  0
 25 26  2  0  0  0
 26  1  1  0  0  0
  1  3  1  0  0  0
  3  4  2  0  0  0
  4  5  1  0  0  0
  5  6  2  0  0  0
  6  7  1  0  0  0
  7  8  2  0  0  0
  8 15  1  0  0  0
 15 16  2  0  0  0
 16 17  1  0  0  0
 16 18  1  0  0  0
 18 19  2  0  0  0
 19 20  1  0  0  0
 20 21  2  0  0  0
 21 22  1  0  0  0
  8  9  1  0  0  0
  9 10  2  0  0  0
  9 11  1  0  0  0
 11 12  1  0  0  0
 11 13  1  0  0  0
 13 14  2  0  0  0
 26 27  1  0  0  0
 27 28  2  0  0  0
 28 29  1  0  0  0
 29 30  1  0  0  0
 29 31  2  0  0  0
 38 39  1  0  0  0
 39 40  1  0  0  0
 40 35  1  0  0  0
 28 23  1  0  0  0
 14  3  1  0  0  0
 13  6  1  0  0  0
 21 15  1  0  0  0
  1  2  1  0  0  0
 30 32  1  0  0  0
 30 33  1  0  0  0
M  END
> <minimizedAffinity>
-6.92894

> <CNNscore>
0.0243586358

> <CNNaffinity>
5.6595139503

> <CNN_VS>
0.1378580332

> <CNNaffinity_variance>
0.1941280514

$$$$
[H]c1c([H])c(Cl)c(-c2c([H])c3c([H])nc(N([H])c4c([H])c([H])c(C([H])([H])N5C([H])([H])C([H])([H])N(C([H])([H])C([H])([H])[H])C([H])([H])C5([H])[H])c(C(=O)N([H])[H])c4[H])nc3n(C([H])([H])[H])c2=O)c(Cl)c1[H]


 42 46  0  0  0  0  0  0  0  0999 V2000
   36.3088   14.9359  -12.5099 N   0  0  0  0  0  0  0  0  0  0  0  0
   35.7188   14.6781  -13.3648 H   0  0  0  0  0  0  0  0  0  0  0  0
   37.6719   15.0308  -12.6821 C   0  0  0  0  0  0  0  0  0  0  0  0
   38.2225   14.6407  -13.8789 N   0  0  0  0  0  0  0  0  0  0  0  0
   39.5468   14.6892  -14.0942 C   0  0  0  0  0  0  0  0  0  0  0  0
   40.3965   15.1370  -13.1073 C   0  0  0  0  0  0  0  0  0  0  0  0
   41.7715   15.2104  -13.2628 C   0  0  0  0  0  0  0  0  0  0  0  0
   42.5863   15.6635  -12.2485 C   0  0  0  0  0  0  0  0  0  0  0  0
   41.9686   16.0426  -11.0659 C   0  0  0  0  0  0  0  0  0  0  0  0
   42.6724   16.4580  -10.1247 O   0  0  0  0  0  0  0  0  0  0  0  0
   40.6174   15.9756  -10.8979 N   0  0  0  0  0  0  0  0  0  0  0  0
   39.9685   16.3675   -9.6625 C   0  0  0  0  0  0  0  0  0  0  0  0
   39.8439   15.5304  -11.9016 C   0  0  0  0  0  0  0  0  0  0  0  0
   38.5178   15.4574  -11.7520 N   0  0  0  0  0  0  0  0  0  0  0  0
   44.0402   15.7603  -12.3650 C   0  0  0  0  0  0  0  0  0  0  0  0
   44.6610   16.8928  -12.8515 C   0  0  0  0  0  0  0  0  0  0  0  0
   43.6578   18.2353  -13.3339 Cl  0  0  0  0  0  0  0  0  0  0  0  0
   46.0330   16.9891  -12.9638 C   0  0  0  0  0  0  0  0  0  0  0  0
   46.8466   15.9421  -12.5888 C   0  0  0  0  0  0  0  0  0  0  0  0
   46.2329   14.8041  -12.1002 C   0  0  0  0  0  0  0  0  0  0  0  0
   44.8506   14.7091  -11.9880 C   0  0  0  0  0  0  0  0  0  0  0  0
   44.0766   13.2739  -11.3716 Cl  0  0  0  0  0  0  0  0  0  0  0  0
   34.4464   15.5480   -8.7421 C   0  0  0  0  0  0  0  0  0  0  0  0
   33.8019   15.8861   -9.9117 C   0  0  0  0  0  0  0  0  0  0  0  0
   34.3642   15.6951  -11.1772 C   0  0  0  0  0  0  0  0  0  0  0  0
   35.6134   15.1509  -11.3116 C   0  0  0  0  0  0  0  0  0  0  0  0
   36.2730   14.8062  -10.1338 C   0  0  0  0  0  0  0  0  0  0  0  0
   35.6990   15.0020   -8.8795 C   0  0  0  0  0  0  0  0  0  0  0  0
   36.4704   14.6192   -7.6975 C   0  0  0  0  0  0  0  0  0  0  0  0
   37.3545   15.5853   -7.0793 N   0  0  0  0  0  0  0  0  0  0  0  0
   36.3691   13.4780   -7.2278 O   0  0  0  0  0  0  0  0  0  0  0  0
   37.0564   15.9665   -6.1726 H   0  0  0  0  0  0  0  0  0  0  0  0
   38.2331   15.8363   -7.5842 H   0  0  0  0  0  0  0  0  0  0  0  0
   33.8138   15.8114   -7.4370 C   0  0  0  0  0  0  0  0  0  0  0  0
   31.4009   18.7451   -5.7431 N   0  0  0  0  0  0  0  0  0  0  0  0
   32.8198   18.7730   -5.5112 C   0  0  0  0  0  0  0  0  0  0  0  0
   33.5012   17.4967   -5.8810 C   0  0  0  0  0  0  0  0  0  0  0  0
   33.3326   17.2125   -7.3282 N   0  0  0  0  0  0  0  0  0  0  0  0
   31.8763   17.0983   -7.4997 C   0  0  0  0  0  0  0  0  0  0  0  0
   31.1524   18.3456   -7.1173 C   0  0  0  0  0  0  0  0  0  0  0  0
   29.2064   17.8346   -5.0828 C   0  0  0  0  0  0  0  0  0  0  0  0
   30.6980   17.8557   -4.8696 C   0  0  0  0  0  0  0  0  0  0  0  0
 41 42  1  0  0  0
 42 35  1  0  0  0
 35 36  1  0  0  0
 36 37  1  0  0  0
 37 38  1  0  0  0
 38 34  1  0  0  0
 34 23  1  0  0  0
 23 24  2  0  0  0
 24 25  1  0  0  0
 25 26  2  0  0  0
 26  1  1  0  0  0
  1  3  1  0  0  0
  3  4  2  0  0  0
  4  5  1  0  0  0
  5  6  2  0  0  0
  6  7  1  0  0  0
  7  8  2  0  0  0
  8 15  1  0  0  0
 15 16  2  0  0  0
 16 17  1  0  0  0
 16 18  1  0  0  0
 18 19  2  0  0  0
 19 20  1  0  0  0
 20 21  2  0  0  0
 21 22  1  0  0  0
  8  9  1  0  0  0
  9 10  2  0  0  0
  9 11  1  0  0  0
 11 12  1  0  0  0
 11 13  1  0  0  0
 13 14  2  0  0  0
 26 27  1  0  0  0
 27 28  2  0  0  0
 28 29  1  0  0  0
 29 30  1  0  0  0
 29 31  2  0  0  0
 38 39  1  0  0  0
 39 40  1  0  0  0
 40 35  1  0  0  0
 28 23  1  0  0  0
 14  3  1  0  0  0
 13  6  1  0  0  0
 21 15  1  0  0  0
  1  2  1  0  0  0
 30 32  1  0  0  0
 30 33  1  0  0  0
M  END
> <minimizedAffinity>
-7.21499

> <CNNscore>
0.0241395626

> <CNNaffinity>
5.7138700485

> <CNN_VS>
0.1379303187

> <CNNaffinity_variance>
0.2745864391

$$$$
[H]c1c([H])c(Cl)c(-c2c([H])c3c([H])nc(N([H])c4c([H])c([H])c(C([H])([H])N5C([H])([H])C([H])([H])N(C([H])([H])C([H])([H])[H])C([H])([H])C5([H])[H])c(C(=O)N([H])[H])c4[H])nc3n(C([H])([H])[H])c2=O)c(Cl)c1[H]


 42 46  0  0  0  0  0  0  0  0999 V2000
   33.7696   14.5959  -13.2370 N   0  0  0  0  0  0  0  0  0  0  0  0
   32.9474   14.7967  -13.8920 H   0  0  0  0  0  0  0  0  0  0  0  0
   33.7051   15.1057  -11.9592 C   0  0  0  0  0  0  0  0  0  0  0  0
   34.8382   15.6414  -11.3961 N   0  0  0  0  0  0  0  0  0  0  0  0
   34.8396   16.1311  -10.1461 C   0  0  0  0  0  0  0  0  0  0  0  0
   33.6902   16.1077   -9.3880 C   0  0  0  0  0  0  0  0  0  0  0  0
   33.6234   16.5941   -8.0921 C   0  0  0  0  0  0  0  0  0  0  0  0
   32.4525   16.5502   -7.3675 C   0  0  0  0  0  0  0  0  0  0  0  0
   31.3447   15.9979   -7.9932 C   0  0  0  0  0  0  0  0  0  0  0  0
   30.2669   15.9403   -7.3697 O   0  0  0  0  0  0  0  0  0  0  0  0
   31.3951   15.5150   -9.2670 N   0  0  0  0  0  0  0  0  0  0  0  0
   30.2405   14.9338   -9.9229 C   0  0  0  0  0  0  0  0  0  0  0  0
   32.5483   15.5689   -9.9533 C   0  0  0  0  0  0  0  0  0  0  0  0
   32.6143   15.0984  -11.2025 N   0  0  0  0  0  0  0  0  0  0  0  0
   32.3321   17.0512   -5.9995 C   0  0  0  0  0  0  0  0  0  0  0  0
   32.7060   16.2939   -4.9079 C   0  0  0  0  0  0  0  0  0  0  0  0
   33.3391   14.6948   -5.1969 Cl  0  0  0  0  0  0  0  0  0  0  0  0
   32.5941   16.7620   -3.6147 C   0  0  0  0  0  0  0  0  0  0  0  0
   32.0973   18.0220   -3.3611 C   0  0  0  0  0  0  0  0  0  0  0  0
   31.7208   18.7873   -4.4488 C   0  0  0  0  0  0  0  0  0  0  0  0
   31.8342   18.3138   -5.7508 C   0  0  0  0  0  0  0  0  0  0  0  0
   31.3595   19.2789   -7.1227 Cl  0  0  0  0  0  0  0  0  0  0  0  0
   36.7716   12.2002  -15.0505 C   0  0  0  0  0  0  0  0  0  0  0  0
   37.0871   13.0852  -14.0431 C   0  0  0  0  0  0  0  0  0  0  0  0
   36.1370   13.8879  -13.4052 C   0  0  0  0  0  0  0  0  0  0  0  0
   34.8173   13.8283  -13.7652 C   0  0  0  0  0  0  0  0  0  0  0  0
   34.4888   12.9361  -14.7835 C   0  0  0  0  0  0  0  0  0  0  0  0
   35.4473   12.1419  -15.4094 C   0  0  0  0  0  0  0  0  0  0  0  0
   35.0112   11.2414  -16.4760 C   0  0  0  0  0  0  0  0  0  0  0  0
   35.7043   11.2537  -17.7476 N   0  0  0  0  0  0  0  0  0  0  0  0
   34.0569   10.4736  -16.2946 O   0  0  0  0  0  0  0  0  0  0  0  0
   36.2971   10.4403  -17.9556 H   0  0  0  0  0  0  0  0  0  0  0  0
   35.5640   12.0784  -18.3722 H   0  0  0  0  0  0  0  0  0  0  0  0
   37.8273   11.4103  -15.7095 C   0  0  0  0  0  0  0  0  0  0  0  0
   41.3222   12.6500  -17.5927 N   0  0  0  0  0  0  0  0  0  0  0  0
   40.3946   11.8102  -18.3012 C   0  0  0  0  0  0  0  0  0  0  0  0
   39.3798   11.1727  -17.4102 C   0  0  0  0  0  0  0  0  0  0  0  0
   38.5559   12.2044  -16.7317 N   0  0  0  0  0  0  0  0  0  0  0  0
   39.5308   12.9774  -15.9473 C   0  0  0  0  0  0  0  0  0  0  0  0
   40.5795   13.6124  -16.7977 C   0  0  0  0  0  0  0  0  0  0  0  0
   43.2451   12.7790  -16.0543 C   0  0  0  0  0  0  0  0  0  0  0  0
   42.2056   11.9241  -16.7320 C   0  0  0  0  0  0  0  0  0  0  0  0
 41 42  1  0  0  0
 42 35  1  0  0  0
 35 36  1  0  0  0
 36 37  1  0  0  0
 37 38  1  0  0  0
 38 34  1  0  0  0
 34 23  1  0  0  0
 23 24  2  0  0  0
 24 25  1  0  0  0
 25 26  2  0  0  0
 26  1  1  0  0  0
  1  3  1  0  0  0
  3  4  2  0  0  0
  4  5  1  0  0  0
  5  6  2  0  0  0
  6  7  1  0  0  0
  7  8  2  0  0  0
  8 15  1  0  0  0
 15 16  2  0  0  0
 16 17  1  0  0  0
 16 18  1  0  0  0
 18 19  2  0  0  0
 19 20  1  0  0  0
 20 21  2  0  0  0
 21 22  1  0  0  0
  8  9  1  0  0  0
  9 10  2  0  0  0
  9 11  1  0  0  0
 11 12  1  0  0  0
 11 13  1  0  0  0
 13 14  2  0  0  0
 26 27  1  0  0  0
 27 28  2  0  0  0
 28 29  1  0  0  0
 29 30  1  0  0  0
 29 31  2  0  0  0
 38 39  1  0  0  0
 39 40  1  0  0  0
 40 35  1  0  0  0
 28 23  1  0  0  0
 14  3  1  0  0  0
 13  6  1  0  0  0
 21 15  1  0  0  0
  1  2  1  0  0  0
 30 32  1  0  0  0
 30 33  1  0  0  0
M  END
> <minimizedAffinity>
-8.81407

> <CNNscore>
0.0228911750

> <CNNaffinity>
6.4636673927

> <CNN_VS>
0.1479609460

> <CNNaffinity_variance>
0.3168437779

$$$$
[H]c1c([H])c(Cl)c(-c2c([H])c3c([H])nc(N([H])c4c([H])c([H])c(C([H])([H])N5C([H])([H])C([H])([H])N(C([H])([H])C([H])([H])[H])C([H])([H])C5([H])[H])c(C(=O)N([H])[H])c4[H])nc3n(C([H])([H])[H])c2=O)c(Cl)c1[H]


 42 46  0  0  0  0  0  0  0  0999 V2000
   40.3526   16.7617  -10.6591 N   0  0  0  0  0  0  0  0  0  0  0  0
   40.4074   17.8178  -10.8233 H   0  0  0  0  0  0  0  0  0  0  0  0
   39.6926   16.0041  -11.6010 C   0  0  0  0  0  0  0  0  0  0  0  0
   40.1925   15.9441  -12.8794 N   0  0  0  0  0  0  0  0  0  0  0  0
   39.5781   15.2406  -13.8437 C   0  0  0  0  0  0  0  0  0  0  0  0
   38.4162   14.5534  -13.5712 C   0  0  0  0  0  0  0  0  0  0  0  0
   37.7312   13.8106  -14.5196 C   0  0  0  0  0  0  0  0  0  0  0  0
   36.5705   13.1386  -14.2050 C   0  0  0  0  0  0  0  0  0  0  0  0
   36.1190   13.2389  -12.8974 C   0  0  0  0  0  0  0  0  0  0  0  0
   35.0719   12.6449  -12.5742 O   0  0  0  0  0  0  0  0  0  0  0  0
   36.7816   13.9660  -11.9536 N   0  0  0  0  0  0  0  0  0  0  0  0
   36.3111   14.0761  -10.5871 C   0  0  0  0  0  0  0  0  0  0  0  0
   37.9114   14.6125  -12.2845 C   0  0  0  0  0  0  0  0  0  0  0  0
   38.5717   15.3307  -11.3711 N   0  0  0  0  0  0  0  0  0  0  0  0
   35.8139   12.3420  -15.1693 C   0  0  0  0  0  0  0  0  0  0  0  0
   36.4167   11.3847  -15.9598 C   0  0  0  0  0  0  0  0  0  0  0  0
   38.1338   11.1368  -15.7827 Cl  0  0  0  0  0  0  0  0  0  0  0  0
   35.7071   10.6303  -16.8718 C   0  0  0  0  0  0  0  0  0  0  0  0
   34.3497   10.8075  -17.0295 C   0  0  0  0  0  0  0  0  0  0  0  0
   33.7381   11.7642  -16.2414 C   0  0  0  0  0  0  0  0  0  0  0  0
   34.4547   12.5231  -15.3234 C   0  0  0  0  0  0  0  0  0  0  0  0
   33.6833   13.7296  -14.3292 Cl  0  0  0  0  0  0  0  0  0  0  0  0
   41.9628   15.2255   -7.0414 C   0  0  0  0  0  0  0  0  0  0  0  0
   42.7757   15.4816   -8.1237 C   0  0  0  0  0  0  0  0  0  0  0  0
   42.2995   15.9976   -9.3324 C   0  0  0  0  0  0  0  0  0  0  0  0
   40.9691   16.2764   -9.4970 C   0  0  0  0  0  0  0  0  0  0  0  0
   40.1392   16.0201   -8.4077 C   0  0  0  0  0  0  0  0  0  0  0  0
   40.6290   15.5063   -7.2089 C   0  0  0  0  0  0  0  0  0  0  0  0
   39.6813   15.2594   -6.1227 C   0  0  0  0  0  0  0  0  0  0  0  0
   39.4408   16.2932   -5.1374 N   0  0  0  0  0  0  0  0  0  0  0  0
   39.0881   14.1753   -6.0451 O   0  0  0  0  0  0  0  0  0  0  0  0
   38.5307   16.7684   -5.1829 H   0  0  0  0  0  0  0  0  0  0  0  0
   40.1969   16.4940   -4.4460 H   0  0  0  0  0  0  0  0  0  0  0  0
   42.5219   14.6441   -5.8076 C   0  0  0  0  0  0  0  0  0  0  0  0
   43.5396   10.7369   -4.8097 N   0  0  0  0  0  0  0  0  0  0  0  0
   42.6865   10.9804   -5.9415 C   0  0  0  0  0  0  0  0  0  0  0  0
   42.1351   12.3678   -5.9743 C   0  0  0  0  0  0  0  0  0  0  0  0
   43.2303   13.3652   -6.0702 N   0  0  0  0  0  0  0  0  0  0  0  0
   44.0197   13.1435   -4.8492 C   0  0  0  0  0  0  0  0  0  0  0  0
   44.5703   11.7594   -4.7635 C   0  0  0  0  0  0  0  0  0  0  0  0
   41.8050    9.6413   -3.4417 C   0  0  0  0  0  0  0  0  0  0  0  0
   42.8410   10.7290   -3.5606 C   0  0  0  0  0  0  0  0  0  0  0  0
 41 42  1  0  0  0
 42 35  1  0  0  0
 35 36  1  0  0  0
 36 37  1  0  0  0
 37 38  1  0  0  0
 38 34  1  0  0  0
 34 23  1  0  0  0
 23 24  2  0  0  0
 24 25  1  0  0  0
 25 26  2  0  0  0
 26  1  1  0  0  0
  1  3  1  0  0  0
  3  4  2  0  0  0
  4  5  1  0  0  0
  5  6  2  0  0  0
  6  7  1  0  0  0
  7  8  2  0  0  0
  8 15  1  0  0  0
 15 16  2  0  0  0
 16 17  1  0  0  0
 16 18  1  0  0  0
 18 19  2  0  0  0
 19 20  1  0  0  0
 20 21  2  0  0  0
 21 22  1  0  0  0
  8  9  1  0  0  0
  9 10  2  0  0  0
  9 11  1  0  0  0
 11 12  1  0  0  0
 11 13  1  0  0  0
 13 14  2  0  0  0
 26 27  1  0  0  0
 27 28  2  0  0  0
 28 29  1  0  0  0
 29 30  1  0  0  0
 29 31  2  0  0  0
 38 39  1  0  0  0
 39 40  1  0  0  0
 40 35  1  0  0  0
 28 23  1  0  0  0
 14  3  1  0  0  0
 13  6  1  0  0  0
 21 15  1  0  0  0
  1  2  1  0  0  0
 30 32  1  0  0  0
 30 33  1  0  0  0
M  END
> <minimizedAffinity>
-8.43178

> <CNNscore>
0.0223279968

> <CNNaffinity>
5.7609629631

> <CNN_VS>
0.1286307573

> <CNNaffinity_variance>
0.2640096247

$$$$
[H]c1c([H])c(Cl)c(-c2c([H])c3c([H])nc(N([H])c4c([H])c([H])c(C([H])([H])N5C([H])([H])C([H])([H])N(C([H])([H])C([H])([H])[H])C([H])([H])C5([H])[H])c(C(=O)N([H])[H])c4[H])nc3n(C([H])([H])[H])c2=O)c(Cl)c1[H]


 42 46  0  0  0  0  0  0  0  0999 V2000
   43.8674   14.4818  -12.8359 N   0  0  0  0  0  0  0  0  0  0  0  0
   44.5693   14.6515  -13.6258 H   0  0  0  0  0  0  0  0  0  0  0  0
   44.3714   14.1834  -11.5894 C   0  0  0  0  0  0  0  0  0  0  0  0
   44.4010   15.1651  -10.6286 N   0  0  0  0  0  0  0  0  0  0  0  0
   44.9024   14.9376   -9.4042 C   0  0  0  0  0  0  0  0  0  0  0  0
   45.4061   13.6982   -9.0776 C   0  0  0  0  0  0  0  0  0  0  0  0
   45.9394   13.3971   -7.8345 C   0  0  0  0  0  0  0  0  0  0  0  0
   46.4345   12.1435   -7.5494 C   0  0  0  0  0  0  0  0  0  0  0  0
   46.3748   11.1973   -8.5618 C   0  0  0  0  0  0  0  0  0  0  0  0
   46.8132   10.0513   -8.3421 O   0  0  0  0  0  0  0  0  0  0  0  0
   45.8536   11.4787   -9.7896 N   0  0  0  0  0  0  0  0  0  0  0  0
   45.7928   10.4936  -10.8512 C   0  0  0  0  0  0  0  0  0  0  0  0
   45.3770   12.7084  -10.0436 C   0  0  0  0  0  0  0  0  0  0  0  0
   44.8642   13.0003  -11.2428 N   0  0  0  0  0  0  0  0  0  0  0  0
   47.0051   11.7778   -6.2542 C   0  0  0  0  0  0  0  0  0  0  0  0
   48.3455   11.9464   -5.9719 C   0  0  0  0  0  0  0  0  0  0  0  0
   49.3674   12.6190   -7.2148 Cl  0  0  0  0  0  0  0  0  0  0  0  0
   48.8892   11.6025   -4.7511 C   0  0  0  0  0  0  0  0  0  0  0  0
   48.1021   11.0699   -3.7533 C   0  0  0  0  0  0  0  0  0  0  0  0
   46.7583   10.8980   -4.0277 C   0  0  0  0  0  0  0  0  0  0  0  0
   46.2127   11.2450   -5.2582 C   0  0  0  0  0  0  0  0  0  0  0  0
   44.5179   11.0283   -5.6043 Cl  0  0  0  0  0  0  0  0  0  0  0  0
   39.7929   14.5927  -14.0302 C   0  0  0  0  0  0  0  0  0  0  0  0
   40.2191   15.2706  -12.9093 C   0  0  0  0  0  0  0  0  0  0  0  0
   41.5491   15.2768  -12.4791 C   0  0  0  0  0  0  0  0  0  0  0  0
   42.5102   14.5896  -13.1710 C   0  0  0  0  0  0  0  0  0  0  0  0
   42.0883   13.9006  -14.3060 C   0  0  0  0  0  0  0  0  0  0  0  0
   40.7588   13.9046  -14.7227 C   0  0  0  0  0  0  0  0  0  0  0  0
   40.4064   13.1440  -15.9210 C   0  0  0  0  0  0  0  0  0  0  0  0
   39.6936   11.8906  -15.7861 N   0  0  0  0  0  0  0  0  0  0  0  0
   40.7144   13.5675  -17.0431 O   0  0  0  0  0  0  0  0  0  0  0  0
   38.7077   11.8893  -16.0760 H   0  0  0  0  0  0  0  0  0  0  0  0
   40.2160   11.0703  -15.4064 H   0  0  0  0  0  0  0  0  0  0  0  0
   38.3682   14.5944  -14.4083 C   0  0  0  0  0  0  0  0  0  0  0  0
   34.9542   12.7465  -12.9158 N   0  0  0  0  0  0  0  0  0  0  0  0
   36.2392   12.1348  -12.7096 C   0  0  0  0  0  0  0  0  0  0  0  0
   37.3103   12.7110  -13.5760 C   0  0  0  0  0  0  0  0  0  0  0  0
   37.4979   14.1550  -13.2876 N   0  0  0  0  0  0  0  0  0  0  0  0
   36.1911   14.7521  -13.6023 C   0  0  0  0  0  0  0  0  0  0  0  0
   35.0858   14.1862  -12.7751 C   0  0  0  0  0  0  0  0  0  0  0  0
   33.2491   13.3697  -14.5846 C   0  0  0  0  0  0  0  0  0  0  0  0
   34.3844   12.4581  -14.1965 C   0  0  0  0  0  0  0  0  0  0  0  0
 41 42  1  0  0  0
 42 35  1  0  0  0
 35 36  1  0  0  0
 36 37  1  0  0  0
 37 38  1  0  0  0
 38 34  1  0  0  0
 34 23  1  0  0  0
 23 24  2  0  0  0
 24 25  1  0  0  0
 25 26  2  0  0  0
 26  1  1  0  0  0
  1  3  1  0  0  0
  3  4  2  0  0  0
  4  5  1  0  0  0
  5  6  2  0  0  0
  6  7  1  0  0  0
  7  8  2  0  0  0
  8 15  1  0  0  0
 15 16  2  0  0  0
 16 17  1  0  0  0
 16 18  1  0  0  0
 18 19  2  0  0  0
 19 20  1  0  0  0
 20 21  2  0  0  0
 21 22  1  0  0  0
  8  9  1  0  0  0
  9 10  2  0  0  0
  9 11  1  0  0  0
 11 12  1  0  0  0
 11 13  1  0  0  0
 13 14  2  0  0  0
 26 27  1  0  0  0
 27 28  2  0  0  0
 28 29  1  0  0  0
 29 30  1  0  0  0
 29 31  2  0  0  0
 38 39  1  0  0  0
 39 40  1  0  0  0
 40 35  1  0  0  0
 28 23  1  0  0  0
 14  3  1  0  0  0
 13  6  1  0  0  0
 21 15  1  0  0  0
  1  2  1  0  0  0
 30 32  1  0  0  0
 30 33  1  0  0  0
M  END
> <minimizedAffinity>
-6.66887

> <CNNscore>
0.0200596862

> <CNNaffinity>
6.0943899155

> <CNN_VS>
0.1222515479

> <CNNaffinity_variance>
0.3084068894

$$$$
[H]/C(=C1/C(=O)N([H])c2c([H])c([H])c(F)c([H])c21)c1c(C([H])([H])[H])c(C(=O)N([H])C([H])([H])C([H])([H])N(C([H])([H])C([H])([H])[H])C([H])([H])C([H])([H])[H])c(C([H])([H])[H])n1[H]


 32 34  0  0  0  0  0  0  0  0999 V2000
   43.6085   13.2271  -15.3930 C   0  0  0  0  0  0  0  0  0  0  0  0
   43.5082   12.5142  -16.5485 C   0  0  0  0  0  0  0  0  0  0  0  0
   44.6076   12.0570  -17.4442 C   0  0  0  0  0  0  0  0  0  0  0  0
   42.1977   12.2087  -16.8165 N   0  0  0  0  0  0  0  0  0  0  0  0
   41.4548   12.7110  -15.8540 C   0  0  0  0  0  0  0  0  0  0  0  0
   42.3030   13.3553  -14.9452 C   0  0  0  0  0  0  0  0  0  0  0  0
   41.8769   14.0631  -13.7110 C   0  0  0  0  0  0  0  0  0  0  0  0
   41.8926   11.6732  -17.6684 H   0  0  0  0  0  0  0  0  0  0  0  0
   40.0311   12.6528  -15.6536 C   0  0  0  0  0  0  0  0  0  0  0  0
   39.2228   11.9977  -16.4350 C   0  0  0  0  0  0  0  0  0  0  0  0
   39.5081   11.2102  -17.6148 C   0  0  0  0  0  0  0  0  0  0  0  0
   40.6369   10.9848  -18.1269 O   0  0  0  0  0  0  0  0  0  0  0  0
   38.2485   10.7236  -18.1005 N   0  0  0  0  0  0  0  0  0  0  0  0
   37.1998   11.1761  -17.2703 C   0  0  0  0  0  0  0  0  0  0  0  0
   35.8340   11.0046  -17.2801 C   0  0  0  0  0  0  0  0  0  0  0  0
   35.0106   11.5659  -16.3290 C   0  0  0  0  0  0  0  0  0  0  0  0
   35.5548   12.3363  -15.3146 C   0  0  0  0  0  0  0  0  0  0  0  0
   34.7871   12.9086  -14.3572 F   0  0  0  0  0  0  0  0  0  0  0  0
   36.9189   12.4993  -15.3164 C   0  0  0  0  0  0  0  0  0  0  0  0
   37.7528   11.9381  -16.2689 C   0  0  0  0  0  0  0  0  0  0  0  0
   38.1209   10.1252  -18.9380 H   0  0  0  0  0  0  0  0  0  0  0  0
   45.2800   15.0946  -14.9601 N   0  0  0  0  0  0  0  0  0  0  0  0
   44.7550   13.8193  -14.7117 C   0  0  0  0  0  0  0  0  0  0  0  0
   45.2834   13.0562  -13.8136 O   0  0  0  0  0  0  0  0  0  0  0  0
   44.7352   15.6694  -15.7192 H   0  0  0  0  0  0  0  0  0  0  0  0
   46.3625   15.8139  -14.4109 C   0  0  0  0  0  0  0  0  0  0  0  0
   46.4209   16.0541  -12.9445 C   0  0  0  0  0  0  0  0  0  0  0  0
   45.7551   17.1995  -12.4713 N   0  0  0  0  0  0  0  0  0  0  0  0
   44.9252   19.4208  -13.1667 C   0  0  0  0  0  0  0  0  0  0  0  0
   45.8769   18.2785  -13.4592 C   0  0  0  0  0  0  0  0  0  0  0  0
   44.3616   17.0292  -12.1957 C   0  0  0  0  0  0  0  0  0  0  0  0
   44.0452   15.8559  -11.3244 C   0  0  0  0  0  0  0  0  0  0  0  0
 29 30  1  0  0  0
 30 28  1  0  0  0
 28 31  1  0  0  0
 31 32  1  0  0  0
 28 27  1  0  0  0
 27 26  1  0  0  0
 26 22  1  0  0  0
 22 23  1  0  0  0
 23 24  2  0  0  0
 23  1  1  0  0  0
  1  2  2  0  0  0
  2  3  1  0  0  0
  2  4  1  0  0  0
  4  5  1  0  0  0
  5  9  1  0  0  0
  9 10  2  0  0  0
 10 11  1  0  0  0
 11 12  2  0  0  0
 11 13  1  0  0  0
 13 14  1  0  0  0
 14 15  2  0  0  0
 15 16  1  0  0  0
 16 17  2  0  0  0
 17 18  1  0  0  0
 17 19  1  0  0  0
 19 20  2  0  0  0
  5  6  2  0  0  0
  6  7  1  0  0  0
  6  1  1  0  0  0
 20 10  1  0  0  0
 20 14  1  0  0  0
 22 25  1  0  0  0
  4  8  1  0  0  0
 13 21  1  0  0  0
M  END
> <minimizedAffinity>
-8.60901

> <CNNscore>
0.8375625014

> <CNNaffinity>
7.0024199486

> <CNN_VS>
5.8649644852

> <CNNaffinity_variance>
0.1842891127

$$$$
[H]/C(=C1/C(=O)N([H])c2c([H])c([H])c(F)c([H])c21)c1c(C([H])([H])[H])c(C(=O)N([H])C([H])([H])C([H])([H])N(C([H])([H])C([H])([H])[H])C([H])([H])C([H])([H])[H])c(C([H])([H])[H])n1[H]


 32 34  0  0  0  0  0  0  0  0999 V2000
   43.4826   13.3407  -15.2838 C   0  0  0  0  0  0  0  0  0  0  0  0
   43.4222   12.5911  -16.4186 C   0  0  0  0  0  0  0  0  0  0  0  0
   44.5489   12.1426  -17.2843 C   0  0  0  0  0  0  0  0  0  0  0  0
   42.1262   12.2365  -16.6960 N   0  0  0  0  0  0  0  0  0  0  0  0
   41.3534   12.7433  -15.7598 C   0  0  0  0  0  0  0  0  0  0  0  0
   42.1671   13.4407  -14.8588 C   0  0  0  0  0  0  0  0  0  0  0  0
   41.7004   14.1710  -13.6526 C   0  0  0  0  0  0  0  0  0  0  0  0
   41.8509   11.6665  -17.5357 H   0  0  0  0  0  0  0  0  0  0  0  0
   39.9293   12.6459  -15.5781 C   0  0  0  0  0  0  0  0  0  0  0  0
   39.1456   11.9950  -16.3876 C   0  0  0  0  0  0  0  0  0  0  0  0
   39.4628   11.2490  -17.5861 C   0  0  0  0  0  0  0  0  0  0  0  0
   40.6022   11.0650  -18.0910 O   0  0  0  0  0  0  0  0  0  0  0  0
   38.2205   10.7473  -18.1005 N   0  0  0  0  0  0  0  0  0  0  0  0
   37.1522   11.1509  -17.2702 C   0  0  0  0  0  0  0  0  0  0  0  0
   35.7910   10.9478  -17.3011 C   0  0  0  0  0  0  0  0  0  0  0  0
   34.9439   11.4619  -16.3441 C   0  0  0  0  0  0  0  0  0  0  0  0
   35.4583   12.2151  -15.3016 C   0  0  0  0  0  0  0  0  0  0  0  0
   34.6665   12.7413  -14.3374 F   0  0  0  0  0  0  0  0  0  0  0  0
   36.8181   12.4099  -15.2826 C   0  0  0  0  0  0  0  0  0  0  0  0
   37.6757   11.8963  -16.2407 C   0  0  0  0  0  0  0  0  0  0  0  0
   38.1167   10.1707  -18.9563 H   0  0  0  0  0  0  0  0  0  0  0  0
   45.3374   13.4410  -13.5463 N   0  0  0  0  0  0  0  0  0  0  0  0
   44.5995   13.9889  -14.6043 C   0  0  0  0  0  0  0  0  0  0  0  0
   44.8851   15.1612  -15.0648 O   0  0  0  0  0  0  0  0  0  0  0  0
   45.0312   12.4283  -13.2564 H   0  0  0  0  0  0  0  0  0  0  0  0
   46.4247   13.9166  -12.7830 C   0  0  0  0  0  0  0  0  0  0  0  0
   47.8073   13.8061  -13.3193 C   0  0  0  0  0  0  0  0  0  0  0  0
   48.0346   14.3767  -14.5850 N   0  0  0  0  0  0  0  0  0  0  0  0
   48.0531   16.8325  -14.8591 C   0  0  0  0  0  0  0  0  0  0  0  0
   48.8284   15.6022  -14.4329 C   0  0  0  0  0  0  0  0  0  0  0  0
   48.7188   13.5392  -15.5216 C   0  0  0  0  0  0  0  0  0  0  0  0
   49.3675   12.3371  -14.9133 C   0  0  0  0  0  0  0  0  0  0  0  0
 29 30  1  0  0  0
 30 28  1  0  0  0
 28 31  1  0  0  0
 31 32  1  0  0  0
 28 27  1  0  0  0
 27 26  1  0  0  0
 26 22  1  0  0  0
 22 23  1  0  0  0
 23 24  2  0  0  0
 23  1  1  0  0  0
  1  2  2  0  0  0
  2  3  1  0  0  0
  2  4  1  0  0  0
  4  5  1  0  0  0
  5  9  1  0  0  0
  9 10  2  0  0  0
 10 11  1  0  0  0
 11 12  2  0  0  0
 11 13  1  0  0  0
 13 14  1  0  0  0
 14 15  2  0  0  0
 15 16  1  0  0  0
 16 17  2  0  0  0
 17 18  1  0  0  0
 17 19  1  0  0  0
 19 20  2  0  0  0
  5  6  2  0  0  0
  6  7  1  0  0  0
  6  1  1  0  0  0
 20 10  1  0  0  0
 20 14  1  0  0  0
 22 25  1  0  0  0
  4  8  1  0  0  0
 13 21  1  0  0  0
M  END
> <minimizedAffinity>
-8.03462

> <CNNscore>
0.7983686328

> <CNNaffinity>
6.9526929855

> <CNN_VS>
5.5508117676

> <CNNaffinity_variance>
0.1540211886

$$$$
[H]/C(=C1/C(=O)N([H])c2c([H])c([H])c(F)c([H])c21)c1c(C([H])([H])[H])c(C(=O)N([H])C([H])([H])C([H])([H])N(C([H])([H])C([H])([H])[H])C([H])([H])C([H])([H])[H])c(C([H])([H])[H])n1[H]


 32 34  0  0  0  0  0  0  0  0999 V2000
   43.5305   13.2697  -15.3134 C   0  0  0  0  0  0  0  0  0  0  0  0
   43.4512   12.5423  -16.4615 C   0  0  0  0  0  0  0  0  0  0  0  0
   44.5652   12.0914  -17.3422 C   0  0  0  0  0  0  0  0  0  0  0  0
   42.1478   12.2144  -16.7375 N   0  0  0  0  0  0  0  0  0  0  0  0
   41.3890   12.7165  -15.7875 C   0  0  0  0  0  0  0  0  0  0  0  0
   42.2194   13.3836  -14.8787 C   0  0  0  0  0  0  0  0  0  0  0  0
   41.7718   14.0990  -13.6565 C   0  0  0  0  0  0  0  0  0  0  0  0
   41.8583   11.6647  -17.5859 H   0  0  0  0  0  0  0  0  0  0  0  0
   39.9645   12.6393  -15.5990 C   0  0  0  0  0  0  0  0  0  0  0  0
   39.1686   11.9941  -16.4010 C   0  0  0  0  0  0  0  0  0  0  0  0
   39.4704   11.2367  -17.5963 C   0  0  0  0  0  0  0  0  0  0  0  0
   40.6051   11.0344  -18.1050 O   0  0  0  0  0  0  0  0  0  0  0  0
   38.2193   10.7486  -18.1023 N   0  0  0  0  0  0  0  0  0  0  0  0
   37.1602   11.1715  -17.2697 C   0  0  0  0  0  0  0  0  0  0  0  0
   35.7963   10.9865  -17.2936 C   0  0  0  0  0  0  0  0  0  0  0  0
   34.9604   11.5176  -16.3360 C   0  0  0  0  0  0  0  0  0  0  0  0
   35.4894   12.2702  -15.3004 C   0  0  0  0  0  0  0  0  0  0  0  0
   34.7091   12.8127  -14.3359 F   0  0  0  0  0  0  0  0  0  0  0  0
   36.8518   12.4468  -15.2884 C   0  0  0  0  0  0  0  0  0  0  0  0
   37.6982   11.9160  -16.2472 C   0  0  0  0  0  0  0  0  0  0  0  0
   38.1039   10.1682  -18.9541 H   0  0  0  0  0  0  0  0  0  0  0  0
   45.3721   13.3237  -13.5599 N   0  0  0  0  0  0  0  0  0  0  0  0
   44.6620   13.8866  -14.6289 C   0  0  0  0  0  0  0  0  0  0  0  0
   44.9899   15.0451  -15.0961 O   0  0  0  0  0  0  0  0  0  0  0  0
   45.0303   12.3240  -13.2647 H   0  0  0  0  0  0  0  0  0  0  0  0
   46.4675   13.7698  -12.7904 C   0  0  0  0  0  0  0  0  0  0  0  0
   46.8946   12.9944  -11.5956 C   0  0  0  0  0  0  0  0  0  0  0  0
   45.9429   12.1151  -11.0476 N   0  0  0  0  0  0  0  0  0  0  0  0
   46.6513    9.8247  -11.6465 C   0  0  0  0  0  0  0  0  0  0  0  0
   46.6159   10.8980  -10.5774 C   0  0  0  0  0  0  0  0  0  0  0  0
   45.1872   12.6354   -9.9499 C   0  0  0  0  0  0  0  0  0  0  0  0
   43.8057   13.0805  -10.3096 C   0  0  0  0  0  0  0  0  0  0  0  0
 29 30  1  0  0  0
 30 28  1  0  0  0
 28 31  1  0  0  0
 31 32  1  0  0  0
 28 27  1  0  0  0
 27 26  1  0  0  0
 26 22  1  0  0  0
 22 23  1  0  0  0
 23 24  2  0  0  0
 23  1  1  0  0  0
  1  2  2  0  0  0
  2  3  1  0  0  0
  2  4  1  0  0  0
  4  5  1  0  0  0
  5  9  1  0  0  0
  9 10  2  0  0  0
 10 11  1  0  0  0
 11 12  2  0  0  0
 11 13  1  0  0  0
 13 14  1  0  0  0
 14 15  2  0  0  0
 15 16  1  0  0  0
 16 17  2  0  0  0
 17 18  1  0  0  0
 17 19  1  0  0  0
 19 20  2  0  0  0
  5  6  2  0  0  0
  6  7  1  0  0  0
  6  1  1  0  0  0
 20 10  1  0  0  0
 20 14  1  0  0  0
 22 25  1  0  0  0
  4  8  1  0  0  0
 13 21  1  0  0  0
M  END
> <minimizedAffinity>
-8.28646

> <CNNscore>
0.7880958319

> <CNNaffinity>
7.0605912209

> <CNN_VS>
5.5644226074

> <CNNaffinity_variance>
0.1882542223

$$$$
[H]/C(=C1/C(=O)N([H])c2c([H])c([H])c(F)c([H])c21)c1c(C([H])([H])[H])c(C(=O)N([H])C([H])([H])C([H])([H])N(C([H])([H])C([H])([H])[H])C([H])([H])C([H])([H])[H])c(C([H])([H])[H])n1[H]


 32 34  0  0  0  0  0  0  0  0999 V2000
   36.8718   14.6255  -11.1731 C   0  0  0  0  0  0  0  0  0  0  0  0
   38.1041   15.1821  -11.3321 C   0  0  0  0  0  0  0  0  0  0  0  0
   38.8085   16.1291  -10.4229 C   0  0  0  0  0  0  0  0  0  0  0  0
   38.6935   14.7311  -12.4861 N   0  0  0  0  0  0  0  0  0  0  0  0
   37.8634   13.8944  -13.0703 C   0  0  0  0  0  0  0  0  0  0  0  0
   36.7129   13.8033  -12.2776 C   0  0  0  0  0  0  0  0  0  0  0  0
   35.5188   12.9705  -12.5720 C   0  0  0  0  0  0  0  0  0  0  0  0
   39.6440   15.0442  -12.8090 H   0  0  0  0  0  0  0  0  0  0  0  0
   38.0104   13.1372  -14.2851 C   0  0  0  0  0  0  0  0  0  0  0  0
   39.1146   13.0895  -14.9716 C   0  0  0  0  0  0  0  0  0  0  0  0
   40.3905   13.7245  -14.7218 C   0  0  0  0  0  0  0  0  0  0  0  0
   40.6976   14.4627  -13.7482 O   0  0  0  0  0  0  0  0  0  0  0  0
   41.2563   13.3502  -15.8033 N   0  0  0  0  0  0  0  0  0  0  0  0
   40.5694   12.5114  -16.7079 C   0  0  0  0  0  0  0  0  0  0  0  0
   40.9211   11.8835  -17.8813 C   0  0  0  0  0  0  0  0  0  0  0  0
   40.0420   11.0961  -18.5918 C   0  0  0  0  0  0  0  0  0  0  0  0
   38.7496   10.9147  -18.1277 C   0  0  0  0  0  0  0  0  0  0  0  0
   37.8496   10.1504  -18.7904 F   0  0  0  0  0  0  0  0  0  0  0  0
   38.4118   11.5467  -16.9556 C   0  0  0  0  0  0  0  0  0  0  0  0
   39.2899   12.3394  -16.2359 C   0  0  0  0  0  0  0  0  0  0  0  0
   42.2440   13.6484  -15.9097 H   0  0  0  0  0  0  0  0  0  0  0  0
   34.6517   15.5279  -10.3211 N   0  0  0  0  0  0  0  0  0  0  0  0
   35.8445   14.8116  -10.1536 C   0  0  0  0  0  0  0  0  0  0  0  0
   36.1142   14.2415   -9.0266 O   0  0  0  0  0  0  0  0  0  0  0  0
   34.5093   15.9430  -11.3264 H   0  0  0  0  0  0  0  0  0  0  0  0
   33.5681   15.8080   -9.4618 C   0  0  0  0  0  0  0  0  0  0  0  0
   32.1840   15.8372  -10.0048 C   0  0  0  0  0  0  0  0  0  0  0  0
   31.1529   15.5054   -9.1071 N   0  0  0  0  0  0  0  0  0  0  0  0
   30.2752   14.6849  -11.2665 C   0  0  0  0  0  0  0  0  0  0  0  0
   30.2207   14.5753   -9.7561 C   0  0  0  0  0  0  0  0  0  0  0  0
   31.5768   14.8990   -7.8827 C   0  0  0  0  0  0  0  0  0  0  0  0
   30.9840   13.5503   -7.6261 C   0  0  0  0  0  0  0  0  0  0  0  0
 29 30  1  0  0  0
 30 28  1  0  0  0
 28 31  1  0  0  0
 31 32  1  0  0  0
 28 27  1  0  0  0
 27 26  1  0  0  0
 26 22  1  0  0  0
 22 23  1  0  0  0
 23 24  2  0  0  0
 23  1  1  0  0  0
  1  2  2  0  0  0
  2  3  1  0  0  0
  2  4  1  0  0  0
  4  5  1  0  0  0
  5  9  1  0  0  0
  9 10  2  0  0  0
 10 11  1  0  0  0
 11 12  2  0  0  0
 11 13  1  0  0  0
 13 14  1  0  0  0
 14 15  2  0  0  0
 15 16  1  0  0  0
 16 17  2  0  0  0
 17 18  1  0  0  0
 17 19  1  0  0  0
 19 20  2  0  0  0
  5  6  2  0  0  0
  6  7  1  0  0  0
  6  1  1  0  0  0
 20 10  1  0  0  0
 20 14  1  0  0  0
 22 25  1  0  0  0
  4  8  1  0  0  0
 13 21  1  0  0  0
M  END
> <minimizedAffinity>
-8.86583

> <CNNscore>
0.6201490760

> <CNNaffinity>
6.5897111893

> <CNN_VS>
4.0866031647

> <CNNaffinity_variance>
0.2164140046

$$$$
[H]/C(=C1/C(=O)N([H])c2c([H])c([H])c(F)c([H])c21)c1c(C([H])([H])[H])c(C(=O)N([H])C([H])([H])C([H])([H])N(C([H])([H])C([H])([H])[H])C([H])([H])C([H])([H])[H])c(C([H])([H])[H])n1[H]


 32 34  0  0  0  0  0  0  0  0999 V2000
   37.3210   14.9135  -10.9738 C   0  0  0  0  0  0  0  0  0  0  0  0
   38.5278   15.4762  -11.2579 C   0  0  0  0  0  0  0  0  0  0  0  0
   39.2971   16.4595  -10.4447 C   0  0  0  0  0  0  0  0  0  0  0  0
   39.0199   14.9930  -12.4440 N   0  0  0  0  0  0  0  0  0  0  0  0
   38.1524   14.1295  -12.9260 C   0  0  0  0  0  0  0  0  0  0  0  0
   37.0766   14.0537  -12.0331 C   0  0  0  0  0  0  0  0  0  0  0  0
   35.8718   13.2003  -12.1949 C   0  0  0  0  0  0  0  0  0  0  0  0
   39.9346   15.3042  -12.8588 H   0  0  0  0  0  0  0  0  0  0  0  0
   38.2022   13.3339  -14.1240 C   0  0  0  0  0  0  0  0  0  0  0  0
   39.2674   13.2136  -14.8616 C   0  0  0  0  0  0  0  0  0  0  0  0
   40.5831   13.7913  -14.6923 C   0  0  0  0  0  0  0  0  0  0  0  0
   40.9732   14.5392  -13.7566 O   0  0  0  0  0  0  0  0  0  0  0  0
   41.3750   13.3462  -15.8033 N   0  0  0  0  0  0  0  0  0  0  0  0
   40.6045   12.5185  -16.6488 C   0  0  0  0  0  0  0  0  0  0  0  0
   40.8668   11.8430  -17.8192 C   0  0  0  0  0  0  0  0  0  0  0  0
   39.9167   11.0813  -18.4632 C   0  0  0  0  0  0  0  0  0  0  0  0
   38.6418   10.9763  -17.9319 C   0  0  0  0  0  0  0  0  0  0  0  0
   37.6743   10.2399  -18.5278 F   0  0  0  0  0  0  0  0  0  0  0  0
   38.3934   11.6551  -16.7636 C   0  0  0  0  0  0  0  0  0  0  0  0
   39.3433   12.4224  -16.1106 C   0  0  0  0  0  0  0  0  0  0  0  0
   42.3693   13.5924  -15.9660 H   0  0  0  0  0  0  0  0  0  0  0  0
   35.4649   16.1766   -9.7787 N   0  0  0  0  0  0  0  0  0  0  0  0
   36.3843   15.1234   -9.8748 C   0  0  0  0  0  0  0  0  0  0  0  0
   36.4553   14.2283   -8.9465 O   0  0  0  0  0  0  0  0  0  0  0  0
   35.4671   16.8603  -10.6366 H   0  0  0  0  0  0  0  0  0  0  0  0
   34.5049   16.5311   -8.8072 C   0  0  0  0  0  0  0  0  0  0  0  0
   33.1620   15.8928   -8.8294 C   0  0  0  0  0  0  0  0  0  0  0  0
   32.4970   15.7918   -7.5938 N   0  0  0  0  0  0  0  0  0  0  0  0
   32.2140   14.0268   -5.8876 C   0  0  0  0  0  0  0  0  0  0  0  0
   33.1856   14.8097   -6.7473 C   0  0  0  0  0  0  0  0  0  0  0  0
   32.4035   17.0078   -6.8461 C   0  0  0  0  0  0  0  0  0  0  0  0
   31.1307   17.7639   -7.0569 C   0  0  0  0  0  0  0  0  0  0  0  0
 29 30  1  0  0  0
 30 28  1  0  0  0
 28 31  1  0  0  0
 31 32  1  0  0  0
 28 27  1  0  0  0
 27 26  1  0  0  0
 26 22  1  0  0  0
 22 23  1  0  0  0
 23 24  2  0  0  0
 23  1  1  0  0  0
  1  2  2  0  0  0
  2  3  1  0  0  0
  2  4  1  0  0  0
  4  5  1  0  0  0
  5  9  1  0  0  0
  9 10  2  0  0  0
 10 11  1  0  0  0
 11 12  2  0  0  0
 11 13  1  0  0  0
 13 14  1  0  0  0
 14 15  2  0  0  0
 15 16  1  0  0  0
 16 17  2  0  0  0
 17 18  1  0  0  0
 17 19  1  0  0  0
 19 20  2  0  0  0
  5  6  2  0  0  0
  6  7  1  0  0  0
  6  1  1  0  0  0
 20 10  1  0  0  0
 20 14  1  0  0  0
 22 25  1  0  0  0
  4  8  1  0  0  0
 13 21  1  0  0  0
M  END
> <minimizedAffinity>
-8.31571

> <CNNscore>
0.4416553378

> <CNNaffinity>
6.2420368195

> <CNN_VS>
2.7568287849

> <CNNaffinity_variance>
0.2116632164

$$$$
[H]/C(=C1/C(=O)N([H])c2c([H])c([H])c(F)c([H])c21)c1c(C([H])([H])[H])c(C(=O)N([H])C([H])([H])C([H])([H])N(C([H])([H])C([H])([H])[H])C([H])([H])C([H])([H])[H])c(C([H])([H])[H])n1[H]


 32 34  0  0  0  0  0  0  0  0999 V2000
   42.6060   14.9446  -13.1757 C   0  0  0  0  0  0  0  0  0  0  0  0
   43.2172   14.0320  -13.9801 C   0  0  0  0  0  0  0  0  0  0  0  0
   44.6778   13.8013  -14.1635 C   0  0  0  0  0  0  0  0  0  0  0  0
   42.2874   13.2659  -14.6366 N   0  0  0  0  0  0  0  0  0  0  0  0
   41.0906   13.6687  -14.2678 C   0  0  0  0  0  0  0  0  0  0  0  0
   41.2504   14.7177  -13.3543 C   0  0  0  0  0  0  0  0  0  0  0  0
   40.1527   15.4669  -12.6911 C   0  0  0  0  0  0  0  0  0  0  0  0
   42.5424   12.5076  -15.3189 H   0  0  0  0  0  0  0  0  0  0  0  0
   39.7900   13.1831  -14.6464 C   0  0  0  0  0  0  0  0  0  0  0  0
   39.5628   12.5207  -15.7430 C   0  0  0  0  0  0  0  0  0  0  0  0
   40.4766   12.1188  -16.7904 C   0  0  0  0  0  0  0  0  0  0  0  0
   41.7181   12.3266  -16.8407 O   0  0  0  0  0  0  0  0  0  0  0  0
   39.6959   11.4266  -17.7757 N   0  0  0  0  0  0  0  0  0  0  0  0
   38.3412   11.3838  -17.3801 C   0  0  0  0  0  0  0  0  0  0  0  0
   37.2006   10.8539  -17.9399 C   0  0  0  0  0  0  0  0  0  0  0  0
   35.9667   10.9477  -17.3347 C   0  0  0  0  0  0  0  0  0  0  0  0
   35.8441   11.5954  -16.1164 C   0  0  0  0  0  0  0  0  0  0  0  0
   34.6534   11.7133  -15.4827 F   0  0  0  0  0  0  0  0  0  0  0  0
   36.9900   12.1194  -15.5689 C   0  0  0  0  0  0  0  0  0  0  0  0
   38.2336   12.0289  -16.1711 C   0  0  0  0  0  0  0  0  0  0  0  0
   40.0675   11.0147  -18.6521 H   0  0  0  0  0  0  0  0  0  0  0  0
   43.4260   15.8757  -10.9555 N   0  0  0  0  0  0  0  0  0  0  0  0
   43.1398   16.0005  -12.3216 C   0  0  0  0  0  0  0  0  0  0  0  0
   43.3475   17.1175  -12.9357 O   0  0  0  0  0  0  0  0  0  0  0  0
   43.2428   14.8759  -10.5431 H   0  0  0  0  0  0  0  0  0  0  0  0
   43.9329   16.7735   -9.9920 C   0  0  0  0  0  0  0  0  0  0  0  0
   45.1964   16.4523   -9.2766 C   0  0  0  0  0  0  0  0  0  0  0  0
   45.1012   16.2870   -7.8827 N   0  0  0  0  0  0  0  0  0  0  0  0
   45.3064   17.9248   -6.0438 C   0  0  0  0  0  0  0  0  0  0  0  0
   44.5426   17.5052   -7.2834 C   0  0  0  0  0  0  0  0  0  0  0  0
   44.2930   15.1892   -7.4488 C   0  0  0  0  0  0  0  0  0  0  0  0
   45.0367   14.1423   -6.6826 C   0  0  0  0  0  0  0  0  0  0  0  0
 29 30  1  0  0  0
 30 28  1  0  0  0
 28 31  1  0  0  0
 31 32  1  0  0  0
 28 27  1  0  0  0
 27 26  1  0  0  0
 26 22  1  0  0  0
 22 23  1  0  0  0
 23 24  2  0  0  0
 23  1  1  0  0  0
  1  2  2  0  0  0
  2  3  1  0  0  0
  2  4  1  0  0  0
  4  5  1  0  0  0
  5  9  1  0  0  0
  9 10  2  0  0  0
 10 11  1  0  0  0
 11 12  2  0  0  0
 11 13  1  0  0  0
 13 14  1  0  0  0
 14 15  2  0  0  0
 15 16  1  0  0  0
 16 17  2  0  0  0
 17 18  1  0  0  0
 17 19  1  0  0  0
 19 20  2  0  0  0
  5  6  2  0  0  0
  6  7  1  0  0  0
  6  1  1  0  0  0
 20 10  1  0  0  0
 20 14  1  0  0  0
 22 25  1  0  0  0
  4  8  1  0  0  0
 13 21  1  0  0  0
M  END
> <minimizedAffinity>
-6.83937

> <CNNscore>
0.4380732775

> <CNNaffinity>
6.1626348495

> <CNN_VS>
2.6996855736

> <CNNaffinity_variance>
0.6069508791

$$$$
[H]/C(=C1/C(=O)N([H])c2c([H])c([H])c(F)c([H])c21)c1c(C([H])([H])[H])c(C(=O)N([H])C([H])([H])C([H])([H])N(C([H])([H])C([H])([H])[H])C([H])([H])C([H])([H])[H])c(C([H])([H])[H])n1[H]


 32 34  0  0  0  0  0  0  0  0999 V2000
   41.8053   14.8320  -13.3587 C   0  0  0  0  0  0  0  0  0  0  0  0
   42.2682   13.8879  -14.2236 C   0  0  0  0  0  0  0  0  0  0  0  0
   43.6827   13.5795  -14.5759 C   0  0  0  0  0  0  0  0  0  0  0  0
   41.2281   13.1726  -14.7612 N   0  0  0  0  0  0  0  0  0  0  0  0
   40.1062   13.6388  -14.2567 C   0  0  0  0  0  0  0  0  0  0  0  0
   40.4280   14.6778  -13.3750 C   0  0  0  0  0  0  0  0  0  0  0  0
   39.4574   15.4847  -12.5922 C   0  0  0  0  0  0  0  0  0  0  0  0
   41.3604   12.4016  -15.4639 H   0  0  0  0  0  0  0  0  0  0  0  0
   38.7462   13.2234  -14.4766 C   0  0  0  0  0  0  0  0  0  0  0  0
   38.3711   12.5052  -15.4947 C   0  0  0  0  0  0  0  0  0  0  0  0
   39.1509   11.9674  -16.5883 C   0  0  0  0  0  0  0  0  0  0  0  0
   40.3927   12.0811  -16.7680 O   0  0  0  0  0  0  0  0  0  0  0  0
   38.2350   11.2672  -17.4429 N   0  0  0  0  0  0  0  0  0  0  0  0
   36.9250   11.3494  -16.9223 C   0  0  0  0  0  0  0  0  0  0  0  0
   35.7035   10.8659  -17.3334 C   0  0  0  0  0  0  0  0  0  0  0  0
   34.5427   11.0898  -16.6262 C   0  0  0  0  0  0  0  0  0  0  0  0
   34.5813   11.8270  -15.4541 C   0  0  0  0  0  0  0  0  0  0  0  0
   33.4678   12.0737  -14.7243 F   0  0  0  0  0  0  0  0  0  0  0  0
   35.8066   12.3034  -15.0551 C   0  0  0  0  0  0  0  0  0  0  0  0
   36.9774   12.0822  -15.7606 C   0  0  0  0  0  0  0  0  0  0  0  0
   38.4922   10.7702  -18.3161 H   0  0  0  0  0  0  0  0  0  0  0  0
   43.4572   15.6208  -11.5929 N   0  0  0  0  0  0  0  0  0  0  0  0
   42.4913   15.8579  -12.5801 C   0  0  0  0  0  0  0  0  0  0  0  0
   42.1375   17.0646  -12.8747 O   0  0  0  0  0  0  0  0  0  0  0  0
   43.7055   14.5624  -11.4462 H   0  0  0  0  0  0  0  0  0  0  0  0
   44.2068   16.4732  -10.7548 C   0  0  0  0  0  0  0  0  0  0  0  0
   45.1252   17.4772  -11.3548 C   0  0  0  0  0  0  0  0  0  0  0  0
   45.8144   17.0797  -12.5151 N   0  0  0  0  0  0  0  0  0  0  0  0
   47.6326   18.3502  -13.6043 C   0  0  0  0  0  0  0  0  0  0  0  0
   46.1475   18.2645  -13.3154 C   0  0  0  0  0  0  0  0  0  0  0  0
   47.0309   16.3612  -12.2904 C   0  0  0  0  0  0  0  0  0  0  0  0
   46.9681   14.9136  -12.6600 C   0  0  0  0  0  0  0  0  0  0  0  0
 29 30  1  0  0  0
 30 28  1  0  0  0
 28 31  1  0  0  0
 31 32  1  0  0  0
 28 27  1  0  0  0
 27 26  1  0  0  0
 26 22  1  0  0  0
 22 23  1  0  0  0
 23 24  2  0  0  0
 23  1  1  0  0  0
  1  2  2  0  0  0
  2  3  1  0  0  0
  2  4  1  0  0  0
  4  5  1  0  0  0
  5  9  1  0  0  0
  9 10  2  0  0  0
 10 11  1  0  0  0
 11 12  2  0  0  0
 11 13  1  0  0  0
 13 14  1  0  0  0
 14 15  2  0  0  0
 15 16  1  0  0  0
 16 17  2  0  0  0
 17 18  1  0  0  0
 17 19  1  0  0  0
 19 20  2  0  0  0
  5  6  2  0  0  0
  6  7  1  0  0  0
  6  1  1  0  0  0
 20 10  1  0  0  0
 20 14  1  0  0  0
 22 25  1  0  0  0
  4  8  1  0  0  0
 13 21  1  0  0  0
M  END
> <minimizedAffinity>
-7.34724

> <CNNscore>
0.3885134757

> <CNNaffinity>
6.2725133896

> <CNN_VS>
2.4369559288

> <CNNaffinity_variance>
0.3550067544

$$$$
[H]/C(=C1/C(=O)N([H])c2c([H])c([H])c(F)c([H])c21)c1c(C([H])([H])[H])c(C(=O)N([H])C([H])([H])C([H])([H])N(C([H])([H])C([H])([H])[H])C([H])([H])C([H])([H])[H])c(C([H])([H])[H])n1[H]


 32 34  0  0  0  0  0  0  0  0999 V2000
   43.0490   15.1709  -13.0524 C   0  0  0  0  0  0  0  0  0  0  0  0
   43.5647   14.1504  -13.7914 C   0  0  0  0  0  0  0  0  0  0  0  0
   44.9982   13.8131  -14.0175 C   0  0  0  0  0  0  0  0  0  0  0  0
   42.5599   13.3854  -14.3276 N   0  0  0  0  0  0  0  0  0  0  0  0
   41.4088   13.8948  -13.9457 C   0  0  0  0  0  0  0  0  0  0  0  0
   41.6753   15.0131  -13.1464 C   0  0  0  0  0  0  0  0  0  0  0  0
   40.6579   15.8882  -12.5099 C   0  0  0  0  0  0  0  0  0  0  0  0
   42.7356   12.5518  -14.9440 H   0  0  0  0  0  0  0  0  0  0  0  0
   40.0647   13.4577  -14.2161 C   0  0  0  0  0  0  0  0  0  0  0  0
   39.7228   12.8140  -15.2939 C   0  0  0  0  0  0  0  0  0  0  0  0
   40.5303   12.3912  -16.4176 C   0  0  0  0  0  0  0  0  0  0  0  0
   41.7697   12.5569  -16.5715 O   0  0  0  0  0  0  0  0  0  0  0  0
   39.6456   11.7357  -17.3379 N   0  0  0  0  0  0  0  0  0  0  0  0
   38.3284   11.7354  -16.8293 C   0  0  0  0  0  0  0  0  0  0  0  0
   37.1269   11.2503  -17.2940 C   0  0  0  0  0  0  0  0  0  0  0  0
   35.9524   11.3804  -16.5859 C   0  0  0  0  0  0  0  0  0  0  0  0
   35.9558   12.0201  -15.3573 C   0  0  0  0  0  0  0  0  0  0  0  0
   34.8277   12.1726  -14.6242 F   0  0  0  0  0  0  0  0  0  0  0  0
   37.1614   12.4993  -14.9052 C   0  0  0  0  0  0  0  0  0  0  0  0
   38.3459   12.3721  -15.6112 C   0  0  0  0  0  0  0  0  0  0  0  0
   39.9272   11.3198  -18.2453 H   0  0  0  0  0  0  0  0  0  0  0  0
   44.2044   16.1929  -11.0300 N   0  0  0  0  0  0  0  0  0  0  0  0
   43.6857   16.2672  -12.3298 C   0  0  0  0  0  0  0  0  0  0  0  0
   43.7493   17.3700  -12.9990 O   0  0  0  0  0  0  0  0  0  0  0  0
   44.1268   15.2016  -10.5667 H   0  0  0  0  0  0  0  0  0  0  0  0
   44.8383   17.1338  -10.1911 C   0  0  0  0  0  0  0  0  0  0  0  0
   46.2050   17.6163  -10.5237 C   0  0  0  0  0  0  0  0  0  0  0  0
   47.2763   16.8490  -10.0309 N   0  0  0  0  0  0  0  0  0  0  0  0
   47.1716   14.7842   -8.6774 C   0  0  0  0  0  0  0  0  0  0  0  0
   46.9090   16.2756   -8.7304 C   0  0  0  0  0  0  0  0  0  0  0  0
   47.6944   15.7686  -10.8703 C   0  0  0  0  0  0  0  0  0  0  0  0
   48.9243   16.0522  -11.6721 C   0  0  0  0  0  0  0  0  0  0  0  0
 29 30  1  0  0  0
 30 28  1  0  0  0
 28 31  1  0  0  0
 31 32  1  0  0  0
 28 27  1  0  0  0
 27 26  1  0  0  0
 26 22  1  0  0  0
 22 23  1  0  0  0
 23 24  2  0  0  0
 23  1  1  0  0  0
  1  2  2  0  0  0
  2  3  1  0  0  0
  2  4  1  0  0  0
  4  5  1  0  0  0
  5  9  1  0  0  0
  9 10  2  0  0  0
 10 11  1  0  0  0
 11 12  2  0  0  0
 11 13  1  0  0  0
 13 14  1  0  0  0
 14 15  2  0  0  0
 15 16  1  0  0  0
 16 17  2  0  0  0
 17 18  1  0  0  0
 17 19  1  0  0  0
 19 20  2  0  0  0
  5  6  2  0  0  0
  6  7  1  0  0  0
  6  1  1  0  0  0
 20 10  1  0  0  0
 20 14  1  0  0  0
 22 25  1  0  0  0
  4  8  1  0  0  0
 13 21  1  0  0  0
M  END
> <minimizedAffinity>
-6.55971

> <CNNscore>
0.2801114023

> <CNNaffinity>
5.9577536583

> <CNN_VS>
1.6688346863

> <CNNaffinity_variance>
0.5271056294

$$$$
[H]/C(=C1/C(=O)N([H])c2c([H])c([H])c(F)c([H])c21)c1c(C([H])([H])[H])c(C(=O)N([H])C([H])([H])C([H])([H])N(C([H])([H])C([H])([H])[H])C([H])([H])C([H])([H])[H])c(C([H])([H])[H])n1[H]


 32 34  0  0  0  0  0  0  0  0999 V2000
   35.2512   15.1739  -11.0039 C   0  0  0  0  0  0  0  0  0  0  0  0
   34.3195   15.1066  -11.9944 C   0  0  0  0  0  0  0  0  0  0  0  0
   32.8722   15.4522  -11.9191 C   0  0  0  0  0  0  0  0  0  0  0  0
   34.8906   14.6835  -13.1680 N   0  0  0  0  0  0  0  0  0  0  0  0
   36.1717   14.4792  -12.9499 C   0  0  0  0  0  0  0  0  0  0  0  0
   36.4339   14.7758  -11.6069 C   0  0  0  0  0  0  0  0  0  0  0  0
   37.7559   14.6755  -10.9373 C   0  0  0  0  0  0  0  0  0  0  0  0
   34.3476   14.5491  -14.0583 H   0  0  0  0  0  0  0  0  0  0  0  0
   37.2104   14.0539  -13.8504 C   0  0  0  0  0  0  0  0  0  0  0  0
   37.0582   13.0997  -14.7218 C   0  0  0  0  0  0  0  0  0  0  0  0
   35.9013   12.2784  -15.0057 C   0  0  0  0  0  0  0  0  0  0  0  0
   34.7699   12.3379  -14.4549 O   0  0  0  0  0  0  0  0  0  0  0  0
   36.2857   11.3707  -16.0486 N   0  0  0  0  0  0  0  0  0  0  0  0
   37.6288   11.5981  -16.4202 C   0  0  0  0  0  0  0  0  0  0  0  0
   38.4722   11.0258  -17.3455 C   0  0  0  0  0  0  0  0  0  0  0  0
   39.7737   11.4430  -17.5185 C   0  0  0  0  0  0  0  0  0  0  0  0
   40.2751   12.4756  -16.7433 C   0  0  0  0  0  0  0  0  0  0  0  0
   41.5469   12.9208  -16.8762 F   0  0  0  0  0  0  0  0  0  0  0  0
   39.4229   13.0380  -15.8240 C   0  0  0  0  0  0  0  0  0  0  0  0
   38.1137   12.6242  -15.6447 C   0  0  0  0  0  0  0  0  0  0  0  0
   35.6705   10.6513  -16.4725 H   0  0  0  0  0  0  0  0  0  0  0  0
   34.7310   16.7553   -9.0810 N   0  0  0  0  0  0  0  0  0  0  0  0
   35.1444   15.5166   -9.5895 C   0  0  0  0  0  0  0  0  0  0  0  0
   35.4681   14.5549   -8.7906 O   0  0  0  0  0  0  0  0  0  0  0  0
   34.4490   17.4886   -9.8466 H   0  0  0  0  0  0  0  0  0  0  0  0
   34.5744   17.2543   -7.7705 C   0  0  0  0  0  0  0  0  0  0  0  0
   35.7189   17.9186   -7.0921 C   0  0  0  0  0  0  0  0  0  0  0  0
   36.6305   18.5961   -7.9223 N   0  0  0  0  0  0  0  0  0  0  0  0
   37.9360   20.6797   -8.1683 C   0  0  0  0  0  0  0  0  0  0  0  0
   36.8474   19.9527   -7.4049 C   0  0  0  0  0  0  0  0  0  0  0  0
   37.9148   17.9799   -8.0547 C   0  0  0  0  0  0  0  0  0  0  0  0
   38.0859   16.7336   -7.2464 C   0  0  0  0  0  0  0  0  0  0  0  0
 29 30  1  0  0  0
 30 28  1  0  0  0
 28 31  1  0  0  0
 31 32  1  0  0  0
 28 27  1  0  0  0
 27 26  1  0  0  0
 26 22  1  0  0  0
 22 23  1  0  0  0
 23 24  2  0  0  0
 23  1  1  0  0  0
  1  2  2  0  0  0
  2  3  1  0  0  0
  2  4  1  0  0  0
  4  5  1  0  0  0
  5  9  1  0  0  0
  9 10  2  0  0  0
 10 11  1  0  0  0
 11 12  2  0  0  0
 11 13  1  0  0  0
 13 14  1  0  0  0
 14 15  2  0  0  0
 15 16  1  0  0  0
 16 17  2  0  0  0
 17 18  1  0  0  0
 17 19  1  0  0  0
 19 20  2  0  0  0
  5  6  2  0  0  0
  6  7  1  0  0  0
  6  1  1  0  0  0
 20 10  1  0  0  0
 20 14  1  0  0  0
 22 25  1  0  0  0
  4  8  1  0  0  0
 13 21  1  0  0  0
M  END
> <minimizedAffinity>
-7.65970

> <CNNscore>
0.2448837906

> <CNNaffinity>
6.0518364906

> <CNN_VS>
1.4819966555

> <CNNaffinity_variance>
0.3771403134

$$$$
[H]c1c(OC2([H])C([H])([H])C([H])([H])N(C([H])([H])[H])C([H])([H])C2([H])[H])nc(C([H])([H])[H])nc1N([H])c1c([H])c(C([H])([H])[H])nn1-c1c([H])c([H])c([H])c([H])c1[H]


 29 32  0  0  0  0  0  0  0  0999 V2000
   41.1731   12.9724  -16.3535 C   0  0  0  0  0  0  0  0  0  0  0  0
   40.0801   13.0418  -15.4873 C   0  0  0  0  0  0  0  0  0  0  0  0
   38.8643   12.4629  -15.7617 C   0  0  0  0  0  0  0  0  0  0  0  0
   38.8370   11.8077  -16.9749 N   0  0  0  0  0  0  0  0  0  0  0  0
   39.8473   11.7176  -17.8227 C   0  0  0  0  0  0  0  0  0  0  0  0
   39.7033   10.9837  -19.1055 C   0  0  0  0  0  0  0  0  0  0  0  0
   41.0109   12.3083  -17.4941 N   0  0  0  0  0  0  0  0  0  0  0  0
   37.6924   12.4953  -15.0005 N   0  0  0  0  0  0  0  0  0  0  0  0
   37.8696   12.8304  -13.9732 H   0  0  0  0  0  0  0  0  0  0  0  0
   36.3741   12.1911  -15.2823 C   0  0  0  0  0  0  0  0  0  0  0  0
   35.8568   11.3108  -16.1827 C   0  0  0  0  0  0  0  0  0  0  0  0
   34.4600   11.4015  -16.1053 C   0  0  0  0  0  0  0  0  0  0  0  0
   33.4900   10.6010  -16.9309 C   0  0  0  0  0  0  0  0  0  0  0  0
   34.2241   12.3087  -15.1840 N   0  0  0  0  0  0  0  0  0  0  0  0
   35.3052   12.8168  -14.6557 N   0  0  0  0  0  0  0  0  0  0  0  0
   35.3862   13.8210  -13.6332 C   0  0  0  0  0  0  0  0  0  0  0  0
   36.5559   14.5056  -13.4218 C   0  0  0  0  0  0  0  0  0  0  0  0
   36.6720   15.4823  -12.4438 C   0  0  0  0  0  0  0  0  0  0  0  0
   35.5825   15.7877  -11.6474 C   0  0  0  0  0  0  0  0  0  0  0  0
   34.4094   15.1100  -11.8500 C   0  0  0  0  0  0  0  0  0  0  0  0
   34.3041   14.1246  -12.8419 C   0  0  0  0  0  0  0  0  0  0  0  0
   42.3424   13.5613  -16.0321 O   0  0  0  0  0  0  0  0  0  0  0  0
   46.4375   13.3870  -12.4024 C   0  0  0  0  0  0  0  0  0  0  0  0
   45.2579   12.9032  -13.1235 N   0  0  0  0  0  0  0  0  0  0  0  0
   45.6010   12.8181  -14.5085 C   0  0  0  0  0  0  0  0  0  0  0  0
   44.6866   13.6302  -15.4031 C   0  0  0  0  0  0  0  0  0  0  0  0
   43.2717   13.1835  -15.0834 C   0  0  0  0  0  0  0  0  0  0  0  0
   42.9700   13.6147  -13.6869 C   0  0  0  0  0  0  0  0  0  0  0  0
   44.1780   13.7832  -12.8200 C   0  0  0  0  0  0  0  0  0  0  0  0
 23 24  1  0  0  0
 24 25  1  0  0  0
 25 26  1  0  0  0
 26 27  1  0  0  0
 27 28  1  0  0  0
 28 29  1  0  0  0
 27 22  1  0  0  0
 22  1  1  0  0  0
  1  2  2  0  0  0
  2  3  1  0  0  0
  3  8  1  0  0  0
  8 10  1  0  0  0
 10 11  2  0  0  0
 11 12  1  0  0  0
 12 13  1  0  0  0
 12 14  2  0  0  0
 14 15  1  0  0  0
 15 16  1  0  0  0
 16 17  2  0  0  0
 17 18  1  0  0  0
 18 19  2  0  0  0
 19 20  1  0  0  0
 20 21  2  0  0  0
  3  4  2  0  0  0
  4  5  1  0  0  0
  5  6  1  0  0  0
  5  7  2  0  0  0
 29 24  1  0  0  0
  7  1  1  0  0  0
 15 10  1  0  0  0
 21 16  1  0  0  0
  8  9  1  0  0  0
M  END
> <minimizedAffinity>
-8.64444

> <CNNscore>
0.6237029433

> <CNNaffinity>
7.2041077614

> <CNN_VS>
4.4932231903

> <CNNaffinity_variance>
0.2936396301

$$$$
[H]c1c(OC2([H])C([H])([H])C([H])([H])N(C([H])([H])[H])C([H])([H])C2([H])[H])nc(C([H])([H])[H])nc1N([H])c1c([H])c(C([H])([H])[H])nn1-c1c([H])c([H])c([H])c([H])c1[H]


 29 32  0  0  0  0  0  0  0  0999 V2000
   41.5753   13.0750  -15.9751 C   0  0  0  0  0  0  0  0  0  0  0  0
   40.5765   13.0389  -15.0000 C   0  0  0  0  0  0  0  0  0  0  0  0
   39.3547   12.4410  -15.1957 C   0  0  0  0  0  0  0  0  0  0  0  0
   39.2194   11.8811  -16.4488 N   0  0  0  0  0  0  0  0  0  0  0  0
   40.1384   11.8924  -17.3990 C   0  0  0  0  0  0  0  0  0  0  0  0
   39.8819   11.2554  -18.7156 C   0  0  0  0  0  0  0  0  0  0  0  0
   41.3136   12.4961  -17.1433 N   0  0  0  0  0  0  0  0  0  0  0  0
   38.2676   12.3733  -14.3197 N   0  0  0  0  0  0  0  0  0  0  0  0
   38.0812   11.3555  -13.9617 H   0  0  0  0  0  0  0  0  0  0  0  0
   37.3930   13.3219  -13.8243 C   0  0  0  0  0  0  0  0  0  0  0  0
   37.6196   14.3473  -12.9581 C   0  0  0  0  0  0  0  0  0  0  0  0
   36.3961   14.9979  -12.7467 C   0  0  0  0  0  0  0  0  0  0  0  0
   36.1890   16.1909  -11.8539 C   0  0  0  0  0  0  0  0  0  0  0  0
   35.5256   14.3423  -13.4815 N   0  0  0  0  0  0  0  0  0  0  0  0
   36.0425   13.3423  -14.1440 N   0  0  0  0  0  0  0  0  0  0  0  0
   35.3624   12.4380  -15.0274 C   0  0  0  0  0  0  0  0  0  0  0  0
   35.9219   12.0876  -16.2297 C   0  0  0  0  0  0  0  0  0  0  0  0
   35.2948   11.2170  -17.1088 C   0  0  0  0  0  0  0  0  0  0  0  0
   34.0652   10.6762  -16.7775 C   0  0  0  0  0  0  0  0  0  0  0  0
   33.4973   11.0194  -15.5791 C   0  0  0  0  0  0  0  0  0  0  0  0
   34.1408   11.9005  -14.6985 C   0  0  0  0  0  0  0  0  0  0  0  0
   42.7554   13.6777  -15.7273 O   0  0  0  0  0  0  0  0  0  0  0  0
   47.1921   13.5180  -12.5233 C   0  0  0  0  0  0  0  0  0  0  0  0
   45.8535   13.1452  -12.9865 N   0  0  0  0  0  0  0  0  0  0  0  0
   45.9814   12.6331  -14.3150 C   0  0  0  0  0  0  0  0  0  0  0  0
   45.1309   13.3740  -15.3269 C   0  0  0  0  0  0  0  0  0  0  0  0
   43.7128   13.3556  -14.7860 C   0  0  0  0  0  0  0  0  0  0  0  0
   43.6947   14.1864  -13.5466 C   0  0  0  0  0  0  0  0  0  0  0  0
   45.0189   14.2939  -12.8579 C   0  0  0  0  0  0  0  0  0  0  0  0
 23 24  1  0  0  0
 24 25  1  0  0  0
 25 26  1  0  0  0
 26 27  1  0  0  0
 27 28  1  0  0  0
 28 29  1  0  0  0
 27 22  1  0  0  0
 22  1  1  0  0  0
  1  2  2  0  0  0
  2  3  1  0  0  0
  3  8  1  0  0  0
  8 10  1  0  0  0
 10 11  2  0  0  0
 11 12  1  0  0  0
 12 13  1  0  0  0
 12 14  2  0  0  0
 14 15  1  0  0  0
 15 16  1  0  0  0
 16 17  2  0  0  0
 17 18  1  0  0  0
 18 19  2  0  0  0
 19 20  1  0  0  0
 20 21  2  0  0  0
  3  4  2  0  0  0
  4  5  1  0  0  0
  5  6  1  0  0  0
  5  7  2  0  0  0
 29 24  1  0  0  0
  7  1  1  0  0  0
 15 10  1  0  0  0
 21 16  1  0  0  0
  8  9  1  0  0  0
M  END
> <minimizedAffinity>
-8.47374

> <CNNscore>
0.5979511142

> <CNNaffinity>
7.0884461403

> <CNN_VS>
4.2385444641

> <CNNaffinity_variance>
0.2043924332

$$$$
[H]c1c(OC2([H])C([H])([H])C([H])([H])N(C([H])([H])[H])C([H])([H])C2([H])[H])nc(C([H])([H])[H])nc1N([H])c1c([H])c(C([H])([H])[H])nn1-c1c([H])c([H])c([H])c([H])c1[H]


 29 32  0  0  0  0  0  0  0  0999 V2000
   43.1631   13.9841  -13.7271 C   0  0  0  0  0  0  0  0  0  0  0  0
   41.7806   13.9261  -13.9136 C   0  0  0  0  0  0  0  0  0  0  0  0
   41.1909   13.2918  -14.9807 C   0  0  0  0  0  0  0  0  0  0  0  0
   42.1027   12.7196  -15.8428 N   0  0  0  0  0  0  0  0  0  0  0  0
   43.4168   12.7507  -15.7032 C   0  0  0  0  0  0  0  0  0  0  0  0
   44.3051   12.0975  -16.6978 C   0  0  0  0  0  0  0  0  0  0  0  0
   43.9304   13.3897  -14.6361 N   0  0  0  0  0  0  0  0  0  0  0  0
   39.8325   13.1990  -15.2969 N   0  0  0  0  0  0  0  0  0  0  0  0
   39.2187   13.8934  -14.7139 H   0  0  0  0  0  0  0  0  0  0  0  0
   39.1207   12.4150  -16.1849 C   0  0  0  0  0  0  0  0  0  0  0  0
   39.5227   11.8314  -17.3472 C   0  0  0  0  0  0  0  0  0  0  0  0
   38.4127   11.1713  -17.8927 C   0  0  0  0  0  0  0  0  0  0  0  0
   38.4105   10.3932  -19.1802 C   0  0  0  0  0  0  0  0  0  0  0  0
   37.4314   11.3902  -17.0463 N   0  0  0  0  0  0  0  0  0  0  0  0
   37.7759   12.1156  -16.0161 N   0  0  0  0  0  0  0  0  0  0  0  0
   36.9419   12.5282  -14.9230 C   0  0  0  0  0  0  0  0  0  0  0  0
   35.9072   13.4045  -15.1298 C   0  0  0  0  0  0  0  0  0  0  0  0
   35.0805   13.8256  -14.0987 C   0  0  0  0  0  0  0  0  0  0  0  0
   35.2931   13.3562  -12.8146 C   0  0  0  0  0  0  0  0  0  0  0  0
   36.3238   12.4805  -12.5968 C   0  0  0  0  0  0  0  0  0  0  0  0
   37.1528   12.0620  -13.6472 C   0  0  0  0  0  0  0  0  0  0  0  0
   43.6860   14.6223  -12.6609 O   0  0  0  0  0  0  0  0  0  0  0  0
   44.2745   14.1127   -7.2416 C   0  0  0  0  0  0  0  0  0  0  0  0
   43.5738   14.0794   -8.5274 N   0  0  0  0  0  0  0  0  0  0  0  0
   44.2316   13.1172   -9.3549 C   0  0  0  0  0  0  0  0  0  0  0  0
   44.7182   13.6913  -10.6701 C   0  0  0  0  0  0  0  0  0  0  0  0
   43.5146   14.3510  -11.3180 C   0  0  0  0  0  0  0  0  0  0  0  0
   43.1358   15.5214  -10.4734 C   0  0  0  0  0  0  0  0  0  0  0  0
   43.5557   15.4090   -9.0414 C   0  0  0  0  0  0  0  0  0  0  0  0
 23 24  1  0  0  0
 24 25  1  0  0  0
 25 26  1  0  0  0
 26 27  1  0  0  0
 27 28  1  0  0  0
 28 29  1  0  0  0
 27 22  1  0  0  0
 22  1  1  0  0  0
  1  2  2  0  0  0
  2  3  1  0  0  0
  3  8  1  0  0  0
  8 10  1  0  0  0
 10 11  2  0  0  0
 11 12  1  0  0  0
 12 13  1  0  0  0
 12 14  2  0  0  0
 14 15  1  0  0  0
 15 16  1  0  0  0
 16 17  2  0  0  0
 17 18  1  0  0  0
 18 19  2  0  0  0
 19 20  1  0  0  0
 20 21  2  0  0  0
  3  4  2  0  0  0
  4  5  1  0  0  0
  5  6  1  0  0  0
  5  7  2  0  0  0
 29 24  1  0  0  0
  7  1  1  0  0  0
 15 10  1  0  0  0
 21 16  1  0  0  0
  8  9  1  0  0  0
M  END
> <minimizedAffinity>
-7.56311

> <CNNscore>
0.4768686295

> <CNNaffinity>
6.7130880356

> <CNN_VS>
3.2012610435

> <CNNaffinity_variance>
0.0969532281

$$$$
[H]c1c(OC2([H])C([H])([H])C([H])([H])N(C([H])([H])[H])C([H])([H])C2([H])[H])nc(C([H])([H])[H])nc1N([H])c1c([H])c(C([H])([H])[H])nn1-c1c([H])c([H])c([H])c([H])c1[H]


 29 32  0  0  0  0  0  0  0  0999 V2000
   43.3170   13.9317  -13.5938 C   0  0  0  0  0  0  0  0  0  0  0  0
   41.9653   13.8227  -13.9263 C   0  0  0  0  0  0  0  0  0  0  0  0
   41.5222   13.2749  -15.1063 C   0  0  0  0  0  0  0  0  0  0  0  0
   42.5467   12.8443  -15.9228 N   0  0  0  0  0  0  0  0  0  0  0  0
   43.8367   12.9279  -15.6464 C   0  0  0  0  0  0  0  0  0  0  0  0
   44.8559   12.4296  -16.6045 C   0  0  0  0  0  0  0  0  0  0  0  0
   44.2040   13.4766  -14.4738 N   0  0  0  0  0  0  0  0  0  0  0  0
   40.2091   13.1463  -15.5681 N   0  0  0  0  0  0  0  0  0  0  0  0
   39.5095   13.7903  -15.0253 H   0  0  0  0  0  0  0  0  0  0  0  0
   39.6269   12.3776  -16.5581 C   0  0  0  0  0  0  0  0  0  0  0  0
   40.1374   11.9581  -17.7483 C   0  0  0  0  0  0  0  0  0  0  0  0
   39.1328   11.2342  -18.4055 C   0  0  0  0  0  0  0  0  0  0  0  0
   39.2694   10.5893  -19.7578 C   0  0  0  0  0  0  0  0  0  0  0  0
   38.1015   11.2588  -17.5912 N   0  0  0  0  0  0  0  0  0  0  0  0
   38.3205   11.9147  -16.4831 N   0  0  0  0  0  0  0  0  0  0  0  0
   37.4037   12.1235  -15.3984 C   0  0  0  0  0  0  0  0  0  0  0  0
   37.7973   11.9037  -14.1030 C   0  0  0  0  0  0  0  0  0  0  0  0
   36.9398   12.0947  -13.0295 C   0  0  0  0  0  0  0  0  0  0  0  0
   35.6428   12.5202  -13.2556 C   0  0  0  0  0  0  0  0  0  0  0  0
   35.2393   12.7428  -14.5456 C   0  0  0  0  0  0  0  0  0  0  0  0
   36.1152   12.5463  -15.6227 C   0  0  0  0  0  0  0  0  0  0  0  0
   43.6936   14.4800  -12.4212 O   0  0  0  0  0  0  0  0  0  0  0  0
   46.5708   19.1258  -12.7581 C   0  0  0  0  0  0  0  0  0  0  0  0
   45.6065   18.1790  -12.1933 N   0  0  0  0  0  0  0  0  0  0  0  0
   46.3178   16.9867  -11.8531 C   0  0  0  0  0  0  0  0  0  0  0  0
   45.7628   15.7462  -12.5235 C   0  0  0  0  0  0  0  0  0  0  0  0
   44.2833   15.7063  -12.1871 C   0  0  0  0  0  0  0  0  0  0  0  0
   43.6370   16.8661  -12.8683 C   0  0  0  0  0  0  0  0  0  0  0  0
   44.5613   18.0093  -13.1480 C   0  0  0  0  0  0  0  0  0  0  0  0
 23 24  1  0  0  0
 24 25  1  0  0  0
 25 26  1  0  0  0
 26 27  1  0  0  0
 27 28  1  0  0  0
 28 29  1  0  0  0
 27 22  1  0  0  0
 22  1  1  0  0  0
  1  2  2  0  0  0
  2  3  1  0  0  0
  3  8  1  0  0  0
  8 10  1  0  0  0
 10 11  2  0  0  0
 11 12  1  0  0  0
 12 13  1  0  0  0
 12 14  2  0  0  0
 14 15  1  0  0  0
 15 16  1  0  0  0
 16 17  2  0  0  0
 17 18  1  0  0  0
 18 19  2  0  0  0
 19 20  1  0  0  0
 20 21  2  0  0  0
  3  4  2  0  0  0
  4  5  1  0  0  0
  5  6  1  0  0  0
  5  7  2  0  0  0
 29 24  1  0  0  0
  7  1  1  0  0  0
 15 10  1  0  0  0
 21 16  1  0  0  0
  8  9  1  0  0  0
M  END
> <minimizedAffinity>
-8.00516

> <CNNscore>
0.4711914361

> <CNNaffinity>
6.7349152565

> <CNN_VS>
3.1734344959

> <CNNaffinity_variance>
0.2233084142

$$$$
[H]c1c(OC2([H])C([H])([H])C([H])([H])N(C([H])([H])[H])C([H])([H])C2([H])[H])nc(C([H])([H])[H])nc1N([H])c1c([H])c(C([H])([H])[H])nn1-c1c([H])c([H])c([H])c([H])c1[H]


 29 32  0  0  0  0  0  0  0  0999 V2000
   41.8126   13.3449  -15.2203 C   0  0  0  0  0  0  0  0  0  0  0  0
   40.6955   13.2463  -14.3884 C   0  0  0  0  0  0  0  0  0  0  0  0
   39.4993   12.7057  -14.7954 C   0  0  0  0  0  0  0  0  0  0  0  0
   39.5179   12.2710  -16.1040 N   0  0  0  0  0  0  0  0  0  0  0  0
   40.5522   12.3448  -16.9239 C   0  0  0  0  0  0  0  0  0  0  0  0
   40.4576   11.8430  -18.3182 C   0  0  0  0  0  0  0  0  0  0  0  0
   41.6945   12.8869  -16.4631 N   0  0  0  0  0  0  0  0  0  0  0  0
   38.3069   12.5876  -14.0755 N   0  0  0  0  0  0  0  0  0  0  0  0
   38.0592   11.5465  -13.8438 H   0  0  0  0  0  0  0  0  0  0  0  0
   37.3911   13.5103  -13.6068 C   0  0  0  0  0  0  0  0  0  0  0  0
   37.5615   14.5396  -12.7322 C   0  0  0  0  0  0  0  0  0  0  0  0
   36.3143   15.1555  -12.5588 C   0  0  0  0  0  0  0  0  0  0  0  0
   36.0459   16.3401  -11.6712 C   0  0  0  0  0  0  0  0  0  0  0  0
   35.4861   14.4777  -13.3217 N   0  0  0  0  0  0  0  0  0  0  0  0
   36.0513   13.4940  -13.9691 N   0  0  0  0  0  0  0  0  0  0  0  0
   35.4249   12.5732  -14.8749 C   0  0  0  0  0  0  0  0  0  0  0  0
   36.0444   12.2202  -16.0467 C   0  0  0  0  0  0  0  0  0  0  0  0
   35.4704   11.3340  -16.9461 C   0  0  0  0  0  0  0  0  0  0  0  0
   34.2337   10.7795  -16.6675 C   0  0  0  0  0  0  0  0  0  0  0  0
   33.6061   11.1252  -15.4999 C   0  0  0  0  0  0  0  0  0  0  0  0
   34.1964   12.0222  -14.5983 C   0  0  0  0  0  0  0  0  0  0  0  0
   42.9608   13.8865  -14.7668 O   0  0  0  0  0  0  0  0  0  0  0  0
   45.4697   14.6603   -9.9625 C   0  0  0  0  0  0  0  0  0  0  0  0
   44.4366   14.8417  -10.9849 N   0  0  0  0  0  0  0  0  0  0  0  0
   43.8215   13.5711  -11.2098 C   0  0  0  0  0  0  0  0  0  0  0  0
   43.8853   13.1224  -12.6557 C   0  0  0  0  0  0  0  0  0  0  0  0
   43.2971   14.2537  -13.4790 C   0  0  0  0  0  0  0  0  0  0  0  0
   44.2240   15.4179  -13.3684 C   0  0  0  0  0  0  0  0  0  0  0  0
   45.0602   15.4235  -12.1273 C   0  0  0  0  0  0  0  0  0  0  0  0
 23 24  1  0  0  0
 24 25  1  0  0  0
 25 26  1  0  0  0
 26 27  1  0  0  0
 27 28  1  0  0  0
 28 29  1  0  0  0
 27 22  1  0  0  0
 22  1  1  0  0  0
  1  2  2  0  0  0
  2  3  1  0  0  0
  3  8  1  0  0  0
  8 10  1  0  0  0
 10 11  2  0  0  0
 11 12  1  0  0  0
 12 13  1  0  0  0
 12 14  2  0  0  0
 14 15  1  0  0  0
 15 16  1  0  0  0
 16 17  2  0  0  0
 17 18  1  0  0  0
 18 19  2  0  0  0
 19 20  1  0  0  0
 20 21  2  0  0  0
  3  4  2  0  0  0
  4  5  1  0  0  0
  5  6  1  0  0  0
  5  7  2  0  0  0
 29 24  1  0  0  0
  7  1  1  0  0  0
 15 10  1  0  0  0
 21 16  1  0  0  0
  8  9  1  0  0  0
M  END
> <minimizedAffinity>
-8.29105

> <CNNscore>
0.3773832619

> <CNNaffinity>
6.7562217712

> <CNN_VS>
2.5496850014

> <CNNaffinity_variance>
0.1455578059

$$$$
[H]c1c(OC2([H])C([H])([H])C([H])([H])N(C([H])([H])[H])C([H])([H])C2([H])[H])nc(C([H])([H])[H])nc1N([H])c1c([H])c(C([H])([H])[H])nn1-c1c([H])c([H])c([H])c([H])c1[H]


 29 32  0  0  0  0  0  0  0  0999 V2000
   36.9698   15.1093  -12.7372 C   0  0  0  0  0  0  0  0  0  0  0  0
   38.0888   14.4222  -13.2118 C   0  0  0  0  0  0  0  0  0  0  0  0
   38.0049   13.3177  -14.0253 C   0  0  0  0  0  0  0  0  0  0  0  0
   36.7065   12.9617  -14.3242 N   0  0  0  0  0  0  0  0  0  0  0  0
   35.6212   13.5840  -13.8972 C   0  0  0  0  0  0  0  0  0  0  0  0
   34.2682   13.1101  -14.2843 C   0  0  0  0  0  0  0  0  0  0  0  0
   35.7729   14.6589  -13.1019 N   0  0  0  0  0  0  0  0  0  0  0  0
   39.0410   12.5265  -14.5297 N   0  0  0  0  0  0  0  0  0  0  0  0
   39.5908   12.0037  -13.7402 H   0  0  0  0  0  0  0  0  0  0  0  0
   39.5035   12.2781  -15.8081 C   0  0  0  0  0  0  0  0  0  0  0  0
   38.8536   11.7521  -16.8824 C   0  0  0  0  0  0  0  0  0  0  0  0
   39.7760   11.6732  -17.9351 C   0  0  0  0  0  0  0  0  0  0  0  0
   39.4792   11.1475  -19.3131 C   0  0  0  0  0  0  0  0  0  0  0  0
   40.8999   12.1461  -17.4447 N   0  0  0  0  0  0  0  0  0  0  0  0
   40.8134   12.5219  -16.1967 N   0  0  0  0  0  0  0  0  0  0  0  0
   41.8554   13.0760  -15.3795 C   0  0  0  0  0  0  0  0  0  0  0  0
   41.5503   13.7370  -14.2170 C   0  0  0  0  0  0  0  0  0  0  0  0
   42.5296   14.2852  -13.4019 C   0  0  0  0  0  0  0  0  0  0  0  0
   43.8615   14.1706  -13.7586 C   0  0  0  0  0  0  0  0  0  0  0  0
   44.1775   13.5123  -14.9177 C   0  0  0  0  0  0  0  0  0  0  0  0
   43.1786   12.9621  -15.7336 C   0  0  0  0  0  0  0  0  0  0  0  0
   37.1128   16.1871  -11.9401 O   0  0  0  0  0  0  0  0  0  0  0  0
   37.1297   17.8034   -6.7092 C   0  0  0  0  0  0  0  0  0  0  0  0
   37.0582   16.8559   -7.8239 N   0  0  0  0  0  0  0  0  0  0  0  0
   38.2908   16.9387   -8.5431 C   0  0  0  0  0  0  0  0  0  0  0  0
   38.1073   17.2731  -10.0096 C   0  0  0  0  0  0  0  0  0  0  0  0
   37.1320   16.2491  -10.5609 C   0  0  0  0  0  0  0  0  0  0  0  0
   35.8098   16.4954   -9.9143 C   0  0  0  0  0  0  0  0  0  0  0  0
   35.8925   17.1712   -8.5817 C   0  0  0  0  0  0  0  0  0  0  0  0
 23 24  1  0  0  0
 24 25  1  0  0  0
 25 26  1  0  0  0
 26 27  1  0  0  0
 27 28  1  0  0  0
 28 29  1  0  0  0
 27 22  1  0  0  0
 22  1  1  0  0  0
  1  2  2  0  0  0
  2  3  1  0  0  0
  3  8  1  0  0  0
  8 10  1  0  0  0
 10 11  2  0  0  0
 11 12  1  0  0  0
 12 13  1  0  0  0
 12 14  2  0  0  0
 14 15  1  0  0  0
 15 16  1  0  0  0
 16 17  2  0  0  0
 17 18  1  0  0  0
 18 19  2  0  0  0
 19 20  1  0  0  0
 20 21  2  0  0  0
  3  4  2  0  0  0
  4  5  1  0  0  0
  5  6  1  0  0  0
  5  7  2  0  0  0
 29 24  1  0  0  0
  7  1  1  0  0  0
 15 10  1  0  0  0
 21 16  1  0  0  0
  8  9  1  0  0  0
M  END
> <minimizedAffinity>
-8.19026

> <CNNscore>
0.2520879507

> <CNNaffinity>
6.4571619034

> <CNN_VS>
1.6277726889

> <CNNaffinity_variance>
0.2286979705

$$$$
[H]c1c(OC2([H])C([H])([H])C([H])([H])N(C([H])([H])[H])C([H])([H])C2([H])[H])nc(C([H])([H])[H])nc1N([H])c1c([H])c(C([H])([H])[H])nn1-c1c([H])c([H])c([H])c([H])c1[H]


 29 32  0  0  0  0  0  0  0  0999 V2000
   43.3503   13.8363  -13.6305 C   0  0  0  0  0  0  0  0  0  0  0  0
   41.9811   14.0960  -13.7170 C   0  0  0  0  0  0  0  0  0  0  0  0
   41.2059   13.7011  -14.7809 C   0  0  0  0  0  0  0  0  0  0  0  0
   41.9174   13.0232  -15.7484 N   0  0  0  0  0  0  0  0  0  0  0  0
   43.2114   12.7563  -15.7053 C   0  0  0  0  0  0  0  0  0  0  0  0
   43.8746   12.0163  -16.8088 C   0  0  0  0  0  0  0  0  0  0  0  0
   43.9137   13.1723  -14.6354 N   0  0  0  0  0  0  0  0  0  0  0  0
   39.8451   13.9331  -15.0008 N   0  0  0  0  0  0  0  0  0  0  0  0
   39.6411   14.2994  -16.0123 H   0  0  0  0  0  0  0  0  0  0  0  0
   38.7228   13.7958  -14.2061 C   0  0  0  0  0  0  0  0  0  0  0  0
   38.4238   14.3793  -13.0130 C   0  0  0  0  0  0  0  0  0  0  0  0
   37.1794   13.8823  -12.6015 C   0  0  0  0  0  0  0  0  0  0  0  0
   36.4688   14.2621  -11.3311 C   0  0  0  0  0  0  0  0  0  0  0  0
   36.8105   13.0494  -13.5489 N   0  0  0  0  0  0  0  0  0  0  0  0
   37.6712   12.9484  -14.5263 N   0  0  0  0  0  0  0  0  0  0  0  0
   37.5642   12.1294  -15.7004 C   0  0  0  0  0  0  0  0  0  0  0  0
   38.6863   11.5936  -16.2792 C   0  0  0  0  0  0  0  0  0  0  0  0
   38.6223   10.7978  -17.4135 C   0  0  0  0  0  0  0  0  0  0  0  0
   37.3951   10.5264  -17.9919 C   0  0  0  0  0  0  0  0  0  0  0  0
   36.2679   11.0565  -17.4219 C   0  0  0  0  0  0  0  0  0  0  0  0
   36.3452   11.8596  -16.2752 C   0  0  0  0  0  0  0  0  0  0  0  0
   44.0614   14.2495  -12.5623 O   0  0  0  0  0  0  0  0  0  0  0  0
   46.1112   10.3199   -9.3480 C   0  0  0  0  0  0  0  0  0  0  0  0
   46.0867   11.6020  -10.0559 N   0  0  0  0  0  0  0  0  0  0  0  0
   44.9799   12.3539   -9.5530 C   0  0  0  0  0  0  0  0  0  0  0  0
   44.0041   12.7776  -10.6320 C   0  0  0  0  0  0  0  0  0  0  0  0
   44.8222   13.5022  -11.6853 C   0  0  0  0  0  0  0  0  0  0  0  0
   45.7264   12.4987  -12.3196 C   0  0  0  0  0  0  0  0  0  0  0  0
   46.0432   11.3206  -11.4529 C   0  0  0  0  0  0  0  0  0  0  0  0
 23 24  1  0  0  0
 24 25  1  0  0  0
 25 26  1  0  0  0
 26 27  1  0  0  0
 27 28  1  0  0  0
 28 29  1  0  0  0
 27 22  1  0  0  0
 22  1  1  0  0  0
  1  2  2  0  0  0
  2  3  1  0  0  0
  3  8  1  0  0  0
  8 10  1  0  0  0
 10 11  2  0  0  0
 11 12  1  0  0  0
 12 13  1  0  0  0
 12 14  2  0  0  0
 14 15  1  0  0  0
 15 16  1  0  0  0
 16 17  2  0  0  0
 17 18  1  0  0  0
 18 19  2  0  0  0
 19 20  1  0  0  0
 20 21  2  0  0  0
  3  4  2  0  0  0
  4  5  1  0  0  0
  5  6  1  0  0  0
  5  7  2  0  0  0
 29 24  1  0  0  0
  7  1  1  0  0  0
 15 10  1  0  0  0
 21 16  1  0  0  0
  8  9  1  0  0  0
M  END
> <minimizedAffinity>
-8.30540

> <CNNscore>
0.1838123500

> <CNNaffinity>
6.2929296494

> <CNN_VS>
1.1567181349

> <CNNaffinity_variance>
0.1267885864

$$$$
[H]c1c(OC2([H])C([H])([H])C([H])([H])N(C([H])([H])[H])C([H])([H])C2([H])[H])nc(C([H])([H])[H])nc1N([H])c1c([H])c(C([H])([H])[H])nn1-c1c([H])c([H])c([H])c([H])c1[H]


 29 32  0  0  0  0  0  0  0  0999 V2000
   35.0751   13.8061  -12.9454 C   0  0  0  0  0  0  0  0  0  0  0  0
   36.4258   13.5154  -13.1474 C   0  0  0  0  0  0  0  0  0  0  0  0
   36.8662   12.5618  -14.0336 C   0  0  0  0  0  0  0  0  0  0  0  0
   35.8401   11.9264  -14.7009 N   0  0  0  0  0  0  0  0  0  0  0  0
   34.5510   12.1713  -14.5402 C   0  0  0  0  0  0  0  0  0  0  0  0
   33.5300   11.4224  -15.3159 C   0  0  0  0  0  0  0  0  0  0  0  0
   34.1864   13.1172  -13.6552 N   0  0  0  0  0  0  0  0  0  0  0  0
   38.1777   12.1546  -14.2947 N   0  0  0  0  0  0  0  0  0  0  0  0
   38.6664   11.7268  -13.4132 H   0  0  0  0  0  0  0  0  0  0  0  0
   38.9689   12.1860  -15.4273 C   0  0  0  0  0  0  0  0  0  0  0  0
   38.8330   11.5141  -16.6035 C   0  0  0  0  0  0  0  0  0  0  0  0
   39.9179   11.8675  -17.4179 C   0  0  0  0  0  0  0  0  0  0  0  0
   40.1634   11.3530  -18.8101 C   0  0  0  0  0  0  0  0  0  0  0  0
   40.6257   12.7122  -16.7017 N   0  0  0  0  0  0  0  0  0  0  0  0
   40.1262   12.9469  -15.5179 N   0  0  0  0  0  0  0  0  0  0  0  0
   40.6572   13.8139  -14.5044 C   0  0  0  0  0  0  0  0  0  0  0  0
   39.8799   14.8037  -13.9588 C   0  0  0  0  0  0  0  0  0  0  0  0
   40.3581   15.6601  -12.9780 C   0  0  0  0  0  0  0  0  0  0  0  0
   41.6584   15.5252  -12.5248 C   0  0  0  0  0  0  0  0  0  0  0  0
   42.4434   14.5399  -13.0629 C   0  0  0  0  0  0  0  0  0  0  0  0
   41.9488   13.6800  -14.0539 C   0  0  0  0  0  0  0  0  0  0  0  0
   34.7011   14.7520  -12.0607 O   0  0  0  0  0  0  0  0  0  0  0  0
   36.9689   18.2048   -8.4675 C   0  0  0  0  0  0  0  0  0  0  0  0
   36.6463   16.9079   -9.0670 N   0  0  0  0  0  0  0  0  0  0  0  0
   37.1709   16.9024  -10.3967 C   0  0  0  0  0  0  0  0  0  0  0  0
   36.1209   16.6259  -11.4537 C   0  0  0  0  0  0  0  0  0  0  0  0
   35.4387   15.3322  -11.0479 C   0  0  0  0  0  0  0  0  0  0  0  0
   34.6904   15.5970   -9.7842 C   0  0  0  0  0  0  0  0  0  0  0  0
   35.2350   16.7297   -8.9719 C   0  0  0  0  0  0  0  0  0  0  0  0
 23 24  1  0  0  0
 24 25  1  0  0  0
 25 26  1  0  0  0
 26 27  1  0  0  0
 27 28  1  0  0  0
 28 29  1  0  0  0
 27 22  1  0  0  0
 22  1  1  0  0  0
  1  2  2  0  0  0
  2  3  1  0  0  0
  3  8  1  0  0  0
  8 10  1  0  0  0
 10 11  2  0  0  0
 11 12  1  0  0  0
 12 13  1  0  0  0
 12 14  2  0  0  0
 14 15  1  0  0  0
 15 16  1  0  0  0
 16 17  2  0  0  0
 17 18  1  0  0  0
 18 19  2  0  0  0
 19 20  1  0  0  0
 20 21  2  0  0  0
  3  4  2  0  0  0
  4  5  1  0  0  0
  5  6  1  0  0  0
  5  7  2  0  0  0
 29 24  1  0  0  0
  7  1  1  0  0  0
 15 10  1  0  0  0
 21 16  1  0  0  0
  8  9  1  0  0  0
M  END
> <minimizedAffinity>
-8.51420

> <CNNscore>
0.1735172868

> <CNNaffinity>
6.4176254272

> <CNN_VS>
1.1135689020

> <CNNaffinity_variance>
0.1548258066

$$$$
[H]c1c(OC2([H])C([H])([H])C([H])([H])N(C([H])([H])[H])C([H])([H])C2([H])[H])nc(C([H])([H])[H])nc1N([H])c1c([H])c(C([H])([H])[H])nn1-c1c([H])c([H])c([H])c([H])c1[H]


 29 32  0  0  0  0  0  0  0  0999 V2000
   39.7142   15.5503  -12.7702 C   0  0  0  0  0  0  0  0  0  0  0  0
   39.5963   14.4107  -13.5683 C   0  0  0  0  0  0  0  0  0  0  0  0
   38.4626   13.6351  -13.6102 C   0  0  0  0  0  0  0  0  0  0  0  0
   37.4576   14.0986  -12.7874 N   0  0  0  0  0  0  0  0  0  0  0  0
   37.5277   15.1711  -12.0178 C   0  0  0  0  0  0  0  0  0  0  0  0
   36.3787   15.5775  -11.1695 C   0  0  0  0  0  0  0  0  0  0  0  0
   38.6675   15.8865  -12.0220 N   0  0  0  0  0  0  0  0  0  0  0  0
   38.2376   12.4593  -14.3319 N   0  0  0  0  0  0  0  0  0  0  0  0
   37.6983   11.7064  -13.7479 H   0  0  0  0  0  0  0  0  0  0  0  0
   38.5576   12.0636  -15.6168 C   0  0  0  0  0  0  0  0  0  0  0  0
   39.7618   12.0577  -16.2518 C   0  0  0  0  0  0  0  0  0  0  0  0
   39.5466   11.5968  -17.5581 C   0  0  0  0  0  0  0  0  0  0  0  0
   40.6111   11.4336  -18.6085 C   0  0  0  0  0  0  0  0  0  0  0  0
   38.2564   11.3569  -17.6307 N   0  0  0  0  0  0  0  0  0  0  0  0
   37.6104   11.6091  -16.5239 N   0  0  0  0  0  0  0  0  0  0  0  0
   36.2042   11.4532  -16.2809 C   0  0  0  0  0  0  0  0  0  0  0  0
   35.5598   12.2635  -15.3812 C   0  0  0  0  0  0  0  0  0  0  0  0
   34.2028   12.1427  -15.1204 C   0  0  0  0  0  0  0  0  0  0  0  0
   33.4612   11.1790  -15.7803 C   0  0  0  0  0  0  0  0  0  0  0  0
   34.0948   10.3643  -16.6811 C   0  0  0  0  0  0  0  0  0  0  0  0
   35.4672   10.4960  -16.9364 C   0  0  0  0  0  0  0  0  0  0  0  0
   40.8525   16.2726  -12.7684 O   0  0  0  0  0  0  0  0  0  0  0  0
   45.7679   16.4241  -10.3619 C   0  0  0  0  0  0  0  0  0  0  0  0
   44.5581   15.8082  -10.9121 N   0  0  0  0  0  0  0  0  0  0  0  0
   44.4934   16.1439  -12.3000 C   0  0  0  0  0  0  0  0  0  0  0  0
   43.2095   16.8499  -12.6863 C   0  0  0  0  0  0  0  0  0  0  0  0
   42.0751   15.9630  -12.2064 C   0  0  0  0  0  0  0  0  0  0  0  0
   42.1093   15.9587  -10.7145 C   0  0  0  0  0  0  0  0  0  0  0  0
   43.4541   16.2553  -10.1286 C   0  0  0  0  0  0  0  0  0  0  0  0
 23 24  1  0  0  0
 24 25  1  0  0  0
 25 26  1  0  0  0
 26 27  1  0  0  0
 27 28  1  0  0  0
 28 29  1  0  0  0
 27 22  1  0  0  0
 22  1  1  0  0  0
  1  2  2  0  0  0
  2  3  1  0  0  0
  3  8  1  0  0  0
  8 10  1  0  0  0
 10 11  2  0  0  0
 11 12  1  0  0  0
 12 13  1  0  0  0
 12 14  2  0  0  0
 14 15  1  0  0  0
 15 16  1  0  0  0
 16 17  2  0  0  0
 17 18  1  0  0  0
 18 19  2  0  0  0
 19 20  1  0  0  0
 20 21  2  0  0  0
  3  4  2  0  0  0
  4  5  1  0  0  0
  5  6  1  0  0  0
  5  7  2  0  0  0
 29 24  1  0  0  0
  7  1  1  0  0  0
 15 10  1  0  0  0
 21 16  1  0  0  0
  8  9  1  0  0  0
M  END
> <minimizedAffinity>
-8.85601

> <CNNscore>
0.1539864987

> <CNNaffinity>
6.2985925674

> <CNN_VS>
0.9698982239

> <CNNaffinity_variance>
0.1587844193

$$$$
[H]Oc1c([H])c([H])c(-c2sc3c(C(=O)N([H])[H])c([H])c(N([H])C([H])([H])C([H])([H])O[H])c([H])c3c2-c2c([H])c([H])c([H])c([H])c2[H])c([H])c1[H]


 34 37  0  0  0  0  0  0  0  0999 V2000
   40.8901   17.0247   -5.1617 C   0  0  0  0  0  0  0  0  0  0  0  0
   41.8224   18.3579   -4.6640 S   0  0  0  0  0  0  0  0  0  0  0  0
   43.3736   17.7680   -5.0690 C   0  0  0  0  0  0  0  0  0  0  0  0
   44.6690   18.2958   -4.9578 C   0  0  0  0  0  0  0  0  0  0  0  0
   45.7660   17.5512   -5.3862 C   0  0  0  0  0  0  0  0  0  0  0  0
   45.5315   16.3055   -5.9102 C   0  0  0  0  0  0  0  0  0  0  0  0
   44.2598   15.8200   -6.0055 C   0  0  0  0  0  0  0  0  0  0  0  0
   43.1192   16.5352   -5.5863 C   0  0  0  0  0  0  0  0  0  0  0  0
   41.8136   16.1417   -5.6362 C   0  0  0  0  0  0  0  0  0  0  0  0
   35.2528   16.3426   -5.0194 O   0  0  0  0  0  0  0  0  0  0  0  0
   36.6409   16.5033   -5.0396 C   0  0  0  0  0  0  0  0  0  0  0  0
   37.4316   16.0694   -3.9976 C   0  0  0  0  0  0  0  0  0  0  0  0
   38.8060   16.2326   -4.0259 C   0  0  0  0  0  0  0  0  0  0  0  0
   39.4160   16.8366   -5.1045 C   0  0  0  0  0  0  0  0  0  0  0  0
   38.6102   17.2648   -6.1384 C   0  0  0  0  0  0  0  0  0  0  0  0
   37.2403   17.1085   -6.1228 C   0  0  0  0  0  0  0  0  0  0  0  0
   34.8213   15.5049   -5.4002 H   0  0  0  0  0  0  0  0  0  0  0  0
   41.3632   14.8146   -6.1771 C   0  0  0  0  0  0  0  0  0  0  0  0
   41.2471   13.7150   -5.3654 C   0  0  0  0  0  0  0  0  0  0  0  0
   40.8354   12.4826   -5.8351 C   0  0  0  0  0  0  0  0  0  0  0  0
   40.5332   12.3886   -7.1978 C   0  0  0  0  0  0  0  0  0  0  0  0
   40.6360   13.4685   -8.0498 C   0  0  0  0  0  0  0  0  0  0  0  0
   41.0529   14.6672   -7.5122 C   0  0  0  0  0  0  0  0  0  0  0  0
   44.7947   19.6095   -4.3923 C   0  0  0  0  0  0  0  0  0  0  0  0
   45.6934   20.5458   -4.9301 N   0  0  0  0  0  0  0  0  0  0  0  0
   44.0947   19.9313   -3.4043 O   0  0  0  0  0  0  0  0  0  0  0  0
   45.4530   21.0430   -5.8298 H   0  0  0  0  0  0  0  0  0  0  0  0
   46.6088   20.8019   -4.5031 H   0  0  0  0  0  0  0  0  0  0  0  0
   46.6506   15.4955   -6.3471 N   0  0  0  0  0  0  0  0  0  0  0  0
   46.6896   15.1219   -7.3177 H   0  0  0  0  0  0  0  0  0  0  0  0
   47.7086   15.2059   -5.4407 C   0  0  0  0  0  0  0  0  0  0  0  0
   47.6176   13.7863   -4.9308 C   0  0  0  0  0  0  0  0  0  0  0  0
   46.7864   13.0085   -5.7482 O   0  0  0  0  0  0  0  0  0  0  0  0
   45.9571   12.7330   -5.2622 H   0  0  0  0  0  0  0  0  0  0  0  0
 10 11  1  0  0  0
 11 12  2  0  0  0
 12 13  1  0  0  0
 13 14  2  0  0  0
 14 15  1  0  0  0
 15 16  2  0  0  0
 14  1  1  0  0  0
  1  2  1  0  0  0
  2  3  1  0  0  0
  3  4  2  0  0  0
  4  5  1  0  0  0
  5  6  2  0  0  0
  6 29  1  0  0  0
 29 31  1  0  0  0
 31 32  1  0  0  0
 32 33  1  0  0  0
  6  7  1  0  0  0
  7  8  2  0  0  0
  8  9  1  0  0  0
  9 18  1  0  0  0
 18 19  2  0  0  0
 19 20  1  0  0  0
 20 21  2  0  0  0
 21 22  1  0  0  0
 22 23  2  0  0  0
  4 24  1  0  0  0
 24 25  1  0  0  0
 24 26  2  0  0  0
 16 11  1  0  0  0
  9  1  2  0  0  0
 23 18  1  0  0  0
  8  3  1  0  0  0
 10 17  1  0  0  0
 29 30  1  0  0  0
 33 34  1  0  0  0
 25 27  1  0  0  0
 25 28  1  0  0  0
M  END
> <minimizedAffinity>
-2.86402

> <CNNscore>
0.5456480384

> <CNNaffinity>
5.5764832497

> <CNN_VS>
3.0427970886

> <CNNaffinity_variance>
1.1092150211

$$$$
[H]Oc1c([H])c([H])c(-c2sc3c(C(=O)N([H])[H])c([H])c(N([H])C([H])([H])C([H])([H])O[H])c([H])c3c2-c2c([H])c([H])c([H])c([H])c2[H])c([H])c1[H]


 34 37  0  0  0  0  0  0  0  0999 V2000
   40.9771   16.5914   -4.9330 C   0  0  0  0  0  0  0  0  0  0  0  0
   41.8597   17.9806   -4.5025 S   0  0  0  0  0  0  0  0  0  0  0  0
   43.3794   17.5455   -5.1501 C   0  0  0  0  0  0  0  0  0  0  0  0
   44.6301   18.1801   -5.1939 C   0  0  0  0  0  0  0  0  0  0  0  0
   45.7111   17.5521   -5.8092 C   0  0  0  0  0  0  0  0  0  0  0  0
   45.5058   16.3123   -6.3587 C   0  0  0  0  0  0  0  0  0  0  0  0
   44.2772   15.7212   -6.3003 C   0  0  0  0  0  0  0  0  0  0  0  0
   43.1544   16.3165   -5.6896 C   0  0  0  0  0  0  0  0  0  0  0  0
   41.8914   15.8122   -5.5768 C   0  0  0  0  0  0  0  0  0  0  0  0
   35.4925   15.4155   -4.0380 O   0  0  0  0  0  0  0  0  0  0  0  0
   36.8457   15.6966   -4.2445 C   0  0  0  0  0  0  0  0  0  0  0  0
   37.8156   15.2485   -3.3739 C   0  0  0  0  0  0  0  0  0  0  0  0
   39.1539   15.5316   -3.5862 C   0  0  0  0  0  0  0  0  0  0  0  0
   39.5466   16.2726   -4.6802 C   0  0  0  0  0  0  0  0  0  0  0  0
   38.5635   16.7131   -5.5412 C   0  0  0  0  0  0  0  0  0  0  0  0
   37.2272   16.4382   -5.3414 C   0  0  0  0  0  0  0  0  0  0  0  0
   35.0705   14.5777   -4.4292 H   0  0  0  0  0  0  0  0  0  0  0  0
   41.4774   14.4732   -6.1171 C   0  0  0  0  0  0  0  0  0  0  0  0
   41.5467   13.3401   -5.3470 C   0  0  0  0  0  0  0  0  0  0  0  0
   41.1727   12.0959   -5.8173 C   0  0  0  0  0  0  0  0  0  0  0  0
   40.7099   12.0257   -7.1356 C   0  0  0  0  0  0  0  0  0  0  0  0
   40.6239   13.1394   -7.9448 C   0  0  0  0  0  0  0  0  0  0  0  0
   41.0140   14.3481   -7.4095 C   0  0  0  0  0  0  0  0  0  0  0  0
   44.7286   19.4764   -4.5847 C   0  0  0  0  0  0  0  0  0  0  0  0
   44.3454   20.6344   -5.2816 N   0  0  0  0  0  0  0  0  0  0  0  0
   45.1618   19.5826   -3.4139 O   0  0  0  0  0  0  0  0  0  0  0  0
   43.3203   20.8566   -5.4012 H   0  0  0  0  0  0  0  0  0  0  0  0
   45.0081   21.3179   -5.7053 H   0  0  0  0  0  0  0  0  0  0  0  0
   46.6126   15.6215   -6.9888 N   0  0  0  0  0  0  0  0  0  0  0  0
   47.5762   15.6984   -6.6031 H   0  0  0  0  0  0  0  0  0  0  0  0
   46.3820   14.8293   -8.1482 C   0  0  0  0  0  0  0  0  0  0  0  0
   46.8985   13.4217   -7.9593 C   0  0  0  0  0  0  0  0  0  0  0  0
   46.5658   12.9277   -6.6908 O   0  0  0  0  0  0  0  0  0  0  0  0
   47.3823   12.7952   -6.1291 H   0  0  0  0  0  0  0  0  0  0  0  0
 10 11  1  0  0  0
 11 12  2  0  0  0
 12 13  1  0  0  0
 13 14  2  0  0  0
 14 15  1  0  0  0
 15 16  2  0  0  0
 14  1  1  0  0  0
  1  2  1  0  0  0
  2  3  1  0  0  0
  3  4  2  0  0  0
  4  5  1  0  0  0
  5  6  2  0  0  0
  6 29  1  0  0  0
 29 31  1  0  0  0
 31 32  1  0  0  0
 32 33  1  0  0  0
  6  7  1  0  0  0
  7  8  2  0  0  0
  8  9  1  0  0  0
  9 18  1  0  0  0
 18 19  2  0  0  0
 19 20  1  0  0  0
 20 21  2  0  0  0
 21 22  1  0  0  0
 22 23  2  0  0  0
  4 24  1  0  0  0
 24 25  1  0  0  0
 24 26  2  0  0  0
 16 11  1  0  0  0
  9  1  2  0  0  0
 23 18  1  0  0  0
  8  3  1  0  0  0
 10 17  1  0  0  0
 29 30  1  0  0  0
 33 34  1  0  0  0
 25 27  1  0  0  0
 25 28  1  0  0  0
M  END
> <minimizedAffinity>
-3.03845

> <CNNscore>
0.5282397866

> <CNNaffinity>
5.5339484215

> <CNN_VS>
2.9232516289

> <CNNaffinity_variance>
1.0430244207

$$$$
[H]Oc1c([H])c([H])c(-c2sc3c(C(=O)N([H])[H])c([H])c(N([H])C([H])([H])C([H])([H])O[H])c([H])c3c2-c2c([H])c([H])c([H])c([H])c2[H])c([H])c1[H]


 34 37  0  0  0  0  0  0  0  0999 V2000
   44.5963   14.8136   -9.8762 C   0  0  0  0  0  0  0  0  0  0  0  0
   43.1541   14.1230   -9.2955 S   0  0  0  0  0  0  0  0  0  0  0  0
   43.6236   13.8395   -7.6776 C   0  0  0  0  0  0  0  0  0  0  0  0
   42.9731   13.2870   -6.5638 C   0  0  0  0  0  0  0  0  0  0  0  0
   43.6396   13.1858   -5.3444 C   0  0  0  0  0  0  0  0  0  0  0  0
   44.9324   13.6393   -5.2797 C   0  0  0  0  0  0  0  0  0  0  0  0
   45.5378   14.1722   -6.3805 C   0  0  0  0  0  0  0  0  0  0  0  0
   44.9050   14.2958   -7.6345 C   0  0  0  0  0  0  0  0  0  0  0  0
   45.4192   14.8088   -8.7898 C   0  0  0  0  0  0  0  0  0  0  0  0
   45.7792   16.7952  -15.0665 O   0  0  0  0  0  0  0  0  0  0  0  0
   45.4949   16.2933  -13.7936 C   0  0  0  0  0  0  0  0  0  0  0  0
   45.8347   15.0070  -13.4340 C   0  0  0  0  0  0  0  0  0  0  0  0
   45.5493   14.5179  -12.1708 C   0  0  0  0  0  0  0  0  0  0  0  0
   44.9149   15.3129  -11.2404 C   0  0  0  0  0  0  0  0  0  0  0  0
   44.5819   16.5971  -11.6165 C   0  0  0  0  0  0  0  0  0  0  0  0
   44.8604   17.0966  -12.8712 C   0  0  0  0  0  0  0  0  0  0  0  0
   46.6599   17.2666  -15.2540 H   0  0  0  0  0  0  0  0  0  0  0  0
   46.8138   15.3534   -8.9117 C   0  0  0  0  0  0  0  0  0  0  0  0
   47.8688   14.5454   -9.2519 C   0  0  0  0  0  0  0  0  0  0  0  0
   49.1613   15.0187   -9.3714 C   0  0  0  0  0  0  0  0  0  0  0  0
   49.3659   16.3811   -9.1286 C   0  0  0  0  0  0  0  0  0  0  0  0
   48.3343   17.2296   -8.7841 C   0  0  0  0  0  0  0  0  0  0  0  0
   47.0707   16.6885   -8.6832 C   0  0  0  0  0  0  0  0  0  0  0  0
   41.6200   12.8439   -6.7488 C   0  0  0  0  0  0  0  0  0  0  0  0
   41.3409   11.5694   -7.2696 N   0  0  0  0  0  0  0  0  0  0  0  0
   40.6699   13.6009   -6.4427 O   0  0  0  0  0  0  0  0  0  0  0  0
   41.4511   10.7185   -6.6545 H   0  0  0  0  0  0  0  0  0  0  0  0
   41.0227   11.3839   -8.2443 H   0  0  0  0  0  0  0  0  0  0  0  0
   45.6625   13.5312   -4.0328 N   0  0  0  0  0  0  0  0  0  0  0  0
   45.2383   13.8534   -3.1387 H   0  0  0  0  0  0  0  0  0  0  0  0
   46.9741   12.9795   -4.0285 C   0  0  0  0  0  0  0  0  0  0  0  0
   46.9377   11.4828   -4.2336 C   0  0  0  0  0  0  0  0  0  0  0  0
   45.9971   10.8799   -3.3877 O   0  0  0  0  0  0  0  0  0  0  0  0
   46.4432   10.2986   -2.7074 H   0  0  0  0  0  0  0  0  0  0  0  0
 10 11  1  0  0  0
 11 12  2  0  0  0
 12 13  1  0  0  0
 13 14  2  0  0  0
 14 15  1  0  0  0
 15 16  2  0  0  0
 14  1  1  0  0  0
  1  2  1  0  0  0
  2  3  1  0  0  0
  3  4  2  0  0  0
  4  5  1  0  0  0
  5  6  2  0  0  0
  6 29  1  0  0  0
 29 31  1  0  0  0
 31 32  1  0  0  0
 32 33  1  0  0  0
  6  7  1  0  0  0
  7  8  2  0  0  0
  8  9  1  0  0  0
  9 18  1  0  0  0
 18 19  2  0  0  0
 19 20  1  0  0  0
 20 21  2  0  0  0
 21 22  1  0  0  0
 22 23  2  0  0  0
  4 24  1  0  0  0
 24 25  1  0  0  0
 24 26  2  0  0  0
 16 11  1  0  0  0
  9  1  2  0  0  0
 23 18  1  0  0  0
  8  3  1  0  0  0
 10 17  1  0  0  0
 29 30  1  0  0  0
 33 34  1  0  0  0
 25 27  1  0  0  0
 25 28  1  0  0  0
M  END
> <minimizedAffinity>
-3.58600

> <CNNscore>
0.5196611285

> <CNNaffinity>
5.4463496208

> <CNN_VS>
2.8302562237

> <CNNaffinity_variance>
1.1066424847

$$$$
[H]Oc1c([H])c([H])c(-c2sc3c(C(=O)N([H])[H])c([H])c(N([H])C([H])([H])C([H])([H])O[H])c([H])c3c2-c2c([H])c([H])c([H])c([H])c2[H])c([H])c1[H]


 34 37  0  0  0  0  0  0  0  0999 V2000
   44.1259   15.2207  -10.7842 C   0  0  0  0  0  0  0  0  0  0  0  0
   42.5397   15.5091  -11.3274 S   0  0  0  0  0  0  0  0  0  0  0  0
   41.7774   15.7487   -9.8175 C   0  0  0  0  0  0  0  0  0  0  0  0
   40.4583   16.0349   -9.4341 C   0  0  0  0  0  0  0  0  0  0  0  0
   40.1374   16.1749   -8.0855 C   0  0  0  0  0  0  0  0  0  0  0  0
   41.1445   16.0237   -7.1667 C   0  0  0  0  0  0  0  0  0  0  0  0
   42.4180   15.7460   -7.5710 C   0  0  0  0  0  0  0  0  0  0  0  0
   42.7911   15.5957   -8.9225 C   0  0  0  0  0  0  0  0  0  0  0  0
   44.0276   15.3179   -9.4283 C   0  0  0  0  0  0  0  0  0  0  0  0
   48.8199   14.1857  -13.8108 O   0  0  0  0  0  0  0  0  0  0  0  0
   47.6619   14.4242  -13.0657 C   0  0  0  0  0  0  0  0  0  0  0  0
   46.8484   13.3929  -12.6488 C   0  0  0  0  0  0  0  0  0  0  0  0
   45.7030   13.6383  -11.9110 C   0  0  0  0  0  0  0  0  0  0  0  0
   45.3504   14.9281  -11.5760 C   0  0  0  0  0  0  0  0  0  0  0  0
   46.1753   15.9481  -12.0010 C   0  0  0  0  0  0  0  0  0  0  0  0
   47.3188   15.7175  -12.7363 C   0  0  0  0  0  0  0  0  0  0  0  0
   49.7121   14.0317  -13.3489 H   0  0  0  0  0  0  0  0  0  0  0  0
   45.2506   15.1207   -8.5788 C   0  0  0  0  0  0  0  0  0  0  0  0
   45.5967   13.8819   -8.1021 C   0  0  0  0  0  0  0  0  0  0  0  0
   46.7153   13.6710   -7.3190 C   0  0  0  0  0  0  0  0  0  0  0  0
   47.5034   14.7874   -7.0199 C   0  0  0  0  0  0  0  0  0  0  0  0
   47.1926   16.0508   -7.4781 C   0  0  0  0  0  0  0  0  0  0  0  0
   46.0619   16.1871   -8.2543 C   0  0  0  0  0  0  0  0  0  0  0  0
   39.4863   16.1703  -10.4821 C   0  0  0  0  0  0  0  0  0  0  0  0
   38.9260   15.0398  -11.0997 N   0  0  0  0  0  0  0  0  0  0  0  0
   39.1285   17.3114  -10.8555 O   0  0  0  0  0  0  0  0  0  0  0  0
   38.1860   14.4818  -10.5943 H   0  0  0  0  0  0  0  0  0  0  0  0
   39.1858   14.6917  -12.0469 H   0  0  0  0  0  0  0  0  0  0  0  0
   40.8428   16.1427   -5.7546 N   0  0  0  0  0  0  0  0  0  0  0  0
   40.0495   15.6162   -5.3343 H   0  0  0  0  0  0  0  0  0  0  0  0
   41.6380   16.9885   -4.9318 C   0  0  0  0  0  0  0  0  0  0  0  0
   41.3835   18.4459   -5.2395 C   0  0  0  0  0  0  0  0  0  0  0  0
   42.4977   19.0346   -5.8526 O   0  0  0  0  0  0  0  0  0  0  0  0
   42.9150   19.7229   -5.2593 H   0  0  0  0  0  0  0  0  0  0  0  0
 10 11  1  0  0  0
 11 12  2  0  0  0
 12 13  1  0  0  0
 13 14  2  0  0  0
 14 15  1  0  0  0
 15 16  2  0  0  0
 14  1  1  0  0  0
  1  2  1  0  0  0
  2  3  1  0  0  0
  3  4  2  0  0  0
  4  5  1  0  0  0
  5  6  2  0  0  0
  6 29  1  0  0  0
 29 31  1  0  0  0
 31 32  1  0  0  0
 32 33  1  0  0  0
  6  7  1  0  0  0
  7  8  2  0  0  0
  8  9  1  0  0  0
  9 18  1  0  0  0
 18 19  2  0  0  0
 19 20  1  0  0  0
 20 21  2  0  0  0
 21 22  1  0  0  0
 22 23  2  0  0  0
  4 24  1  0  0  0
 24 25  1  0  0  0
 24 26  2  0  0  0
 16 11  1  0  0  0
  9  1  2  0  0  0
 23 18  1  0  0  0
  8  3  1  0  0  0
 10 17  1  0  0  0
 29 30  1  0  0  0
 33 34  1  0  0  0
 25 27  1  0  0  0
 25 28  1  0  0  0
M  END
> <minimizedAffinity>
-4.00718

> <CNNscore>
0.4387626946

> <CNNaffinity>
5.4583320618

> <CNN_VS>
2.3949124813

> <CNNaffinity_variance>
0.7171607018

$$$$
[H]Oc1c([H])c([H])c(-c2sc3c(C(=O)N([H])[H])c([H])c(N([H])C([H])([H])C([H])([H])O[H])c([H])c3c2-c2c([H])c([H])c([H])c([H])c2[H])c([H])c1[H]


 34 37  0  0  0  0  0  0  0  0999 V2000
   39.8639   13.6763  -14.7723 C   0  0  0  0  0  0  0  0  0  0  0  0
   41.2600   14.4220  -14.1485 S   0  0  0  0  0  0  0  0  0  0  0  0
   40.5745   15.1702  -12.7742 C   0  0  0  0  0  0  0  0  0  0  0  0
   41.0956   15.9750  -11.7496 C   0  0  0  0  0  0  0  0  0  0  0  0
   40.2603   16.4480  -10.7396 C   0  0  0  0  0  0  0  0  0  0  0  0
   38.9342   16.1015  -10.7880 C   0  0  0  0  0  0  0  0  0  0  0  0
   38.4575   15.3167  -11.7976 C   0  0  0  0  0  0  0  0  0  0  0  0
   39.2626   14.8143  -12.8404 C   0  0  0  0  0  0  0  0  0  0  0  0
   38.8861   14.0285  -13.8905 C   0  0  0  0  0  0  0  0  0  0  0  0
   39.3399   10.5154  -19.4626 O   0  0  0  0  0  0  0  0  0  0  0  0
   39.4591   11.2826  -18.3006 C   0  0  0  0  0  0  0  0  0  0  0  0
   38.8287   10.9197  -17.1300 C   0  0  0  0  0  0  0  0  0  0  0  0
   38.9523   11.6856  -15.9834 C   0  0  0  0  0  0  0  0  0  0  0  0
   39.7136   12.8348  -15.9892 C   0  0  0  0  0  0  0  0  0  0  0  0
   40.3374   13.1833  -17.1686 C   0  0  0  0  0  0  0  0  0  0  0  0
   40.2227   12.4295  -18.3175 C   0  0  0  0  0  0  0  0  0  0  0  0
   39.9980    9.7665  -19.6602 H   0  0  0  0  0  0  0  0  0  0  0  0
   37.4799   13.5481  -14.1098 C   0  0  0  0  0  0  0  0  0  0  0  0
   36.6086   14.2342  -14.9171 C   0  0  0  0  0  0  0  0  0  0  0  0
   35.3102   13.8159  -15.1369 C   0  0  0  0  0  0  0  0  0  0  0  0
   34.9016   12.6422  -14.4948 C   0  0  0  0  0  0  0  0  0  0  0  0
   35.7444   11.9211  -13.6748 C   0  0  0  0  0  0  0  0  0  0  0  0
   37.0260   12.3973  -13.5010 C   0  0  0  0  0  0  0  0  0  0  0  0
   42.4986   16.2748  -11.8016 C   0  0  0  0  0  0  0  0  0  0  0  0
   43.4022   15.6647  -10.9157 N   0  0  0  0  0  0  0  0  0  0  0  0
   42.9295   17.0920  -12.6479 O   0  0  0  0  0  0  0  0  0  0  0  0
   43.6920   14.6619  -11.0740 H   0  0  0  0  0  0  0  0  0  0  0  0
   43.8270   16.1320  -10.0869 H   0  0  0  0  0  0  0  0  0  0  0  0
   38.0330   16.5923   -9.7651 N   0  0  0  0  0  0  0  0  0  0  0  0
   37.0703   16.2071   -9.6754 H   0  0  0  0  0  0  0  0  0  0  0  0
   38.4666   17.6125   -8.8730 C   0  0  0  0  0  0  0  0  0  0  0  0
   37.7989   18.9316   -9.1859 C   0  0  0  0  0  0  0  0  0  0  0  0
   37.4938   19.0320  -10.5500 O   0  0  0  0  0  0  0  0  0  0  0  0
   38.0390   19.7450  -10.9906 H   0  0  0  0  0  0  0  0  0  0  0  0
 10 11  1  0  0  0
 11 12  2  0  0  0
 12 13  1  0  0  0
 13 14  2  0  0  0
 14 15  1  0  0  0
 15 16  2  0  0  0
 14  1  1  0  0  0
  1  2  1  0  0  0
  2  3  1  0  0  0
  3  4  2  0  0  0
  4  5  1  0  0  0
  5  6  2  0  0  0
  6 29  1  0  0  0
 29 31  1  0  0  0
 31 32  1  0  0  0
 32 33  1  0  0  0
  6  7  1  0  0  0
  7  8  2  0  0  0
  8  9  1  0  0  0
  9 18  1  0  0  0
 18 19  2  0  0  0
 19 20  1  0  0  0
 20 21  2  0  0  0
 21 22  1  0  0  0
 22 23  2  0  0  0
  4 24  1  0  0  0
 24 25  1  0  0  0
 24 26  2  0  0  0
 16 11  1  0  0  0
  9  1  2  0  0  0
 23 18  1  0  0  0
  8  3  1  0  0  0
 10 17  1  0  0  0
 29 30  1  0  0  0
 33 34  1  0  0  0
 25 27  1  0  0  0
 25 28  1  0  0  0
M  END
> <minimizedAffinity>
-8.34706

> <CNNscore>
0.4082148969

> <CNNaffinity>
6.3819265366

> <CNN_VS>
2.6051974297

> <CNNaffinity_variance>
0.0911384523

$$$$
[H]Oc1c([H])c([H])c(-c2sc3c(C(=O)N([H])[H])c([H])c(N([H])C([H])([H])C([H])([H])O[H])c([H])c3c2-c2c([H])c([H])c([H])c([H])c2[H])c([H])c1[H]


 34 37  0  0  0  0  0  0  0  0999 V2000
   38.0287   14.0793  -13.7669 C   0  0  0  0  0  0  0  0  0  0  0  0
   38.5723   15.1768  -12.5862 S   0  0  0  0  0  0  0  0  0  0  0  0
   37.0928   15.4602  -11.7805 C   0  0  0  0  0  0  0  0  0  0  0  0
   36.7238   16.2587  -10.6872 C   0  0  0  0  0  0  0  0  0  0  0  0
   35.3998   16.2807  -10.2534 C   0  0  0  0  0  0  0  0  0  0  0  0
   34.4905   15.5053  -10.9266 C   0  0  0  0  0  0  0  0  0  0  0  0
   34.8804   14.7389  -11.9862 C   0  0  0  0  0  0  0  0  0  0  0  0
   36.2068   14.6834  -12.4614 C   0  0  0  0  0  0  0  0  0  0  0  0
   36.6965   13.9558  -13.5068 C   0  0  0  0  0  0  0  0  0  0  0  0
   41.0127   11.5555  -17.8889 O   0  0  0  0  0  0  0  0  0  0  0  0
   40.2709   12.1622  -16.8718 C   0  0  0  0  0  0  0  0  0  0  0  0
   39.3455   11.4550  -16.1351 C   0  0  0  0  0  0  0  0  0  0  0  0
   38.6149   12.0640  -15.1292 C   0  0  0  0  0  0  0  0  0  0  0  0
   38.7994   13.3995  -14.8420 C   0  0  0  0  0  0  0  0  0  0  0  0
   39.7290   14.0923  -15.5886 C   0  0  0  0  0  0  0  0  0  0  0  0
   40.4632   13.4979  -16.5930 C   0  0  0  0  0  0  0  0  0  0  0  0
   41.9091   11.1203  -17.6891 H   0  0  0  0  0  0  0  0  0  0  0  0
   35.8541   13.0499  -14.3589 C   0  0  0  0  0  0  0  0  0  0  0  0
   34.8847   12.2501  -13.8090 C   0  0  0  0  0  0  0  0  0  0  0  0
   34.0953   11.4076  -14.5679 C   0  0  0  0  0  0  0  0  0  0  0  0
   34.3207   11.3951  -15.9485 C   0  0  0  0  0  0  0  0  0  0  0  0
   35.2844   12.1827  -16.5432 C   0  0  0  0  0  0  0  0  0  0  0  0
   36.0349   12.9989  -15.7246 C   0  0  0  0  0  0  0  0  0  0  0  0
   37.7597   17.0301  -10.0603 C   0  0  0  0  0  0  0  0  0  0  0  0
   38.5601   16.4778   -9.0465 N   0  0  0  0  0  0  0  0  0  0  0  0
   37.9575   18.2141  -10.4188 O   0  0  0  0  0  0  0  0  0  0  0  0
   39.3285   15.7994   -9.2992 H   0  0  0  0  0  0  0  0  0  0  0  0
   38.4585   16.6870   -8.0307 H   0  0  0  0  0  0  0  0  0  0  0  0
   33.1013   15.5194  -10.5153 N   0  0  0  0  0  0  0  0  0  0  0  0
   32.8408   15.3805   -9.5172 H   0  0  0  0  0  0  0  0  0  0  0  0
   32.0802   15.7243  -11.4850 C   0  0  0  0  0  0  0  0  0  0  0  0
   30.8954   14.8219  -11.2294 C   0  0  0  0  0  0  0  0  0  0  0  0
   30.5966   14.0486  -12.3593 O   0  0  0  0  0  0  0  0  0  0  0  0
   29.7131   14.3063  -12.7503 H   0  0  0  0  0  0  0  0  0  0  0  0
 10 11  1  0  0  0
 11 12  2  0  0  0
 12 13  1  0  0  0
 13 14  2  0  0  0
 14 15  1  0  0  0
 15 16  2  0  0  0
 14  1  1  0  0  0
  1  2  1  0  0  0
  2  3  1  0  0  0
  3  4  2  0  0  0
  4  5  1  0  0  0
  5  6  2  0  0  0
  6 29  1  0  0  0
 29 31  1  0  0  0
 31 32  1  0  0  0
 32 33  1  0  0  0
  6  7  1  0  0  0
  7  8  2  0  0  0
  8  9  1  0  0  0
  9 18  1  0  0  0
 18 19  2  0  0  0
 19 20  1  0  0  0
 20 21  2  0  0  0
 21 22  1  0  0  0
 22 23  2  0  0  0
  4 24  1  0  0  0
 24 25  1  0  0  0
 24 26  2  0  0  0
 16 11  1  0  0  0
  9  1  2  0  0  0
 23 18  1  0  0  0
  8  3  1  0  0  0
 10 17  1  0  0  0
 29 30  1  0  0  0
 33 34  1  0  0  0
 25 27  1  0  0  0
 25 28  1  0  0  0
M  END
> <minimizedAffinity>
-8.65062

> <CNNscore>
0.3719994724

> <CNNaffinity>
6.5136160851

> <CNN_VS>
2.4230618477

> <CNNaffinity_variance>
0.0334827974

$$$$
[H]Oc1c([H])c([H])c(-c2sc3c(C(=O)N([H])[H])c([H])c(N([H])C([H])([H])C([H])([H])O[H])c([H])c3c2-c2c([H])c([H])c([H])c([H])c2[H])c([H])c1[H]


 34 37  0  0  0  0  0  0  0  0999 V2000
   39.5997   15.5879   -8.7028 C   0  0  0  0  0  0  0  0  0  0  0  0
   38.5770   15.4811  -10.0581 S   0  0  0  0  0  0  0  0  0  0  0  0
   37.1055   15.9402   -9.3219 C   0  0  0  0  0  0  0  0  0  0  0  0
   35.7928   16.0909   -9.7943 C   0  0  0  0  0  0  0  0  0  0  0  0
   34.7787   16.4881   -8.9252 C   0  0  0  0  0  0  0  0  0  0  0  0
   35.1105   16.7205   -7.6148 C   0  0  0  0  0  0  0  0  0  0  0  0
   36.3966   16.5657   -7.1856 C   0  0  0  0  0  0  0  0  0  0  0  0
   37.4557   16.1664   -8.0264 C   0  0  0  0  0  0  0  0  0  0  0  0
   38.7673   15.9818   -7.6980 C   0  0  0  0  0  0  0  0  0  0  0  0
   45.1581   14.4908   -8.2956 O   0  0  0  0  0  0  0  0  0  0  0  0
   43.7941   14.7753   -8.4025 C   0  0  0  0  0  0  0  0  0  0  0  0
   43.3457   15.9603   -8.9447 C   0  0  0  0  0  0  0  0  0  0  0  0
   41.9925   16.2340   -9.0468 C   0  0  0  0  0  0  0  0  0  0  0  0
   41.0594   15.3204   -8.6052 C   0  0  0  0  0  0  0  0  0  0  0  0
   41.5251   14.1400   -8.0654 C   0  0  0  0  0  0  0  0  0  0  0  0
   42.8699   13.8550   -7.9579 C   0  0  0  0  0  0  0  0  0  0  0  0
   45.6503   14.0169   -9.0479 H   0  0  0  0  0  0  0  0  0  0  0  0
   39.3174   16.1888   -6.3157 C   0  0  0  0  0  0  0  0  0  0  0  0
   39.2523   15.2011   -5.3660 C   0  0  0  0  0  0  0  0  0  0  0  0
   39.7499   15.3634   -4.0872 C   0  0  0  0  0  0  0  0  0  0  0  0
   40.3364   16.5965   -3.7835 C   0  0  0  0  0  0  0  0  0  0  0  0
   40.4231   17.6170   -4.7077 C   0  0  0  0  0  0  0  0  0  0  0  0
   39.9058   17.3849   -5.9639 C   0  0  0  0  0  0  0  0  0  0  0  0
   35.5619   15.8189  -11.1850 C   0  0  0  0  0  0  0  0  0  0  0  0
   35.9588   16.7316  -12.1764 N   0  0  0  0  0  0  0  0  0  0  0  0
   34.9985   14.7529  -11.5255 O   0  0  0  0  0  0  0  0  0  0  0  0
   36.9780   16.8037  -12.4418 H   0  0  0  0  0  0  0  0  0  0  0  0
   35.3121   17.3659  -12.6914 H   0  0  0  0  0  0  0  0  0  0  0  0
   34.0773   17.1154   -6.6788 N   0  0  0  0  0  0  0  0  0  0  0  0
   33.8730   16.5378   -5.8376 H   0  0  0  0  0  0  0  0  0  0  0  0
   33.3323   18.3054   -6.9109 C   0  0  0  0  0  0  0  0  0  0  0  0
   34.1190   19.5301   -6.5051 C   0  0  0  0  0  0  0  0  0  0  0  0
   33.7314   20.6500   -7.2531 O   0  0  0  0  0  0  0  0  0  0  0  0
   34.4702   20.9573   -7.8527 H   0  0  0  0  0  0  0  0  0  0  0  0
 10 11  1  0  0  0
 11 12  2  0  0  0
 12 13  1  0  0  0
 13 14  2  0  0  0
 14 15  1  0  0  0
 15 16  2  0  0  0
 14  1  1  0  0  0
  1  2  1  0  0  0
  2  3  1  0  0  0
  3  4  2  0  0  0
  4  5  1  0  0  0
  5  6  2  0  0  0
  6 29  1  0  0  0
 29 31  1  0  0  0
 31 32  1  0  0  0
 32 33  1  0  0  0
  6  7  1  0  0  0
  7  8  2  0  0  0
  8  9  1  0  0  0
  9 18  1  0  0  0
 18 19  2  0  0  0
 19 20  1  0  0  0
 20 21  2  0  0  0
 21 22  1  0  0  0
 22 23  2  0  0  0
  4 24  1  0  0  0
 24 25  1  0  0  0
 24 26  2  0  0  0
 16 11  1  0  0  0
  9  1  2  0  0  0
 23 18  1  0  0  0
  8  3  1  0  0  0
 10 17  1  0  0  0
 29 30  1  0  0  0
 33 34  1  0  0  0
 25 27  1  0  0  0
 25 28  1  0  0  0
M  END
> <minimizedAffinity>
-4.77430

> <CNNscore>
0.3621079922

> <CNNaffinity>
5.5070605278

> <CNN_VS>
1.9941506386

> <CNNaffinity_variance>
0.4672855735

$$$$
[H]Oc1c([H])c([H])c(-c2sc3c(C(=O)N([H])[H])c([H])c(N([H])C([H])([H])C([H])([H])O[H])c([H])c3c2-c2c([H])c([H])c([H])c([H])c2[H])c([H])c1[H]


 34 37  0  0  0  0  0  0  0  0999 V2000
   38.9443   14.7079  -13.1168 C   0  0  0  0  0  0  0  0  0  0  0  0
   40.5966   14.7673  -13.5177 S   0  0  0  0  0  0  0  0  0  0  0  0
   40.6024   13.6422  -14.8032 C   0  0  0  0  0  0  0  0  0  0  0  0
   41.6048   13.1468  -15.6510 C   0  0  0  0  0  0  0  0  0  0  0  0
   41.2899   12.2076  -16.6309 C   0  0  0  0  0  0  0  0  0  0  0  0
   39.9854   11.7956  -16.7299 C   0  0  0  0  0  0  0  0  0  0  0  0
   39.0329   12.2964  -15.8907 C   0  0  0  0  0  0  0  0  0  0  0  0
   39.3027   13.2473  -14.8851 C   0  0  0  0  0  0  0  0  0  0  0  0
   38.4283   13.8064  -13.9992 C   0  0  0  0  0  0  0  0  0  0  0  0
   36.2012   17.5421   -9.0293 O   0  0  0  0  0  0  0  0  0  0  0  0
   36.8625   16.8452  -10.0442 C   0  0  0  0  0  0  0  0  0  0  0  0
   36.2328   16.5272  -11.2281 C   0  0  0  0  0  0  0  0  0  0  0  0
   36.8956   15.8367  -12.2283 C   0  0  0  0  0  0  0  0  0  0  0  0
   38.2080   15.4503  -12.0593 C   0  0  0  0  0  0  0  0  0  0  0  0
   38.8229   15.7765  -10.8689 C   0  0  0  0  0  0  0  0  0  0  0  0
   38.1744   16.4638   -9.8648 C   0  0  0  0  0  0  0  0  0  0  0  0
   36.2229   18.5577   -8.9974 H   0  0  0  0  0  0  0  0  0  0  0  0
   36.9626   13.4804  -13.9563 C   0  0  0  0  0  0  0  0  0  0  0  0
   36.4718   12.5059  -13.1249 C   0  0  0  0  0  0  0  0  0  0  0  0
   35.1293   12.1849  -13.0645 C   0  0  0  0  0  0  0  0  0  0  0  0
   34.2646   12.9022  -13.8981 C   0  0  0  0  0  0  0  0  0  0  0  0
   34.7150   13.8900  -14.7492 C   0  0  0  0  0  0  0  0  0  0  0  0
   36.0671   14.1569  -14.7570 C   0  0  0  0  0  0  0  0  0  0  0  0
   42.9356   13.6487  -15.4549 C   0  0  0  0  0  0  0  0  0  0  0  0
   43.8427   13.7311  -16.5245 N   0  0  0  0  0  0  0  0  0  0  0  0
   43.2989   14.0204  -14.3150 O   0  0  0  0  0  0  0  0  0  0  0  0
   43.7417   14.5042  -17.2362 H   0  0  0  0  0  0  0  0  0  0  0  0
   44.6349   13.0728  -16.6820 H   0  0  0  0  0  0  0  0  0  0  0  0
   39.6259   10.8051  -17.7244 N   0  0  0  0  0  0  0  0  0  0  0  0
   40.3341   10.1337  -18.0863 H   0  0  0  0  0  0  0  0  0  0  0  0
   38.2909   10.7483  -18.2135 C   0  0  0  0  0  0  0  0  0  0  0  0
   38.2612   10.7736  -19.7241 C   0  0  0  0  0  0  0  0  0  0  0  0
   39.4247   11.3579  -20.2424 O   0  0  0  0  0  0  0  0  0  0  0  0
   39.2219   12.2252  -20.6967 H   0  0  0  0  0  0  0  0  0  0  0  0
 10 11  1  0  0  0
 11 12  2  0  0  0
 12 13  1  0  0  0
 13 14  2  0  0  0
 14 15  1  0  0  0
 15 16  2  0  0  0
 14  1  1  0  0  0
  1  2  1  0  0  0
  2  3  1  0  0  0
  3  4  2  0  0  0
  4  5  1  0  0  0
  5  6  2  0  0  0
  6 29  1  0  0  0
 29 31  1  0  0  0
 31 32  1  0  0  0
 32 33  1  0  0  0
  6  7  1  0  0  0
  7  8  2  0  0  0
  8  9  1  0  0  0
  9 18  1  0  0  0
 18 19  2  0  0  0
 19 20  1  0  0  0
 20 21  2  0  0  0
 21 22  1  0  0  0
 22 23  2  0  0  0
  4 24  1  0  0  0
 24 25  1  0  0  0
 24 26  2  0  0  0
 16 11  1  0  0  0
  9  1  2  0  0  0
 23 18  1  0  0  0
  8  3  1  0  0  0
 10 17  1  0  0  0
 29 30  1  0  0  0
 33 34  1  0  0  0
 25 27  1  0  0  0
 25 28  1  0  0  0
M  END
> <minimizedAffinity>
-8.67606

> <CNNscore>
0.3197884262

> <CNNaffinity>
6.5871291161

> <CNN_VS>
2.1064877510

> <CNNaffinity_variance>
0.0898899585

$$$$
[H]Oc1c([H])c([H])c(-c2sc3c(C(=O)N([H])[H])c([H])c(N([H])C([H])([H])C([H])([H])O[H])c([H])c3c2-c2c([H])c([H])c([H])c([H])c2[H])c([H])c1[H]


 34 37  0  0  0  0  0  0  0  0999 V2000
   41.4276   13.9967  -14.2910 C   0  0  0  0  0  0  0  0  0  0  0  0
   41.1534   14.8527  -12.8466 S   0  0  0  0  0  0  0  0  0  0  0  0
   39.4457   14.8881  -12.8746 C   0  0  0  0  0  0  0  0  0  0  0  0
   38.4747   15.4236  -12.0147 C   0  0  0  0  0  0  0  0  0  0  0  0
   37.1216   15.2884  -12.3183 C   0  0  0  0  0  0  0  0  0  0  0  0
   36.7851   14.6237  -13.4700 C   0  0  0  0  0  0  0  0  0  0  0  0
   37.7528   14.1136  -14.2858 C   0  0  0  0  0  0  0  0  0  0  0  0
   39.1333   14.2248  -14.0211 C   0  0  0  0  0  0  0  0  0  0  0  0
   40.1741   13.7548  -14.7681 C   0  0  0  0  0  0  0  0  0  0  0  0
   46.3929   12.5152  -16.6182 O   0  0  0  0  0  0  0  0  0  0  0  0
   45.1637   12.8684  -16.0549 C   0  0  0  0  0  0  0  0  0  0  0  0
   43.9946   12.2393  -16.4244 C   0  0  0  0  0  0  0  0  0  0  0  0
   42.7812   12.5955  -15.8612 C   0  0  0  0  0  0  0  0  0  0  0  0
   42.7172   13.5938  -14.9127 C   0  0  0  0  0  0  0  0  0  0  0  0
   43.8961   14.2129  -14.5545 C   0  0  0  0  0  0  0  0  0  0  0  0
   45.1111   13.8677  -15.1076 C   0  0  0  0  0  0  0  0  0  0  0  0
   46.9690   11.7920  -16.1962 H   0  0  0  0  0  0  0  0  0  0  0  0
   40.0021   13.0030  -16.0571 C   0  0  0  0  0  0  0  0  0  0  0  0
   40.3802   13.5482  -17.2577 C   0  0  0  0  0  0  0  0  0  0  0  0
   40.2340   12.8801  -18.4582 C   0  0  0  0  0  0  0  0  0  0  0  0
   39.6745   11.5988  -18.4104 C   0  0  0  0  0  0  0  0  0  0  0  0
   39.2805   11.0124  -17.2255 C   0  0  0  0  0  0  0  0  0  0  0  0
   39.4560   11.7371  -16.0664 C   0  0  0  0  0  0  0  0  0  0  0  0
   38.9432   16.1003  -10.8384 C   0  0  0  0  0  0  0  0  0  0  0  0
   39.4408   15.3805   -9.7394 N   0  0  0  0  0  0  0  0  0  0  0  0
   38.9103   17.3517  -10.7855 O   0  0  0  0  0  0  0  0  0  0  0  0
   40.4079   14.9598   -9.7855 H   0  0  0  0  0  0  0  0  0  0  0  0
   38.9204   15.2202   -8.8509 H   0  0  0  0  0  0  0  0  0  0  0  0
   35.3881   14.4820  -13.8271 N   0  0  0  0  0  0  0  0  0  0  0  0
   34.6627   15.0835  -13.3853 H   0  0  0  0  0  0  0  0  0  0  0  0
   35.0014   13.5100  -14.7917 C   0  0  0  0  0  0  0  0  0  0  0  0
   33.7749   12.7511  -14.3408 C   0  0  0  0  0  0  0  0  0  0  0  0
   32.7477   13.6279  -13.9669 O   0  0  0  0  0  0  0  0  0  0  0  0
   32.5620   13.5695  -12.9861 H   0  0  0  0  0  0  0  0  0  0  0  0
 10 11  1  0  0  0
 11 12  2  0  0  0
 12 13  1  0  0  0
 13 14  2  0  0  0
 14 15  1  0  0  0
 15 16  2  0  0  0
 14  1  1  0  0  0
  1  2  1  0  0  0
  2  3  1  0  0  0
  3  4  2  0  0  0
  4  5  1  0  0  0
  5  6  2  0  0  0
  6 29  1  0  0  0
 29 31  1  0  0  0
 31 32  1  0  0  0
 32 33  1  0  0  0
  6  7  1  0  0  0
  7  8  2  0  0  0
  8  9  1  0  0  0
  9 18  1  0  0  0
 18 19  2  0  0  0
 19 20  1  0  0  0
 20 21  2  0  0  0
 21 22  1  0  0  0
 22 23  2  0  0  0
  4 24  1  0  0  0
 24 25  1  0  0  0
 24 26  2  0  0  0
 16 11  1  0  0  0
  9  1  2  0  0  0
 23 18  1  0  0  0
  8  3  1  0  0  0
 10 17  1  0  0  0
 29 30  1  0  0  0
 33 34  1  0  0  0
 25 27  1  0  0  0
 25 28  1  0  0  0
M  END
> <minimizedAffinity>
-9.26486

> <CNNscore>
0.3097847700

> <CNNaffinity>
6.4578490257

> <CNN_VS>
2.0005433559

> <CNNaffinity_variance>
0.1710085273

$$$$
[H]c1nc(N(C([H])([H])[H])S(=O)(=O)C([H])([H])C([H])([H])[H])nc(N([H])c2c([H])c([H])c3c(c2[H])c([H])c([H])n3[H])c1C(=O)N([H])[H]


 30 32  0  0  0  0  0  0  0  0999 V2000
   38.4880   13.2115  -14.7808 C   0  0  0  0  0  0  0  0  0  0  0  0
   37.8188   12.3050  -15.5336 N   0  0  0  0  0  0  0  0  0  0  0  0
   38.3260   11.7711  -16.6391 C   0  0  0  0  0  0  0  0  0  0  0  0
   39.6049   12.1135  -17.1087 C   0  0  0  0  0  0  0  0  0  0  0  0
   40.2923   13.0347  -16.3480 C   0  0  0  0  0  0  0  0  0  0  0  0
   39.6991   13.5240  -15.2411 N   0  0  0  0  0  0  0  0  0  0  0  0
   40.0885   11.5002  -18.3365 C   0  0  0  0  0  0  0  0  0  0  0  0
   39.1082   10.9046  -19.1900 N   0  0  0  0  0  0  0  0  0  0  0  0
   41.2449   11.4113  -18.7683 O   0  0  0  0  0  0  0  0  0  0  0  0
   38.6053   10.0732  -18.8523 H   0  0  0  0  0  0  0  0  0  0  0  0
   38.9109   11.2961  -20.1158 H   0  0  0  0  0  0  0  0  0  0  0  0
   37.9260   13.7682  -13.6043 N   0  0  0  0  0  0  0  0  0  0  0  0
   38.6240   14.7924  -12.8814 C   0  0  0  0  0  0  0  0  0  0  0  0
   36.4094   13.2198  -13.0412 S   0  0  0  0  0  0  0  0  0  0  0  0
   36.4273   11.7057  -12.8670 O   0  0  0  0  0  0  0  0  0  0  0  0
   36.1330   13.7886  -11.7026 O   0  0  0  0  0  0  0  0  0  0  0  0
   34.1777   12.3938  -14.3798 C   0  0  0  0  0  0  0  0  0  0  0  0
   35.0862   13.5719  -14.1531 C   0  0  0  0  0  0  0  0  0  0  0  0
   41.5954   13.4130  -16.7075 N   0  0  0  0  0  0  0  0  0  0  0  0
   41.7559   13.9292  -17.5901 H   0  0  0  0  0  0  0  0  0  0  0  0
   42.7944   13.1558  -15.9704 C   0  0  0  0  0  0  0  0  0  0  0  0
   43.8391   12.4692  -16.6103 C   0  0  0  0  0  0  0  0  0  0  0  0
   45.0237   12.2146  -15.9750 C   0  0  0  0  0  0  0  0  0  0  0  0
   45.2542   12.6170  -14.6777 C   0  0  0  0  0  0  0  0  0  0  0  0
   46.2941   12.5028  -13.8356 N   0  0  0  0  0  0  0  0  0  0  0  0
   45.9623   13.0857  -12.6859 C   0  0  0  0  0  0  0  0  0  0  0  0
   44.6820   13.5870  -12.7860 C   0  0  0  0  0  0  0  0  0  0  0  0
   44.2392   13.2881  -14.0465 C   0  0  0  0  0  0  0  0  0  0  0  0
   43.0219   13.5550  -14.6869 C   0  0  0  0  0  0  0  0  0  0  0  0
   47.2181   12.0268  -14.0601 H   0  0  0  0  0  0  0  0  0  0  0  0
 17 18  1  0  0  0
 18 14  1  0  0  0
 14 15  2  0  0  0
 14 16  2  0  0  0
 14 12  1  0  0  0
 12 13  1  0  0  0
 12  1  1  0  0  0
  1  2  2  0  0  0
  2  3  1  0  0  0
  3  4  2  0  0  0
  4  7  1  0  0  0
  7  8  1  0  0  0
  7  9  2  0  0  0
  4  5  1  0  0  0
  5 19  1  0  0  0
 19 21  1  0  0  0
 21 22  2  0  0  0
 22 23  1  0  0  0
 23 24  2  0  0  0
 24 25  1  0  0  0
 25 26  1  0  0  0
 26 27  2  0  0  0
 27 28  1  0  0  0
 28 29  2  0  0  0
  5  6  2  0  0  0
  6  1  1  0  0  0
 29 21  1  0  0  0
 28 24  1  0  0  0
  8 10  1  0  0  0
  8 11  1  0  0  0
 19 20  1  0  0  0
 25 30  1  0  0  0
M  END
> <minimizedAffinity>
-7.60244

> <CNNscore>
0.9594101310

> <CNNaffinity>
7.2943391800

> <CNN_VS>
6.9982628822

> <CNNaffinity_variance>
0.1268199682

$$$$
[H]c1nc(N(C([H])([H])[H])S(=O)(=O)C([H])([H])C([H])([H])[H])nc(N([H])c2c([H])c([H])c3c(c2[H])c([H])c([H])n3[H])c1C(=O)N([H])[H]


 30 32  0  0  0  0  0  0  0  0999 V2000
   36.8250   11.9684  -15.7688 C   0  0  0  0  0  0  0  0  0  0  0  0
   36.7319   11.0581  -16.7682 N   0  0  0  0  0  0  0  0  0  0  0  0
   37.7056   10.8511  -17.6478 C   0  0  0  0  0  0  0  0  0  0  0  0
   38.9118   11.5696  -17.6014 C   0  0  0  0  0  0  0  0  0  0  0  0
   39.0145   12.4972  -16.5871 C   0  0  0  0  0  0  0  0  0  0  0  0
   37.9758   12.6400  -15.7402 N   0  0  0  0  0  0  0  0  0  0  0  0
   39.9274   11.3006  -18.6083 C   0  0  0  0  0  0  0  0  0  0  0  0
   39.4719   10.7923  -19.8647 N   0  0  0  0  0  0  0  0  0  0  0  0
   41.1547   11.4466  -18.5454 O   0  0  0  0  0  0  0  0  0  0  0  0
   39.0525    9.8534  -19.8899 H   0  0  0  0  0  0  0  0  0  0  0  0
   39.5609   11.3496  -20.7195 H   0  0  0  0  0  0  0  0  0  0  0  0
   35.7721   12.1722  -14.8415 N   0  0  0  0  0  0  0  0  0  0  0  0
   34.4059   12.0070  -15.2475 C   0  0  0  0  0  0  0  0  0  0  0  0
   36.1279   12.6163  -13.2309 S   0  0  0  0  0  0  0  0  0  0  0  0
   35.4148   11.6855  -12.2572 O   0  0  0  0  0  0  0  0  0  0  0  0
   37.5769   12.4567  -12.9724 O   0  0  0  0  0  0  0  0  0  0  0  0
   36.7257   15.2480  -12.8163 C   0  0  0  0  0  0  0  0  0  0  0  0
   35.5994   14.2500  -12.8272 C   0  0  0  0  0  0  0  0  0  0  0  0
   40.1959   13.2382  -16.4274 N   0  0  0  0  0  0  0  0  0  0  0  0
   40.7674   13.4795  -17.2558 H   0  0  0  0  0  0  0  0  0  0  0  0
   40.7412   13.7231  -15.1967 C   0  0  0  0  0  0  0  0  0  0  0  0
   41.9964   13.2450  -14.7865 C   0  0  0  0  0  0  0  0  0  0  0  0
   42.5900   13.6868  -13.6358 C   0  0  0  0  0  0  0  0  0  0  0  0
   41.9899   14.6215  -12.8206 C   0  0  0  0  0  0  0  0  0  0  0  0
   42.3377   15.2148  -11.6672 N   0  0  0  0  0  0  0  0  0  0  0  0
   41.3620   16.0514  -11.3208 C   0  0  0  0  0  0  0  0  0  0  0  0
   40.3628   15.9982  -12.2692 C   0  0  0  0  0  0  0  0  0  0  0  0
   40.7647   15.0932  -13.2146 C   0  0  0  0  0  0  0  0  0  0  0  0
   40.1471   14.6485  -14.3910 C   0  0  0  0  0  0  0  0  0  0  0  0
   43.2397   15.0387  -11.1322 H   0  0  0  0  0  0  0  0  0  0  0  0
 17 18  1  0  0  0
 18 14  1  0  0  0
 14 15  2  0  0  0
 14 16  2  0  0  0
 14 12  1  0  0  0
 12 13  1  0  0  0
 12  1  1  0  0  0
  1  2  2  0  0  0
  2  3  1  0  0  0
  3  4  2  0  0  0
  4  7  1  0  0  0
  7  8  1  0  0  0
  7  9  2  0  0  0
  4  5  1  0  0  0
  5 19  1  0  0  0
 19 21  1  0  0  0
 21 22  2  0  0  0
 22 23  1  0  0  0
 23 24  2  0  0  0
 24 25  1  0  0  0
 25 26  1  0  0  0
 26 27  2  0  0  0
 27 28  1  0  0  0
 28 29  2  0  0  0
  5  6  2  0  0  0
  6  1  1  0  0  0
 29 21  1  0  0  0
 28 24  1  0  0  0
  8 10  1  0  0  0
  8 11  1  0  0  0
 19 20  1  0  0  0
 25 30  1  0  0  0
M  END
> <minimizedAffinity>
-8.06987

> <CNNscore>
0.9054105282

> <CNNaffinity>
7.2666993141

> <CNN_VS>
6.5793461800

> <CNNaffinity_variance>
0.1234542131

$$$$
[H]c1nc(N(C([H])([H])[H])S(=O)(=O)C([H])([H])C([H])([H])[H])nc(N([H])c2c([H])c([H])c3c(c2[H])c([H])c([H])n3[H])c1C(=O)N([H])[H]


 30 32  0  0  0  0  0  0  0  0999 V2000
   38.0164   12.5396  -14.9040 C   0  0  0  0  0  0  0  0  0  0  0  0
   37.5324   11.6459  -15.8002 N   0  0  0  0  0  0  0  0  0  0  0  0
   38.1837   11.3116  -16.9086 C   0  0  0  0  0  0  0  0  0  0  0  0
   39.4326   11.8679  -17.2311 C   0  0  0  0  0  0  0  0  0  0  0  0
   39.9321   12.7776  -16.3240 C   0  0  0  0  0  0  0  0  0  0  0  0
   39.2019   13.0566  -15.2261 N   0  0  0  0  0  0  0  0  0  0  0  0
   40.0801   11.4663  -18.4709 C   0  0  0  0  0  0  0  0  0  0  0  0
   39.2311   10.9856  -19.5160 N   0  0  0  0  0  0  0  0  0  0  0  0
   41.2810   11.4760  -18.7695 O   0  0  0  0  0  0  0  0  0  0  0  0
   38.7302   10.0989  -19.3711 H   0  0  0  0  0  0  0  0  0  0  0  0
   39.1238   11.5114  -20.3886 H   0  0  0  0  0  0  0  0  0  0  0  0
   37.3029   12.8811  -13.7275 N   0  0  0  0  0  0  0  0  0  0  0  0
   36.5462   11.8860  -13.0234 C   0  0  0  0  0  0  0  0  0  0  0  0
   37.3424   14.4851  -13.1412 S   0  0  0  0  0  0  0  0  0  0  0  0
   38.7707   14.8827  -12.7879 O   0  0  0  0  0  0  0  0  0  0  0  0
   36.9010   15.4201  -14.2010 O   0  0  0  0  0  0  0  0  0  0  0  0
   35.8313   16.1037  -11.5438 C   0  0  0  0  0  0  0  0  0  0  0  0
   36.3905   14.7126  -11.6738 C   0  0  0  0  0  0  0  0  0  0  0  0
   41.1924   13.3598  -16.5317 N   0  0  0  0  0  0  0  0  0  0  0  0
   41.3695   13.9097  -17.3904 H   0  0  0  0  0  0  0  0  0  0  0  0
   42.3252   13.2796  -15.6614 C   0  0  0  0  0  0  0  0  0  0  0  0
   43.5728   12.9496  -16.2155 C   0  0  0  0  0  0  0  0  0  0  0  0
   44.7027   12.8833  -15.4471 C   0  0  0  0  0  0  0  0  0  0  0  0
   44.6771   13.1358  -14.0930 C   0  0  0  0  0  0  0  0  0  0  0  0
   45.6096   13.1418  -13.1266 N   0  0  0  0  0  0  0  0  0  0  0  0
   45.0153   13.4610  -11.9792 C   0  0  0  0  0  0  0  0  0  0  0  0
   43.6712   13.6657  -12.2076 C   0  0  0  0  0  0  0  0  0  0  0  0
   43.4629   13.4589  -13.5449 C   0  0  0  0  0  0  0  0  0  0  0  0
   42.2991   13.5304  -14.3217 C   0  0  0  0  0  0  0  0  0  0  0  0
   46.6417   12.9269  -13.2662 H   0  0  0  0  0  0  0  0  0  0  0  0
 17 18  1  0  0  0
 18 14  1  0  0  0
 14 15  2  0  0  0
 14 16  2  0  0  0
 14 12  1  0  0  0
 12 13  1  0  0  0
 12  1  1  0  0  0
  1  2  2  0  0  0
  2  3  1  0  0  0
  3  4  2  0  0  0
  4  7  1  0  0  0
  7  8  1  0  0  0
  7  9  2  0  0  0
  4  5  1  0  0  0
  5 19  1  0  0  0
 19 21  1  0  0  0
 21 22  2  0  0  0
 22 23  1  0  0  0
 23 24  2  0  0  0
 24 25  1  0  0  0
 25 26  1  0  0  0
 26 27  2  0  0  0
 27 28  1  0  0  0
 28 29  2  0  0  0
  5  6  2  0  0  0
  6  1  1  0  0  0
 29 21  1  0  0  0
 28 24  1  0  0  0
  8 10  1  0  0  0
  8 11  1  0  0  0
 19 20  1  0  0  0
 25 30  1  0  0  0
M  END
> <minimizedAffinity>
-7.48005

> <CNNscore>
0.8011873364

> <CNNaffinity>
7.0068297386

> <CNN_VS>
5.6137833595

> <CNNaffinity_variance>
0.2242058963

$$$$
[H]c1nc(N(C([H])([H])[H])S(=O)(=O)C([H])([H])C([H])([H])[H])nc(N([H])c2c([H])c([H])c3c(c2[H])c([H])c([H])n3[H])c1C(=O)N([H])[H]


 30 32  0  0  0  0  0  0  0  0999 V2000
   41.8449   13.9277  -13.8920 C   0  0  0  0  0  0  0  0  0  0  0  0
   42.5786   13.4568  -14.9293 N   0  0  0  0  0  0  0  0  0  0  0  0
   42.0339   12.8772  -15.9932 C   0  0  0  0  0  0  0  0  0  0  0  0
   40.6446   12.7112  -16.1172 C   0  0  0  0  0  0  0  0  0  0  0  0
   39.8911   13.1883  -15.0663 C   0  0  0  0  0  0  0  0  0  0  0  0
   40.5293   13.7619  -14.0270 N   0  0  0  0  0  0  0  0  0  0  0  0
   40.1202   12.0523  -17.3040 C   0  0  0  0  0  0  0  0  0  0  0  0
   41.0380   11.8303  -18.3776 N   0  0  0  0  0  0  0  0  0  0  0  0
   38.9750   11.6439  -17.5351 O   0  0  0  0  0  0  0  0  0  0  0  0
   41.4174   12.6473  -18.8741 H   0  0  0  0  0  0  0  0  0  0  0  0
   41.3115   10.8804  -18.6462 H   0  0  0  0  0  0  0  0  0  0  0  0
   42.4487   14.5427  -12.7663 N   0  0  0  0  0  0  0  0  0  0  0  0
   43.4882   13.8690  -12.0423 C   0  0  0  0  0  0  0  0  0  0  0  0
   41.9390   16.0945  -12.2663 S   0  0  0  0  0  0  0  0  0  0  0  0
   42.9787   17.1405  -12.6505 O   0  0  0  0  0  0  0  0  0  0  0  0
   40.6930   16.4679  -12.9734 O   0  0  0  0  0  0  0  0  0  0  0  0
   40.2977   16.0583  -10.0846 C   0  0  0  0  0  0  0  0  0  0  0  0
   41.7282   16.2279  -10.5201 C   0  0  0  0  0  0  0  0  0  0  0  0
   38.4903   13.1092  -15.1110 N   0  0  0  0  0  0  0  0  0  0  0  0
   38.0222   12.7565  -15.9639 H   0  0  0  0  0  0  0  0  0  0  0  0
   37.5794   13.4801  -14.0718 C   0  0  0  0  0  0  0  0  0  0  0  0
   36.8116   12.4734  -13.4640 C   0  0  0  0  0  0  0  0  0  0  0  0
   35.9422   12.7524  -12.4452 C   0  0  0  0  0  0  0  0  0  0  0  0
   35.7742   14.0319  -11.9627 C   0  0  0  0  0  0  0  0  0  0  0  0
   35.0111   14.5736  -10.9994 N   0  0  0  0  0  0  0  0  0  0  0  0
   35.2561   15.8814  -10.9630 C   0  0  0  0  0  0  0  0  0  0  0  0
   36.1966   16.1922  -11.9219 C   0  0  0  0  0  0  0  0  0  0  0  0
   36.5204   15.0199  -12.5506 C   0  0  0  0  0  0  0  0  0  0  0  0
   37.4143   14.7463  -13.5944 C   0  0  0  0  0  0  0  0  0  0  0  0
   34.3320   14.0396  -10.3793 H   0  0  0  0  0  0  0  0  0  0  0  0
 17 18  1  0  0  0
 18 14  1  0  0  0
 14 15  2  0  0  0
 14 16  2  0  0  0
 14 12  1  0  0  0
 12 13  1  0  0  0
 12  1  1  0  0  0
  1  2  2  0  0  0
  2  3  1  0  0  0
  3  4  2  0  0  0
  4  7  1  0  0  0
  7  8  1  0  0  0
  7  9  2  0  0  0
  4  5  1  0  0  0
  5 19  1  0  0  0
 19 21  1  0  0  0
 21 22  2  0  0  0
 22 23  1  0  0  0
 23 24  2  0  0  0
 24 25  1  0  0  0
 25 26  1  0  0  0
 26 27  2  0  0  0
 27 28  1  0  0  0
 28 29  2  0  0  0
  5  6  2  0  0  0
  6  1  1  0  0  0
 29 21  1  0  0  0
 28 24  1  0  0  0
  8 10  1  0  0  0
  8 11  1  0  0  0
 19 20  1  0  0  0
 25 30  1  0  0  0
M  END
> <minimizedAffinity>
-7.83633

> <CNNscore>
0.3168100417

> <CNNaffinity>
6.1245837212

> <CNN_VS>
1.9403296709

> <CNNaffinity_variance>
0.1162390709

$$$$
[H]c1nc(N(C([H])([H])[H])S(=O)(=O)C([H])([H])C([H])([H])[H])nc(N([H])c2c([H])c([H])c3c(c2[H])c([H])c([H])n3[H])c1C(=O)N([H])[H]


 30 32  0  0  0  0  0  0  0  0999 V2000
   43.1990   14.5745  -13.0971 C   0  0  0  0  0  0  0  0  0  0  0  0
   44.4984   14.2070  -12.9852 N   0  0  0  0  0  0  0  0  0  0  0  0
   45.1443   13.5428  -13.9371 C   0  0  0  0  0  0  0  0  0  0  0  0
   44.5176   13.1719  -15.1383 C   0  0  0  0  0  0  0  0  0  0  0  0
   43.1957   13.5427  -15.2601 C   0  0  0  0  0  0  0  0  0  0  0  0
   42.6209   14.2147  -14.2429 N   0  0  0  0  0  0  0  0  0  0  0  0
   45.2835   12.4311  -16.1293 C   0  0  0  0  0  0  0  0  0  0  0  0
   46.5524   12.9743  -16.5022 N   0  0  0  0  0  0  0  0  0  0  0  0
   45.0010   11.3779  -16.7145 O   0  0  0  0  0  0  0  0  0  0  0  0
   46.5721   13.8701  -17.0074 H   0  0  0  0  0  0  0  0  0  0  0  0
   47.4215   12.4834  -16.2721 H   0  0  0  0  0  0  0  0  0  0  0  0
   42.5301   15.2830  -12.0673 N   0  0  0  0  0  0  0  0  0  0  0  0
   41.1305   15.5781  -12.1808 C   0  0  0  0  0  0  0  0  0  0  0  0
   43.3914   15.7892  -10.6817 S   0  0  0  0  0  0  0  0  0  0  0  0
   44.3992   16.8707  -11.0529 O   0  0  0  0  0  0  0  0  0  0  0  0
   42.4618   16.4045   -9.7073 O   0  0  0  0  0  0  0  0  0  0  0  0
   43.4677   13.3134   -9.5331 C   0  0  0  0  0  0  0  0  0  0  0  0
   44.3171   14.4919   -9.9260 C   0  0  0  0  0  0  0  0  0  0  0  0
   42.4898   13.2570  -16.4393 N   0  0  0  0  0  0  0  0  0  0  0  0
   42.9386   13.4154  -17.3584 H   0  0  0  0  0  0  0  0  0  0  0  0
   41.1544   12.7525  -16.5355 C   0  0  0  0  0  0  0  0  0  0  0  0
   40.8291   11.9224  -17.6206 C   0  0  0  0  0  0  0  0  0  0  0  0
   39.5801   11.3819  -17.7597 C   0  0  0  0  0  0  0  0  0  0  0  0
   38.5778   11.6225  -16.8456 C   0  0  0  0  0  0  0  0  0  0  0  0
   37.2973   11.2319  -16.7398 N   0  0  0  0  0  0  0  0  0  0  0  0
   36.7884   11.7741  -15.6358 C   0  0  0  0  0  0  0  0  0  0  0  0
   37.7591   12.5308  -15.0148 C   0  0  0  0  0  0  0  0  0  0  0  0
   38.8877   12.4316  -15.7834 C   0  0  0  0  0  0  0  0  0  0  0  0
   40.1634   12.9904  -15.6300 C   0  0  0  0  0  0  0  0  0  0  0  0
   36.7886   10.5984  -17.4259 H   0  0  0  0  0  0  0  0  0  0  0  0
 17 18  1  0  0  0
 18 14  1  0  0  0
 14 15  2  0  0  0
 14 16  2  0  0  0
 14 12  1  0  0  0
 12 13  1  0  0  0
 12  1  1  0  0  0
  1  2  2  0  0  0
  2  3  1  0  0  0
  3  4  2  0  0  0
  4  7  1  0  0  0
  7  8  1  0  0  0
  7  9  2  0  0  0
  4  5  1  0  0  0
  5 19  1  0  0  0
 19 21  1  0  0  0
 21 22  2  0  0  0
 22 23  1  0  0  0
 23 24  2  0  0  0
 24 25  1  0  0  0
 25 26  1  0  0  0
 26 27  2  0  0  0
 27 28  1  0  0  0
 28 29  2  0  0  0
  5  6  2  0  0  0
  6  1  1  0  0  0
 29 21  1  0  0  0
 28 24  1  0  0  0
  8 10  1  0  0  0
  8 11  1  0  0  0
 19 20  1  0  0  0
 25 30  1  0  0  0
M  END
> <minimizedAffinity>
-7.30485

> <CNNscore>
0.2853299677

> <CNNaffinity>
6.0162887573

> <CNN_VS>
1.7166274786

> <CNNaffinity_variance>
0.0166947003

$$$$
[H]c1nc(N(C([H])([H])[H])S(=O)(=O)C([H])([H])C([H])([H])[H])nc(N([H])c2c([H])c([H])c3c(c2[H])c([H])c([H])n3[H])c1C(=O)N([H])[H]


 30 32  0  0  0  0  0  0  0  0999 V2000
   36.8664   15.1213  -10.8331 C   0  0  0  0  0  0  0  0  0  0  0  0
   35.6130   15.5364  -11.1381 N   0  0  0  0  0  0  0  0  0  0  0  0
   34.8884   14.9892  -12.1077 C   0  0  0  0  0  0  0  0  0  0  0  0
   35.3772   13.9312  -12.8918 C   0  0  0  0  0  0  0  0  0  0  0  0
   36.6513   13.5028  -12.5873 C   0  0  0  0  0  0  0  0  0  0  0  0
   37.3133   14.1170  -11.5867 N   0  0  0  0  0  0  0  0  0  0  0  0
   34.5328   13.3924  -13.9474 C   0  0  0  0  0  0  0  0  0  0  0  0
   33.5699   14.2806  -14.5202 N   0  0  0  0  0  0  0  0  0  0  0  0
   34.5175   12.2568  -14.4391 O   0  0  0  0  0  0  0  0  0  0  0  0
   32.7955   14.6104  -13.9289 H   0  0  0  0  0  0  0  0  0  0  0  0
   33.6490   14.5816  -15.4961 H   0  0  0  0  0  0  0  0  0  0  0  0
   37.6212   15.7210   -9.7936 N   0  0  0  0  0  0  0  0  0  0  0  0
   38.6194   16.7059  -10.0974 C   0  0  0  0  0  0  0  0  0  0  0  0
   37.3435   15.2716   -8.1692 S   0  0  0  0  0  0  0  0  0  0  0  0
   36.3901   14.0841   -8.1059 O   0  0  0  0  0  0  0  0  0  0  0  0
   38.6094   14.8215   -7.5472 O   0  0  0  0  0  0  0  0  0  0  0  0
   35.5474   17.3180   -7.9668 C   0  0  0  0  0  0  0  0  0  0  0  0
   36.5994   16.5521   -7.2111 C   0  0  0  0  0  0  0  0  0  0  0  0
   37.2167   12.4232  -13.2838 N   0  0  0  0  0  0  0  0  0  0  0  0
   36.9640   11.4540  -13.0230 H   0  0  0  0  0  0  0  0  0  0  0  0
   38.1528   12.4982  -14.3633 C   0  0  0  0  0  0  0  0  0  0  0  0
   39.2316   13.3905  -14.2528 C   0  0  0  0  0  0  0  0  0  0  0  0
   40.1796   13.4932  -15.2338 C   0  0  0  0  0  0  0  0  0  0  0  0
   40.1266   12.7290  -16.3789 C   0  0  0  0  0  0  0  0  0  0  0  0
   40.9013   12.6292  -17.4714 N   0  0  0  0  0  0  0  0  0  0  0  0
   40.3672   11.7131  -18.2759 C   0  0  0  0  0  0  0  0  0  0  0  0
   39.2240   11.2099  -17.6923 C   0  0  0  0  0  0  0  0  0  0  0  0
   39.0767   11.8553  -16.4939 C   0  0  0  0  0  0  0  0  0  0  0  0
   38.1000   11.7411  -15.4957 C   0  0  0  0  0  0  0  0  0  0  0  0
   41.7863   13.1906  -17.6514 H   0  0  0  0  0  0  0  0  0  0  0  0
 17 18  1  0  0  0
 18 14  1  0  0  0
 14 15  2  0  0  0
 14 16  2  0  0  0
 14 12  1  0  0  0
 12 13  1  0  0  0
 12  1  1  0  0  0
  1  2  2  0  0  0
  2  3  1  0  0  0
  3  4  2  0  0  0
  4  7  1  0  0  0
  7  8  1  0  0  0
  7  9  2  0  0  0
  4  5  1  0  0  0
  5 19  1  0  0  0
 19 21  1  0  0  0
 21 22  2  0  0  0
 22 23  1  0  0  0
 23 24  2  0  0  0
 24 25  1  0  0  0
 25 26  1  0  0  0
 26 27  2  0  0  0
 27 28  1  0  0  0
 28 29  2  0  0  0
  5  6  2  0  0  0
  6  1  1  0  0  0
 29 21  1  0  0  0
 28 24  1  0  0  0
  8 10  1  0  0  0
  8 11  1  0  0  0
 19 20  1  0  0  0
 25 30  1  0  0  0
M  END
> <minimizedAffinity>
-8.03728

> <CNNscore>
0.2628930807

> <CNNaffinity>
6.1593008041

> <CNN_VS>
1.6192375422

> <CNNaffinity_variance>
0.1734080464

$$$$
[H]c1nc(N(C([H])([H])[H])S(=O)(=O)C([H])([H])C([H])([H])[H])nc(N([H])c2c([H])c([H])c3c(c2[H])c([H])c([H])n3[H])c1C(=O)N([H])[H]


 30 32  0  0  0  0  0  0  0  0999 V2000
   36.5415   13.2964  -14.0666 C   0  0  0  0  0  0  0  0  0  0  0  0
   36.0769   12.1275  -14.5706 N   0  0  0  0  0  0  0  0  0  0  0  0
   36.6891   11.4704  -15.5493 C   0  0  0  0  0  0  0  0  0  0  0  0
   37.8731   11.9476  -16.1354 C   0  0  0  0  0  0  0  0  0  0  0  0
   38.3526   13.1360  -15.6278 C   0  0  0  0  0  0  0  0  0  0  0  0
   37.6654   13.7335  -14.6343 N   0  0  0  0  0  0  0  0  0  0  0  0
   38.4793   11.1824  -17.2146 C   0  0  0  0  0  0  0  0  0  0  0  0
   37.5885   10.5139  -18.1111 N   0  0  0  0  0  0  0  0  0  0  0  0
   39.6755   11.0157  -17.4844 O   0  0  0  0  0  0  0  0  0  0  0  0
   37.0166    9.7404  -17.7468 H   0  0  0  0  0  0  0  0  0  0  0  0
   37.5211   10.7982  -19.0929 H   0  0  0  0  0  0  0  0  0  0  0  0
   35.8706   13.9802  -13.0216 N   0  0  0  0  0  0  0  0  0  0  0  0
   34.4413   13.9166  -12.9135 C   0  0  0  0  0  0  0  0  0  0  0  0
   36.7653   14.8855  -11.8823 S   0  0  0  0  0  0  0  0  0  0  0  0
   38.2332   14.4770  -11.9194 O   0  0  0  0  0  0  0  0  0  0  0  0
   36.7249   16.3224  -12.2367 O   0  0  0  0  0  0  0  0  0  0  0  0
   35.3528   15.7527   -9.7126 C   0  0  0  0  0  0  0  0  0  0  0  0
   36.2272   14.6383  -10.2208 C   0  0  0  0  0  0  0  0  0  0  0  0
   39.5523   13.6772  -16.1157 N   0  0  0  0  0  0  0  0  0  0  0  0
   39.5587   14.1825  -17.0189 H   0  0  0  0  0  0  0  0  0  0  0  0
   40.8374   13.6096  -15.4903 C   0  0  0  0  0  0  0  0  0  0  0  0
   40.9462   13.9867  -14.1418 C   0  0  0  0  0  0  0  0  0  0  0  0
   42.1379   13.9198  -13.4732 C   0  0  0  0  0  0  0  0  0  0  0  0
   43.2912   13.4802  -14.0853 C   0  0  0  0  0  0  0  0  0  0  0  0
   44.5607   13.3183  -13.6781 N   0  0  0  0  0  0  0  0  0  0  0  0
   45.2692   12.8542  -14.7049 C   0  0  0  0  0  0  0  0  0  0  0  0
   44.4417   12.7131  -15.7984 C   0  0  0  0  0  0  0  0  0  0  0  0
   43.1930   13.1100  -15.4014 C   0  0  0  0  0  0  0  0  0  0  0  0
   41.9781   13.1739  -16.0964 C   0  0  0  0  0  0  0  0  0  0  0  0
   44.9250   13.5279  -12.7013 H   0  0  0  0  0  0  0  0  0  0  0  0
 17 18  1  0  0  0
 18 14  1  0  0  0
 14 15  2  0  0  0
 14 16  2  0  0  0
 14 12  1  0  0  0
 12 13  1  0  0  0
 12  1  1  0  0  0
  1  2  2  0  0  0
  2  3  1  0  0  0
  3  4  2  0  0  0
  4  7  1  0  0  0
  7  8  1  0  0  0
  7  9  2  0  0  0
  4  5  1  0  0  0
  5 19  1  0  0  0
 19 21  1  0  0  0
 21 22  2  0  0  0
 22 23  1  0  0  0
 23 24  2  0  0  0
 24 25  1  0  0  0
 25 26  1  0  0  0
 26 27  2  0  0  0
 27 28  1  0  0  0
 28 29  2  0  0  0
  5  6  2  0  0  0
  6  1  1  0  0  0
 29 21  1  0  0  0
 28 24  1  0  0  0
  8 10  1  0  0  0
  8 11  1  0  0  0
 19 20  1  0  0  0
 25 30  1  0  0  0
M  END
> <minimizedAffinity>
-6.92579

> <CNNscore>
0.2411087304

> <CNNaffinity>
6.2231302261

> <CNN_VS>
1.5004509687

> <CNNaffinity_variance>
0.2761883736

$$$$
[H]c1nc(N(C([H])([H])[H])S(=O)(=O)C([H])([H])C([H])([H])[H])nc(N([H])c2c([H])c([H])c3c(c2[H])c([H])c([H])n3[H])c1C(=O)N([H])[H]


 30 32  0  0  0  0  0  0  0  0999 V2000
   36.8025   14.7951  -11.0697 C   0  0  0  0  0  0  0  0  0  0  0  0
   35.5396   15.2286  -11.3003 N   0  0  0  0  0  0  0  0  0  0  0  0
   34.7652   14.7197  -12.2520 C   0  0  0  0  0  0  0  0  0  0  0  0
   35.2074   13.6859  -13.0939 C   0  0  0  0  0  0  0  0  0  0  0  0
   36.4911   13.2389  -12.8654 C   0  0  0  0  0  0  0  0  0  0  0  0
   37.2049   13.8142  -11.8774 N   0  0  0  0  0  0  0  0  0  0  0  0
   34.3094   13.1890  -14.1256 C   0  0  0  0  0  0  0  0  0  0  0  0
   32.9633   13.6699  -14.0958 N   0  0  0  0  0  0  0  0  0  0  0  0
   34.5344   12.3952  -15.0480 O   0  0  0  0  0  0  0  0  0  0  0  0
   32.3652   13.4022  -13.3028 H   0  0  0  0  0  0  0  0  0  0  0  0
   32.6025   14.2669  -14.8459 H   0  0  0  0  0  0  0  0  0  0  0  0
   37.6109   15.3539  -10.0479 N   0  0  0  0  0  0  0  0  0  0  0  0
   37.3187   15.0928   -8.6676 C   0  0  0  0  0  0  0  0  0  0  0  0
   38.9415   16.3434  -10.4580 S   0  0  0  0  0  0  0  0  0  0  0  0
   39.3055   16.1561  -11.9261 O   0  0  0  0  0  0  0  0  0  0  0  0
   38.5770   17.7695  -10.2991 O   0  0  0  0  0  0  0  0  0  0  0  0
   41.6592   16.1058  -10.3468 C   0  0  0  0  0  0  0  0  0  0  0  0
   40.3982   15.9664   -9.5375 C   0  0  0  0  0  0  0  0  0  0  0  0
   37.0138   12.1800  -13.6243 N   0  0  0  0  0  0  0  0  0  0  0  0
   36.6777   11.2150  -13.4603 H   0  0  0  0  0  0  0  0  0  0  0  0
   38.0101   12.2715  -14.6471 C   0  0  0  0  0  0  0  0  0  0  0  0
   39.1171   13.1081  -14.4302 C   0  0  0  0  0  0  0  0  0  0  0  0
   40.1210   13.2213  -15.3526 C   0  0  0  0  0  0  0  0  0  0  0  0
   40.0996   12.5228  -16.5399 C   0  0  0  0  0  0  0  0  0  0  0  0
   40.9284   12.4477  -17.5940 N   0  0  0  0  0  0  0  0  0  0  0  0
   40.4021   11.6006  -18.4755 C   0  0  0  0  0  0  0  0  0  0  0  0
   39.2088   11.1178  -17.9820 C   0  0  0  0  0  0  0  0  0  0  0  0
   39.0224   11.7038  -16.7588 C   0  0  0  0  0  0  0  0  0  0  0  0
   37.9885   11.5793  -15.8214 C   0  0  0  0  0  0  0  0  0  0  0  0
   41.8444   12.9783  -17.6954 H   0  0  0  0  0  0  0  0  0  0  0  0
 17 18  1  0  0  0
 18 14  1  0  0  0
 14 15  2  0  0  0
 14 16  2  0  0  0
 14 12  1  0  0  0
 12 13  1  0  0  0
 12  1  1  0  0  0
  1  2  2  0  0  0
  2  3  1  0  0  0
  3  4  2  0  0  0
  4  7  1  0  0  0
  7  8  1  0  0  0
  7  9  2  0  0  0
  4  5  1  0  0  0
  5 19  1  0  0  0
 19 21  1  0  0  0
 21 22  2  0  0  0
 22 23  1  0  0  0
 23 24  2  0  0  0
 24 25  1  0  0  0
 25 26  1  0  0  0
 26 27  2  0  0  0
 27 28  1  0  0  0
 28 29  2  0  0  0
  5  6  2  0  0  0
  6  1  1  0  0  0
 29 21  1  0  0  0
 28 24  1  0  0  0
  8 10  1  0  0  0
  8 11  1  0  0  0
 19 20  1  0  0  0
 25 30  1  0  0  0
M  END
> <minimizedAffinity>
-8.52515

> <CNNscore>
0.2326298356

> <CNNaffinity>
6.2689046860

> <CNN_VS>
1.4583342075

> <CNNaffinity_variance>
0.1536113322

$$$$
[H]c1nc(N(C([H])([H])[H])S(=O)(=O)C([H])([H])C([H])([H])[H])nc(N([H])c2c([H])c([H])c3c(c2[H])c([H])c([H])n3[H])c1C(=O)N([H])[H]


 30 32  0  0  0  0  0  0  0  0999 V2000
   37.5134   14.6678  -12.7060 C   0  0  0  0  0  0  0  0  0  0  0  0
   36.1978   14.5449  -12.4058 N   0  0  0  0  0  0  0  0  0  0  0  0
   35.3578   13.8156  -13.1318 C   0  0  0  0  0  0  0  0  0  0  0  0
   35.7806   13.1140  -14.2729 C   0  0  0  0  0  0  0  0  0  0  0  0
   37.1179   13.2335  -14.5846 C   0  0  0  0  0  0  0  0  0  0  0  0
   37.8966   13.9954  -13.7911 N   0  0  0  0  0  0  0  0  0  0  0  0
   34.8006   12.3485  -15.0287 C   0  0  0  0  0  0  0  0  0  0  0  0
   33.4254   12.6842  -14.8280 N   0  0  0  0  0  0  0  0  0  0  0  0
   34.9760   11.4290  -15.8382 O   0  0  0  0  0  0  0  0  0  0  0  0
   33.0068   12.5032  -13.9060 H   0  0  0  0  0  0  0  0  0  0  0  0
   32.8699   13.0952  -15.5841 H   0  0  0  0  0  0  0  0  0  0  0  0
   38.3912   15.4525  -11.9162 N   0  0  0  0  0  0  0  0  0  0  0  0
   39.7495   15.6597  -12.3296 C   0  0  0  0  0  0  0  0  0  0  0  0
   37.8324   16.1574  -10.4641 S   0  0  0  0  0  0  0  0  0  0  0  0
   36.9306   17.3478  -10.7683 O   0  0  0  0  0  0  0  0  0  0  0  0
   37.0000   15.1853   -9.7196 O   0  0  0  0  0  0  0  0  0  0  0  0
   38.7343   16.9126   -8.0001 C   0  0  0  0  0  0  0  0  0  0  0  0
   39.1333   16.7730   -9.4444 C   0  0  0  0  0  0  0  0  0  0  0  0
   37.6503   12.5380  -15.6816 N   0  0  0  0  0  0  0  0  0  0  0  0
   37.0197   12.0150  -16.3139 H   0  0  0  0  0  0  0  0  0  0  0  0
   39.0297   12.4523  -16.0518 C   0  0  0  0  0  0  0  0  0  0  0  0
   39.3567   11.8604  -17.2827 C   0  0  0  0  0  0  0  0  0  0  0  0
   40.6523   11.7709  -17.7128 C   0  0  0  0  0  0  0  0  0  0  0  0
   41.7021   12.2553  -16.9635 C   0  0  0  0  0  0  0  0  0  0  0  0
   43.0329   12.2981  -17.1392 N   0  0  0  0  0  0  0  0  0  0  0  0
   43.5723   12.8911  -16.0766 C   0  0  0  0  0  0  0  0  0  0  0  0
   42.5706   13.2389  -15.1956 C   0  0  0  0  0  0  0  0  0  0  0  0
   41.3909   12.8348  -15.7609 C   0  0  0  0  0  0  0  0  0  0  0  0
   40.0679   12.9325  -15.3102 C   0  0  0  0  0  0  0  0  0  0  0  0
   43.5542   11.9203  -17.9856 H   0  0  0  0  0  0  0  0  0  0  0  0
 17 18  1  0  0  0
 18 14  1  0  0  0
 14 15  2  0  0  0
 14 16  2  0  0  0
 14 12  1  0  0  0
 12 13  1  0  0  0
 12  1  1  0  0  0
  1  2  2  0  0  0
  2  3  1  0  0  0
  3  4  2  0  0  0
  4  7  1  0  0  0
  7  8  1  0  0  0
  7  9  2  0  0  0
  4  5  1  0  0  0
  5 19  1  0  0  0
 19 21  1  0  0  0
 21 22  2  0  0  0
 22 23  1  0  0  0
 23 24  2  0  0  0
 24 25  1  0  0  0
 25 26  1  0  0  0
 26 27  2  0  0  0
 27 28  1  0  0  0
 28 29  2  0  0  0
  5  6  2  0  0  0
  6  1  1  0  0  0
 29 21  1  0  0  0
 28 24  1  0  0  0
  8 10  1  0  0  0
  8 11  1  0  0  0
 19 20  1  0  0  0
 25 30  1  0  0  0
M  END
> <minimizedAffinity>
-7.90839

> <CNNscore>
0.2132663727

> <CNNaffinity>
6.1887006760

> <CNN_VS>
1.3198417425

> <CNNaffinity_variance>
0.1084237471

$$$$
[H]O[C@@]1([H])C2([H])O[C@](C([H])([H])[H])(n3c4c([H])c([H])c([H])c([H])c4c4c5c(c6c7c([H])c([H])c([H])c([H])c7n2c6c43)C(=O)N([H])C5([H])[H])[C@@]([H])(C(=O)OC([H])([H])[H])C1([H])[H]


 38 45  0  0  0  0  0  0  0  0999 V2000
   36.0842   14.8347  -12.9720 C   0  0  0  0  0  0  0  0  0  0  0  0
   36.9483   15.6598  -11.9901 C   0  0  0  0  0  0  0  0  0  0  0  0
   38.4683   15.3101  -12.0863 C   0  0  0  0  0  0  0  0  0  0  0  0
   38.8409   14.7301  -10.8444 O   0  0  0  0  0  0  0  0  0  0  0  0
   38.4424   14.3979  -13.1184 C   0  0  0  0  0  0  0  0  0  0  0  0
   37.7112   13.3195  -12.6458 O   0  0  0  0  0  0  0  0  0  0  0  0
   36.3968   13.4582  -13.2103 C   0  0  0  0  0  0  0  0  0  0  0  0
   35.6145   12.4535  -12.3505 C   0  0  0  0  0  0  0  0  0  0  0  0
   36.5795   12.8738  -14.5365 N   0  0  0  0  0  0  0  0  0  0  0  0
   35.5836   12.2627  -15.2330 C   0  0  0  0  0  0  0  0  0  0  0  0
   34.2225   12.1031  -15.0864 C   0  0  0  0  0  0  0  0  0  0  0  0
   33.4380   11.4157  -15.9854 C   0  0  0  0  0  0  0  0  0  0  0  0
   33.9918   10.8375  -17.1086 C   0  0  0  0  0  0  0  0  0  0  0  0
   35.3316   10.9713  -17.2932 C   0  0  0  0  0  0  0  0  0  0  0  0
   36.1001   11.6609  -16.3856 C   0  0  0  0  0  0  0  0  0  0  0  0
   37.4272   11.9103  -16.3982 C   0  0  0  0  0  0  0  0  0  0  0  0
   38.5097   11.5849  -17.2075 C   0  0  0  0  0  0  0  0  0  0  0  0
   38.4997   10.8013  -18.4629 C   0  0  0  0  0  0  0  0  0  0  0  0
   39.8666   10.7576  -18.8895 N   0  0  0  0  0  0  0  0  0  0  0  0
   40.6971   11.4819  -17.9488 C   0  0  0  0  0  0  0  0  0  0  0  0
   41.9184   11.5757  -18.1202 O   0  0  0  0  0  0  0  0  0  0  0  0
   39.8221   11.9715  -16.9344 C   0  0  0  0  0  0  0  0  0  0  0  0
   40.0759   12.7267  -15.7981 C   0  0  0  0  0  0  0  0  0  0  0  0
   41.1529   13.3239  -15.2301 C   0  0  0  0  0  0  0  0  0  0  0  0
   42.4835   13.3634  -15.5561 C   0  0  0  0  0  0  0  0  0  0  0  0
   43.3339   14.0944  -14.7320 C   0  0  0  0  0  0  0  0  0  0  0  0
   42.9020   14.7730  -13.6145 C   0  0  0  0  0  0  0  0  0  0  0  0
   41.5514   14.7344  -13.2812 C   0  0  0  0  0  0  0  0  0  0  0  0
   40.7279   14.0132  -14.0986 C   0  0  0  0  0  0  0  0  0  0  0  0
   39.4184   13.8395  -13.9766 N   0  0  0  0  0  0  0  0  0  0  0  0
   38.9855   13.0356  -15.0145 C   0  0  0  0  0  0  0  0  0  0  0  0
   37.6853   12.6395  -15.2885 C   0  0  0  0  0  0  0  0  0  0  0  0
   39.2782   15.4149  -10.2751 H   0  0  0  0  0  0  0  0  0  0  0  0
   40.1863   10.2646  -19.7606 H   0  0  0  0  0  0  0  0  0  0  0  0
   34.7432   14.9547  -12.2608 C   0  0  0  0  0  0  0  0  0  0  0  0
   33.6662   14.6991  -12.8189 O   0  0  0  0  0  0  0  0  0  0  0  0
   33.5677   15.7547  -10.2291 C   0  0  0  0  0  0  0  0  0  0  0  0
   34.7322   15.3666  -10.9391 O   0  0  0  0  0  0  0  0  0  0  0  0
 37 38  1  0  0  0
 38 35  1  0  0  0
 35 36  2  0  0  0
 35  1  1  0  0  0
  1  2  1  0  0  0
  2  3  1  0  0  0
  3  4  1  0  0  0
  3  5  1  0  0  0
  5  6  1  0  0  0
  6  7  1  0  0  0
  7  8  1  0  0  0
  7  9  1  0  0  0
  9 10  1  0  0  0
 10 11  2  0  0  0
 11 12  1  0  0  0
 12 13  2  0  0  0
 13 14  1  0  0  0
 14 15  2  0  0  0
 15 16  1  0  0  0
 16 17  2  0  0  0
 17 18  1  0  0  0
 18 19  1  0  0  0
 19 20  1  0  0  0
 20 21  2  0  0  0
 20 22  1  0  0  0
 22 23  2  0  0  0
 23 24  1  0  0  0
 24 25  2  0  0  0
 25 26  1  0  0  0
 26 27  2  0  0  0
 27 28  1  0  0  0
 28 29  2  0  0  0
 29 30  1  0  0  0
 30 31  1  0  0  0
 31 32  2  0  0  0
  7  1  1  0  0  0
 32  9  1  0  0  0
 30  5  1  0  0  0
 15 10  1  0  0  0
 32 16  1  0  0  0
 22 17  1  0  0  0
 31 23  1  0  0  0
 29 24  1  0  0  0
  4 33  1  0  0  0
 19 34  1  0  0  0
M  END
> <minimizedAffinity>
-12.87709

> <CNNscore>
0.7594473362

> <CNNaffinity>
7.4204053879

> <CNN_VS>
5.6354069710

> <CNNaffinity_variance>
0.0393047966

$$$$
[H]O[C@@]1([H])C2([H])O[C@](C([H])([H])[H])(n3c4c([H])c([H])c([H])c([H])c4c4c5c(c6c7c([H])c([H])c([H])c([H])c7n2c6c43)C(=O)N([H])C5([H])[H])[C@@]([H])(C(=O)OC([H])([H])[H])C1([H])[H]


 38 45  0  0  0  0  0  0  0  0999 V2000
   41.3551   13.3845  -14.4392 C   0  0  0  0  0  0  0  0  0  0  0  0
   41.9659   14.3470  -13.3942 C   0  0  0  0  0  0  0  0  0  0  0  0
   40.8943   15.2652  -12.7230 C   0  0  0  0  0  0  0  0  0  0  0  0
   41.1903   16.5999  -13.1083 O   0  0  0  0  0  0  0  0  0  0  0  0
   39.7507   14.7764  -13.3159 C   0  0  0  0  0  0  0  0  0  0  0  0
   39.8780   15.0627  -14.6660 O   0  0  0  0  0  0  0  0  0  0  0  0
   40.2965   13.8374  -15.2898 C   0  0  0  0  0  0  0  0  0  0  0  0
   40.7425   14.3600  -16.6641 C   0  0  0  0  0  0  0  0  0  0  0  0
   39.0238   13.1411  -15.4610 N   0  0  0  0  0  0  0  0  0  0  0  0
   38.7839   12.2463  -16.4571 C   0  0  0  0  0  0  0  0  0  0  0  0
   39.5306   11.6244  -17.4345 C   0  0  0  0  0  0  0  0  0  0  0  0
   39.0041   10.7247  -18.3341 C   0  0  0  0  0  0  0  0  0  0  0  0
   37.6658   10.3922  -18.2995 C   0  0  0  0  0  0  0  0  0  0  0  0
   36.8922   10.9819  -17.3503 C   0  0  0  0  0  0  0  0  0  0  0  0
   37.4342   11.8780  -16.4600 C   0  0  0  0  0  0  0  0  0  0  0  0
   36.8410   12.5512  -15.4508 C   0  0  0  0  0  0  0  0  0  0  0  0
   35.5556   12.6755  -14.9360 C   0  0  0  0  0  0  0  0  0  0  0  0
   34.3270   11.9865  -15.3898 C   0  0  0  0  0  0  0  0  0  0  0  0
   33.2867   12.4687  -14.5309 N   0  0  0  0  0  0  0  0  0  0  0  0
   33.8352   13.4141  -13.5798 C   0  0  0  0  0  0  0  0  0  0  0  0
   33.1130   13.9585  -12.7361 O   0  0  0  0  0  0  0  0  0  0  0  0
   35.2292   13.5091  -13.8660 C   0  0  0  0  0  0  0  0  0  0  0  0
   36.2334   14.2586  -13.2696 C   0  0  0  0  0  0  0  0  0  0  0  0
   36.3385   15.1085  -12.2179 C   0  0  0  0  0  0  0  0  0  0  0  0
   35.4277   15.6179  -11.3295 C   0  0  0  0  0  0  0  0  0  0  0  0
   35.8931   16.4852  -10.3458 C   0  0  0  0  0  0  0  0  0  0  0  0
   37.2153   16.8508  -10.2266 C   0  0  0  0  0  0  0  0  0  0  0  0
   38.1421   16.3350  -11.1276 C   0  0  0  0  0  0  0  0  0  0  0  0
   37.6716   15.4850  -12.0880 C   0  0  0  0  0  0  0  0  0  0  0  0
   38.3669   14.8790  -13.0417 N   0  0  0  0  0  0  0  0  0  0  0  0
   37.4975   14.1161  -13.7986 C   0  0  0  0  0  0  0  0  0  0  0  0
   37.8116   13.2918  -14.8684 C   0  0  0  0  0  0  0  0  0  0  0  0
   41.6891   17.0535  -12.3806 H   0  0  0  0  0  0  0  0  0  0  0  0
   32.2845   12.1622  -14.6062 H   0  0  0  0  0  0  0  0  0  0  0  0
   42.6070   13.1052  -15.2597 C   0  0  0  0  0  0  0  0  0  0  0  0
   42.6600   12.2068  -16.1121 O   0  0  0  0  0  0  0  0  0  0  0  0
   45.0531   13.5001  -15.3609 C   0  0  0  0  0  0  0  0  0  0  0  0
   43.7274   13.8883  -15.0404 O   0  0  0  0  0  0  0  0  0  0  0  0
 37 38  1  0  0  0
 38 35  1  0  0  0
 35 36  2  0  0  0
 35  1  1  0  0  0
  1  2  1  0  0  0
  2  3  1  0  0  0
  3  4  1  0  0  0
  3  5  1  0  0  0
  5  6  1  0  0  0
  6  7  1  0  0  0
  7  8  1  0  0  0
  7  9  1  0  0  0
  9 10  1  0  0  0
 10 11  2  0  0  0
 11 12  1  0  0  0
 12 13  2  0  0  0
 13 14  1  0  0  0
 14 15  2  0  0  0
 15 16  1  0  0  0
 16 17  2  0  0  0
 17 18  1  0  0  0
 18 19  1  0  0  0
 19 20  1  0  0  0
 20 21  2  0  0  0
 20 22  1  0  0  0
 22 23  2  0  0  0
 23 24  1  0  0  0
 24 25  2  0  0  0
 25 26  1  0  0  0
 26 27  2  0  0  0
 27 28  1  0  0  0
 28 29  2  0  0  0
 29 30  1  0  0  0
 30 31  1  0  0  0
 31 32  2  0  0  0
  7  1  1  0  0  0
 32  9  1  0  0  0
 30  5  1  0  0  0
 15 10  1  0  0  0
 32 16  1  0  0  0
 22 17  1  0  0  0
 31 23  1  0  0  0
 29 24  1  0  0  0
  4 33  1  0  0  0
 19 34  1  0  0  0
M  END
> <minimizedAffinity>
-12.76004

> <CNNscore>
0.5519766808

> <CNNaffinity>
6.9466476440

> <CNN_VS>
3.8343875408

> <CNNaffinity_variance>
0.0827177763

$$$$
[H]O[C@@]1([H])C2([H])O[C@](C([H])([H])[H])(n3c4c([H])c([H])c([H])c([H])c4c4c5c(c6c7c([H])c([H])c([H])c([H])c7n2c6c43)C(=O)N([H])C5([H])[H])[C@@]([H])(C(=O)OC([H])([H])[H])C1([H])[H]


 38 45  0  0  0  0  0  0  0  0999 V2000
   35.8122   14.7475  -13.2676 C   0  0  0  0  0  0  0  0  0  0  0  0
   36.0015   15.6928  -12.0583 C   0  0  0  0  0  0  0  0  0  0  0  0
   37.4836   15.7509  -11.5662 C   0  0  0  0  0  0  0  0  0  0  0  0
   37.5095   15.1971  -10.2585 O   0  0  0  0  0  0  0  0  0  0  0  0
   38.0826   14.9394  -12.5047 C   0  0  0  0  0  0  0  0  0  0  0  0
   37.5410   13.6788  -12.3091 O   0  0  0  0  0  0  0  0  0  0  0  0
   36.5419   13.5175  -13.3296 C   0  0  0  0  0  0  0  0  0  0  0  0
   35.7921   12.2868  -12.7967 C   0  0  0  0  0  0  0  0  0  0  0  0
   37.3491   13.0967  -14.4721 N   0  0  0  0  0  0  0  0  0  0  0  0
   36.8805   12.3034  -15.4728 C   0  0  0  0  0  0  0  0  0  0  0  0
   35.6557   11.7913  -15.8432 C   0  0  0  0  0  0  0  0  0  0  0  0
   35.4703   10.9931  -16.9499 C   0  0  0  0  0  0  0  0  0  0  0  0
   36.5315   10.6584  -17.7651 C   0  0  0  0  0  0  0  0  0  0  0  0
   37.7581   11.1430  -17.4371 C   0  0  0  0  0  0  0  0  0  0  0  0
   37.9254   11.9385  -16.3286 C   0  0  0  0  0  0  0  0  0  0  0  0
   39.0466   12.5190  -15.8495 C   0  0  0  0  0  0  0  0  0  0  0  0
   40.3961   12.5402  -16.1830 C   0  0  0  0  0  0  0  0  0  0  0  0
   41.0579   11.8730  -17.3263 C   0  0  0  0  0  0  0  0  0  0  0  0
   42.4450   12.2110  -17.2069 N   0  0  0  0  0  0  0  0  0  0  0  0
   42.6461   13.0534  -16.0454 C   0  0  0  0  0  0  0  0  0  0  0  0
   43.7728   13.4682  -15.7485 O   0  0  0  0  0  0  0  0  0  0  0  0
   41.3624   13.2286  -15.4490 C   0  0  0  0  0  0  0  0  0  0  0  0
   40.9693   13.9393  -14.3237 C   0  0  0  0  0  0  0  0  0  0  0  0
   41.5613   14.7492  -13.4111 C   0  0  0  0  0  0  0  0  0  0  0  0
   42.8569   15.1508  -13.2147 C   0  0  0  0  0  0  0  0  0  0  0  0
   43.1171   16.0131  -12.1539 C   0  0  0  0  0  0  0  0  0  0  0  0
   42.1403   16.4763  -11.3012 C   0  0  0  0  0  0  0  0  0  0  0  0
   40.8239   16.0699  -11.4984 C   0  0  0  0  0  0  0  0  0  0  0  0
   40.5826   15.2233  -12.5431 C   0  0  0  0  0  0  0  0  0  0  0  0
   39.4166   14.7125  -12.9165 N   0  0  0  0  0  0  0  0  0  0  0  0
   39.6267   13.9019  -14.0164 C   0  0  0  0  0  0  0  0  0  0  0  0
   38.6741   13.2077  -14.7465 C   0  0  0  0  0  0  0  0  0  0  0  0
   37.5080   15.9279   -9.5875 H   0  0  0  0  0  0  0  0  0  0  0  0
   43.1818   11.8803  -17.8791 H   0  0  0  0  0  0  0  0  0  0  0  0
   34.3229   14.4692  -13.1158 C   0  0  0  0  0  0  0  0  0  0  0  0
   33.6524   13.9207  -14.0025 O   0  0  0  0  0  0  0  0  0  0  0  0
   32.3070   15.0901  -11.8119 C   0  0  0  0  0  0  0  0  0  0  0  0
   33.6981   14.8463  -11.9394 O   0  0  0  0  0  0  0  0  0  0  0  0
 37 38  1  0  0  0
 38 35  1  0  0  0
 35 36  2  0  0  0
 35  1  1  0  0  0
  1  2  1  0  0  0
  2  3  1  0  0  0
  3  4  1  0  0  0
  3  5  1  0  0  0
  5  6  1  0  0  0
  6  7  1  0  0  0
  7  8  1  0  0  0
  7  9  1  0  0  0
  9 10  1  0  0  0
 10 11  2  0  0  0
 11 12  1  0  0  0
 12 13  2  0  0  0
 13 14  1  0  0  0
 14 15  2  0  0  0
 15 16  1  0  0  0
 16 17  2  0  0  0
 17 18  1  0  0  0
 18 19  1  0  0  0
 19 20  1  0  0  0
 20 21  2  0  0  0
 20 22  1  0  0  0
 22 23  2  0  0  0
 23 24  1  0  0  0
 24 25  2  0  0  0
 25 26  1  0  0  0
 26 27  2  0  0  0
 27 28  1  0  0  0
 28 29  2  0  0  0
 29 30  1  0  0  0
 30 31  1  0  0  0
 31 32  2  0  0  0
  7  1  1  0  0  0
 32  9  1  0  0  0
 30  5  1  0  0  0
 15 10  1  0  0  0
 32 16  1  0  0  0
 22 17  1  0  0  0
 31 23  1  0  0  0
 29 24  1  0  0  0
  4 33  1  0  0  0
 19 34  1  0  0  0
M  END
> <minimizedAffinity>
-12.69303

> <CNNscore>
0.4550504982

> <CNNaffinity>
6.8437476158

> <CNN_VS>
3.1142506599

> <CNNaffinity_variance>
0.1808119863

$$$$
[H]O[C@@]1([H])C2([H])O[C@](C([H])([H])[H])(n3c4c([H])c([H])c([H])c([H])c4c4c5c(c6c7c([H])c([H])c([H])c([H])c7n2c6c43)C(=O)N([H])C5([H])[H])[C@@]([H])(C(=O)OC([H])([H])[H])C1([H])[H]


 38 45  0  0  0  0  0  0  0  0999 V2000
   36.4112   13.9456  -11.6799 C   0  0  0  0  0  0  0  0  0  0  0  0
   35.0750   13.3193  -12.1426 C   0  0  0  0  0  0  0  0  0  0  0  0
   35.1130   12.8543  -13.6340 C   0  0  0  0  0  0  0  0  0  0  0  0
   34.1854   13.6615  -14.3449 O   0  0  0  0  0  0  0  0  0  0  0  0
   36.4239   13.1426  -13.9445 C   0  0  0  0  0  0  0  0  0  0  0  0
   36.5363   14.5206  -13.8486 O   0  0  0  0  0  0  0  0  0  0  0  0
   37.1551   14.7769  -12.5770 C   0  0  0  0  0  0  0  0  0  0  0  0
   36.8944   16.2846  -12.4366 C   0  0  0  0  0  0  0  0  0  0  0  0
   38.5693   14.5889  -12.8911 N   0  0  0  0  0  0  0  0  0  0  0  0
   39.5764   15.2291  -12.2384 C   0  0  0  0  0  0  0  0  0  0  0  0
   39.6832   16.0405  -11.1294 C   0  0  0  0  0  0  0  0  0  0  0  0
   40.8777   16.5576  -10.6798 C   0  0  0  0  0  0  0  0  0  0  0  0
   42.0589   16.2803  -11.3358 C   0  0  0  0  0  0  0  0  0  0  0  0
   41.9997   15.4828  -12.4346 C   0  0  0  0  0  0  0  0  0  0  0  0
   40.7988   14.9750  -12.8699 C   0  0  0  0  0  0  0  0  0  0  0  0
   40.5383   14.1656  -13.9190 C   0  0  0  0  0  0  0  0  0  0  0  0
   41.2649   13.5809  -14.9499 C   0  0  0  0  0  0  0  0  0  0  0  0
   42.7220   13.6669  -15.1941 C   0  0  0  0  0  0  0  0  0  0  0  0
   42.9509   12.8933  -16.3780 N   0  0  0  0  0  0  0  0  0  0  0  0
   41.6977   12.3440  -16.8545 C   0  0  0  0  0  0  0  0  0  0  0  0
   41.6582   11.6376  -17.8690 O   0  0  0  0  0  0  0  0  0  0  0  0
   40.6920   12.7918  -15.9477 C   0  0  0  0  0  0  0  0  0  0  0  0
   39.3230   12.5657  -15.9204 C   0  0  0  0  0  0  0  0  0  0  0  0
   38.4271   11.8448  -16.6394 C   0  0  0  0  0  0  0  0  0  0  0  0
   38.5356   11.0654  -17.7615 C   0  0  0  0  0  0  0  0  0  0  0  0
   37.3823   10.4524  -18.2418 C   0  0  0  0  0  0  0  0  0  0  0  0
   36.1491   10.5928  -17.6457 C   0  0  0  0  0  0  0  0  0  0  0  0
   36.0363   11.3838  -16.5062 C   0  0  0  0  0  0  0  0  0  0  0  0
   37.1761   11.9797  -16.0455 C   0  0  0  0  0  0  0  0  0  0  0  0
   37.3043   12.7681  -14.9863 N   0  0  0  0  0  0  0  0  0  0  0  0
   38.6274   13.1561  -14.8879 C   0  0  0  0  0  0  0  0  0  0  0  0
   39.2035   13.9465  -13.9052 C   0  0  0  0  0  0  0  0  0  0  0  0
   33.3335   13.1664  -14.4606 H   0  0  0  0  0  0  0  0  0  0  0  0
   43.8994   12.7635  -16.8109 H   0  0  0  0  0  0  0  0  0  0  0  0
   35.8908   14.7680  -10.5089 C   0  0  0  0  0  0  0  0  0  0  0  0
   36.5272   14.9046   -9.4539 O   0  0  0  0  0  0  0  0  0  0  0  0
   33.9367   15.9606   -9.5558 C   0  0  0  0  0  0  0  0  0  0  0  0
   34.6576   15.3847  -10.6326 O   0  0  0  0  0  0  0  0  0  0  0  0
 37 38  1  0  0  0
 38 35  1  0  0  0
 35 36  2  0  0  0
 35  1  1  0  0  0
  1  2  1  0  0  0
  2  3  1  0  0  0
  3  4  1  0  0  0
  3  5  1  0  0  0
  5  6  1  0  0  0
  6  7  1  0  0  0
  7  8  1  0  0  0
  7  9  1  0  0  0
  9 10  1  0  0  0
 10 11  2  0  0  0
 11 12  1  0  0  0
 12 13  2  0  0  0
 13 14  1  0  0  0
 14 15  2  0  0  0
 15 16  1  0  0  0
 16 17  2  0  0  0
 17 18  1  0  0  0
 18 19  1  0  0  0
 19 20  1  0  0  0
 20 21  2  0  0  0
 20 22  1  0  0  0
 22 23  2  0  0  0
 23 24  1  0  0  0
 24 25  2  0  0  0
 25 26  1  0  0  0
 26 27  2  0  0  0
 27 28  1  0  0  0
 28 29  2  0  0  0
 29 30  1  0  0  0
 30 31  1  0  0  0
 31 32  2  0  0  0
  7  1  1  0  0  0
 32  9  1  0  0  0
 30  5  1  0  0  0
 15 10  1  0  0  0
 32 16  1  0  0  0
 22 17  1  0  0  0
 31 23  1  0  0  0
 29 24  1  0  0  0
  4 33  1  0  0  0
 19 34  1  0  0  0
M  END
> <minimizedAffinity>
-11.13395

> <CNNscore>
0.3997546434

> <CNNaffinity>
6.6261968613

> <CNN_VS>
2.6488530636

> <CNNaffinity_variance>
0.1060616150

$$$$
[H]O[C@@]1([H])C2([H])O[C@](C([H])([H])[H])(n3c4c([H])c([H])c([H])c([H])c4c4c5c(c6c7c([H])c([H])c([H])c([H])c7n2c6c43)C(=O)N([H])C5([H])[H])[C@@]([H])(C(=O)OC([H])([H])[H])C1([H])[H]


 38 45  0  0  0  0  0  0  0  0999 V2000
   37.8226   14.3093  -11.3157 C   0  0  0  0  0  0  0  0  0  0  0  0
   36.3119   14.2535  -10.9894 C   0  0  0  0  0  0  0  0  0  0  0  0
   35.4424   13.8674  -12.2291 C   0  0  0  0  0  0  0  0  0  0  0  0
   34.6312   14.9926  -12.5347 O   0  0  0  0  0  0  0  0  0  0  0  0
   36.4328   13.6506  -13.1618 C   0  0  0  0  0  0  0  0  0  0  0  0
   37.0476   14.8788  -13.3466 O   0  0  0  0  0  0  0  0  0  0  0  0
   38.2591   14.8321  -12.5748 C   0  0  0  0  0  0  0  0  0  0  0  0
   38.6437   16.3196  -12.5653 C   0  0  0  0  0  0  0  0  0  0  0  0
   39.1650   14.1358  -13.4850 N   0  0  0  0  0  0  0  0  0  0  0  0
   40.5125   14.3215  -13.4934 C   0  0  0  0  0  0  0  0  0  0  0  0
   41.4280   14.9882  -12.7079 C   0  0  0  0  0  0  0  0  0  0  0  0
   42.7814   14.9972  -12.9616 C   0  0  0  0  0  0  0  0  0  0  0  0
   43.3015   14.3197  -14.0448 C   0  0  0  0  0  0  0  0  0  0  0  0
   42.4337   13.6474  -14.8461 C   0  0  0  0  0  0  0  0  0  0  0  0
   41.0854   13.6489  -14.5782 C   0  0  0  0  0  0  0  0  0  0  0  0
   40.0778   13.0399  -15.2396 C   0  0  0  0  0  0  0  0  0  0  0  0
   39.9434   12.2647  -16.3858 C   0  0  0  0  0  0  0  0  0  0  0  0
   41.0131   11.8029  -17.2983 C   0  0  0  0  0  0  0  0  0  0  0  0
   40.3410   11.0471  -18.3130 N   0  0  0  0  0  0  0  0  0  0  0  0
   38.9163   11.0316  -18.0498 C   0  0  0  0  0  0  0  0  0  0  0  0
   38.1376   10.4329  -18.8015 O   0  0  0  0  0  0  0  0  0  0  0  0
   38.7194   11.7906  -16.8584 C   0  0  0  0  0  0  0  0  0  0  0  0
   37.5640   12.0981  -16.1538 C   0  0  0  0  0  0  0  0  0  0  0  0
   36.2444   11.7982  -16.2429 C   0  0  0  0  0  0  0  0  0  0  0  0
   35.5049   11.0803  -17.1462 C   0  0  0  0  0  0  0  0  0  0  0  0
   34.1358   10.9682  -16.9236 C   0  0  0  0  0  0  0  0  0  0  0  0
   33.4973   11.5410  -15.8465 C   0  0  0  0  0  0  0  0  0  0  0  0
   34.2459   12.2707  -14.9278 C   0  0  0  0  0  0  0  0  0  0  0  0
   35.5886   12.3728  -15.1585 C   0  0  0  0  0  0  0  0  0  0  0  0
   36.4886   13.0120  -14.4228 N   0  0  0  0  0  0  0  0  0  0  0  0
   37.7258   12.8667  -15.0219 C   0  0  0  0  0  0  0  0  0  0  0  0
   38.9454   13.3414  -14.5640 C   0  0  0  0  0  0  0  0  0  0  0  0
   33.7237   14.8614  -12.1560 H   0  0  0  0  0  0  0  0  0  0  0  0
   40.8373   10.5854  -19.1158 H   0  0  0  0  0  0  0  0  0  0  0  0
   38.2730   15.2209  -10.1823 C   0  0  0  0  0  0  0  0  0  0  0  0
   39.4302   15.2120   -9.7380 O   0  0  0  0  0  0  0  0  0  0  0  0
   37.6613   17.3817   -9.1304 C   0  0  0  0  0  0  0  0  0  0  0  0
   37.3494   16.0915   -9.6295 O   0  0  0  0  0  0  0  0  0  0  0  0
 37 38  1  0  0  0
 38 35  1  0  0  0
 35 36  2  0  0  0
 35  1  1  0  0  0
  1  2  1  0  0  0
  2  3  1  0  0  0
  3  4  1  0  0  0
  3  5  1  0  0  0
  5  6  1  0  0  0
  6  7  1  0  0  0
  7  8  1  0  0  0
  7  9  1  0  0  0
  9 10  1  0  0  0
 10 11  2  0  0  0
 11 12  1  0  0  0
 12 13  2  0  0  0
 13 14  1  0  0  0
 14 15  2  0  0  0
 15 16  1  0  0  0
 16 17  2  0  0  0
 17 18  1  0  0  0
 18 19  1  0  0  0
 19 20  1  0  0  0
 20 21  2  0  0  0
 20 22  1  0  0  0
 22 23  2  0  0  0
 23 24  1  0  0  0
 24 25  2  0  0  0
 25 26  1  0  0  0
 26 27  2  0  0  0
 27 28  1  0  0  0
 28 29  2  0  0  0
 29 30  1  0  0  0
 30 31  1  0  0  0
 31 32  2  0  0  0
  7  1  1  0  0  0
 32  9  1  0  0  0
 30  5  1  0  0  0
 15 10  1  0  0  0
 32 16  1  0  0  0
 22 17  1  0  0  0
 31 23  1  0  0  0
 29 24  1  0  0  0
  4 33  1  0  0  0
 19 34  1  0  0  0
M  END
> <minimizedAffinity>
-10.59036

> <CNNscore>
0.3667244315

> <CNNaffinity>
6.8786993027

> <CNN_VS>
2.5225870609

> <CNNaffinity_variance>
0.0667382479

$$$$
[H]O[C@@]1([H])C2([H])O[C@](C([H])([H])[H])(n3c4c([H])c([H])c([H])c([H])c4c4c5c(c6c7c([H])c([H])c([H])c([H])c7n2c6c43)C(=O)N([H])C5([H])[H])[C@@]([H])(C(=O)OC([H])([H])[H])C1([H])[H]


 38 45  0  0  0  0  0  0  0  0999 V2000
   36.4233   14.6921  -13.5582 C   0  0  0  0  0  0  0  0  0  0  0  0
   36.5649   15.6424  -12.3464 C   0  0  0  0  0  0  0  0  0  0  0  0
   38.0274   15.7061  -11.7993 C   0  0  0  0  0  0  0  0  0  0  0  0
   38.0055   15.1575  -10.4893 O   0  0  0  0  0  0  0  0  0  0  0  0
   38.6630   14.8925  -12.7115 C   0  0  0  0  0  0  0  0  0  0  0  0
   38.1175   13.6313  -12.5313 O   0  0  0  0  0  0  0  0  0  0  0  0
   37.1578   13.4637  -13.5880 C   0  0  0  0  0  0  0  0  0  0  0  0
   36.3914   12.2332  -13.0787 C   0  0  0  0  0  0  0  0  0  0  0  0
   38.0082   13.0405  -14.6977 N   0  0  0  0  0  0  0  0  0  0  0  0
   37.5793   12.2422  -15.7122 C   0  0  0  0  0  0  0  0  0  0  0  0
   36.3705   11.7256  -16.1262 C   0  0  0  0  0  0  0  0  0  0  0  0
   36.2286   10.9227  -17.2360 C   0  0  0  0  0  0  0  0  0  0  0  0
   37.3204   10.5875  -18.0095 C   0  0  0  0  0  0  0  0  0  0  0  0
   38.5328   11.0764  -17.6376 C   0  0  0  0  0  0  0  0  0  0  0  0
   38.6565   11.8766  -16.5267 C   0  0  0  0  0  0  0  0  0  0  0  0
   39.7576   12.4617  -16.0082 C   0  0  0  0  0  0  0  0  0  0  0  0
   41.1185   12.4850  -16.2909 C   0  0  0  0  0  0  0  0  0  0  0  0
   41.8243   11.8151  -17.4059 C   0  0  0  0  0  0  0  0  0  0  0  0
   43.2051   12.1569  -17.2360 N   0  0  0  0  0  0  0  0  0  0  0  0
   43.3606   13.0043  -16.0711 C   0  0  0  0  0  0  0  0  0  0  0  0
   44.4744   13.4231  -15.7337 O   0  0  0  0  0  0  0  0  0  0  0  0
   42.0550   13.1786  -15.5239 C   0  0  0  0  0  0  0  0  0  0  0  0
   41.6183   13.8926  -14.4169 C   0  0  0  0  0  0  0  0  0  0  0  0
   42.1738   14.7075  -13.4860 C   0  0  0  0  0  0  0  0  0  0  0  0
   43.4601   15.1130  -13.2427 C   0  0  0  0  0  0  0  0  0  0  0  0
   43.6783   15.9801  -12.1763 C   0  0  0  0  0  0  0  0  0  0  0  0
   42.6691   16.4441  -11.3627 C   0  0  0  0  0  0  0  0  0  0  0  0
   41.3620   16.0337  -11.6075 C   0  0  0  0  0  0  0  0  0  0  0  0
   41.1621   15.1825  -12.6572 C   0  0  0  0  0  0  0  0  0  0  0  0
   40.0122   14.6673  -13.0721 N   0  0  0  0  0  0  0  0  0  0  0  0
   40.2652   13.8531  -14.1601 C   0  0  0  0  0  0  0  0  0  0  0  0
   39.3423   13.1537  -14.9227 C   0  0  0  0  0  0  0  0  0  0  0  0
   37.9771   15.8908   -9.8218 H   0  0  0  0  0  0  0  0  0  0  0  0
   43.9674   11.8255  -17.8787 H   0  0  0  0  0  0  0  0  0  0  0  0
   34.9300   14.4107  -13.4613 C   0  0  0  0  0  0  0  0  0  0  0  0
   34.2923   14.5454  -12.4069 O   0  0  0  0  0  0  0  0  0  0  0  0
   33.2431   13.0028  -14.6110 C   0  0  0  0  0  0  0  0  0  0  0  0
   34.2636   13.9874  -14.5985 O   0  0  0  0  0  0  0  0  0  0  0  0
 37 38  1  0  0  0
 38 35  1  0  0  0
 35 36  2  0  0  0
 35  1  1  0  0  0
  1  2  1  0  0  0
  2  3  1  0  0  0
  3  4  1  0  0  0
  3  5  1  0  0  0
  5  6  1  0  0  0
  6  7  1  0  0  0
  7  8  1  0  0  0
  7  9  1  0  0  0
  9 10  1  0  0  0
 10 11  2  0  0  0
 11 12  1  0  0  0
 12 13  2  0  0  0
 13 14  1  0  0  0
 14 15  2  0  0  0
 15 16  1  0  0  0
 16 17  2  0  0  0
 17 18  1  0  0  0
 18 19  1  0  0  0
 19 20  1  0  0  0
 20 21  2  0  0  0
 20 22  1  0  0  0
 22 23  2  0  0  0
 23 24  1  0  0  0
 24 25  2  0  0  0
 25 26  1  0  0  0
 26 27  2  0  0  0
 27 28  1  0  0  0
 28 29  2  0  0  0
 29 30  1  0  0  0
 30 31  1  0  0  0
 31 32  2  0  0  0
  7  1  1  0  0  0
 32  9  1  0  0  0
 30  5  1  0  0  0
 15 10  1  0  0  0
 32 16  1  0  0  0
 22 17  1  0  0  0
 31 23  1  0  0  0
 29 24  1  0  0  0
  4 33  1  0  0  0
 19 34  1  0  0  0
M  END
> <minimizedAffinity>
-12.18963

> <CNNscore>
0.3011972308

> <CNNaffinity>
6.6180839539

> <CNN_VS>
1.9933485985

> <CNNaffinity_variance>
0.2887180746

$$$$
[H]O[C@@]1([H])C2([H])O[C@](C([H])([H])[H])(n3c4c([H])c([H])c([H])c([H])c4c4c5c(c6c7c([H])c([H])c([H])c([H])c7n2c6c43)C(=O)N([H])C5([H])[H])[C@@]([H])(C(=O)OC([H])([H])[H])C1([H])[H]


 38 45  0  0  0  0  0  0  0  0999 V2000
   39.9370   15.1325  -10.9725 C   0  0  0  0  0  0  0  0  0  0  0  0
   38.7138   15.6084  -10.1546 C   0  0  0  0  0  0  0  0  0  0  0  0
   37.3755   15.4969  -10.9536 C   0  0  0  0  0  0  0  0  0  0  0  0
   36.8936   16.8194  -11.1442 O   0  0  0  0  0  0  0  0  0  0  0  0
   37.8351   14.9202  -12.1173 C   0  0  0  0  0  0  0  0  0  0  0  0
   38.6814   15.8567  -12.6897 O   0  0  0  0  0  0  0  0  0  0  0  0
   40.0155   15.4275  -12.3711 C   0  0  0  0  0  0  0  0  0  0  0  0
   40.8103   16.6933  -12.7270 C   0  0  0  0  0  0  0  0  0  0  0  0
   40.2630   14.4302  -13.4095 N   0  0  0  0  0  0  0  0  0  0  0  0
   41.4998   14.1438  -13.8980 C   0  0  0  0  0  0  0  0  0  0  0  0
   42.7966   14.4862  -13.5808 C   0  0  0  0  0  0  0  0  0  0  0  0
   43.8942   14.0228  -14.2712 C   0  0  0  0  0  0  0  0  0  0  0  0
   43.7450   13.1687  -15.3439 C   0  0  0  0  0  0  0  0  0  0  0  0
   42.4825   12.8042  -15.6910 C   0  0  0  0  0  0  0  0  0  0  0  0
   41.3978   13.2762  -14.9908 C   0  0  0  0  0  0  0  0  0  0  0  0
   40.0835   13.0241  -15.1710 C   0  0  0  0  0  0  0  0  0  0  0  0
   39.3064   12.2995  -16.0677 C   0  0  0  0  0  0  0  0  0  0  0  0
   39.7684   11.4664  -17.2002 C   0  0  0  0  0  0  0  0  0  0  0  0
   38.5737   10.9487  -17.7977 N   0  0  0  0  0  0  0  0  0  0  0  0
   37.4150   11.4307  -17.0737 C   0  0  0  0  0  0  0  0  0  0  0  0
   36.2715   11.1067  -17.4161 O   0  0  0  0  0  0  0  0  0  0  0  0
   37.9128   12.2550  -16.0216 C   0  0  0  0  0  0  0  0  0  0  0  0
   37.2518   12.9647  -15.0289 C   0  0  0  0  0  0  0  0  0  0  0  0
   35.9688   13.1308  -14.6221 C   0  0  0  0  0  0  0  0  0  0  0  0
   34.7674   12.6757  -15.0996 C   0  0  0  0  0  0  0  0  0  0  0  0
   33.6131   13.0465  -14.4165 C   0  0  0  0  0  0  0  0  0  0  0  0
   33.6242   13.8426  -13.2931 C   0  0  0  0  0  0  0  0  0  0  0  0
   34.8428   14.3061  -12.8063 C   0  0  0  0  0  0  0  0  0  0  0  0
   35.9679   13.9347  -13.4864 C   0  0  0  0  0  0  0  0  0  0  0  0
   37.2244   14.2547  -13.2059 N   0  0  0  0  0  0  0  0  0  0  0  0
   38.0456   13.6732  -14.1536 C   0  0  0  0  0  0  0  0  0  0  0  0
   39.4302   13.7193  -14.2121 C   0  0  0  0  0  0  0  0  0  0  0  0
   36.1963   17.0203  -10.4678 H   0  0  0  0  0  0  0  0  0  0  0  0
   38.5726   10.3157  -18.6364 H   0  0  0  0  0  0  0  0  0  0  0  0
   41.0284   15.8767  -10.2152 C   0  0  0  0  0  0  0  0  0  0  0  0
   40.7873   16.8355   -9.4675 O   0  0  0  0  0  0  0  0  0  0  0  0
   43.4660   16.1462   -9.8478 C   0  0  0  0  0  0  0  0  0  0  0  0
   42.3400   15.4622  -10.3722 O   0  0  0  0  0  0  0  0  0  0  0  0
 37 38  1  0  0  0
 38 35  1  0  0  0
 35 36  2  0  0  0
 35  1  1  0  0  0
  1  2  1  0  0  0
  2  3  1  0  0  0
  3  4  1  0  0  0
  3  5  1  0  0  0
  5  6  1  0  0  0
  6  7  1  0  0  0
  7  8  1  0  0  0
  7  9  1  0  0  0
  9 10  1  0  0  0
 10 11  2  0  0  0
 11 12  1  0  0  0
 12 13  2  0  0  0
 13 14  1  0  0  0
 14 15  2  0  0  0
 15 16  1  0  0  0
 16 17  2  0  0  0
 17 18  1  0  0  0
 18 19  1  0  0  0
 19 20  1  0  0  0
 20 21  2  0  0  0
 20 22  1  0  0  0
 22 23  2  0  0  0
 23 24  1  0  0  0
 24 25  2  0  0  0
 25 26  1  0  0  0
 26 27  2  0  0  0
 27 28  1  0  0  0
 28 29  2  0  0  0
 29 30  1  0  0  0
 30 31  1  0  0  0
 31 32  2  0  0  0
  7  1  1  0  0  0
 32  9  1  0  0  0
 30  5  1  0  0  0
 15 10  1  0  0  0
 32 16  1  0  0  0
 22 17  1  0  0  0
 31 23  1  0  0  0
 29 24  1  0  0  0
  4 33  1  0  0  0
 19 34  1  0  0  0
M  END
> <minimizedAffinity>
-10.86300

> <CNNscore>
0.1739990860

> <CNNaffinity>
6.3997602463

> <CNN_VS>
1.1135524511

> <CNNaffinity_variance>
0.2456899434

$$$$
[H]O[C@@]1([H])C2([H])O[C@](C([H])([H])[H])(n3c4c([H])c([H])c([H])c([H])c4c4c5c(c6c7c([H])c([H])c([H])c([H])c7n2c6c43)C(=O)N([H])C5([H])[H])[C@@]([H])(C(=O)OC([H])([H])[H])C1([H])[H]


 38 45  0  0  0  0  0  0  0  0999 V2000
   40.6809   13.3902  -16.4483 C   0  0  0  0  0  0  0  0  0  0  0  0
   40.3818   12.3911  -17.5902 C   0  0  0  0  0  0  0  0  0  0  0  0
   39.0044   11.6736  -17.4165 C   0  0  0  0  0  0  0  0  0  0  0  0
   39.2768   10.2947  -17.2122 O   0  0  0  0  0  0  0  0  0  0  0  0
   38.5442   12.3039  -16.2812 C   0  0  0  0  0  0  0  0  0  0  0  0
   39.4241   11.9456  -15.2721 O   0  0  0  0  0  0  0  0  0  0  0  0
   40.3076   13.0668  -15.1047 C   0  0  0  0  0  0  0  0  0  0  0  0
   41.4167   12.4262  -14.2560 C   0  0  0  0  0  0  0  0  0  0  0  0
   39.5200   13.9391  -14.2371 N   0  0  0  0  0  0  0  0  0  0  0  0
   40.0688   14.8175  -13.3553 C   0  0  0  0  0  0  0  0  0  0  0  0
   41.3363   15.2786  -13.0715 C   0  0  0  0  0  0  0  0  0  0  0  0
   41.6036   16.2090  -12.0922 C   0  0  0  0  0  0  0  0  0  0  0  0
   40.5868   16.7404  -11.3264 C   0  0  0  0  0  0  0  0  0  0  0  0
   39.3202   16.3141  -11.5735 C   0  0  0  0  0  0  0  0  0  0  0  0
   39.0711   15.3845  -12.5550 C   0  0  0  0  0  0  0  0  0  0  0  0
   37.8966   14.8509  -12.9542 C   0  0  0  0  0  0  0  0  0  0  0  0
   36.5626   14.9433  -12.5738 C   0  0  0  0  0  0  0  0  0  0  0  0
   35.9803   15.7900  -11.5088 C   0  0  0  0  0  0  0  0  0  0  0  0
   34.5762   15.5062  -11.5287 N   0  0  0  0  0  0  0  0  0  0  0  0
   34.2882   14.5294  -12.5594 C   0  0  0  0  0  0  0  0  0  0  0  0
   33.1324   14.1357  -12.7567 O   0  0  0  0  0  0  0  0  0  0  0  0
   35.5360   14.2137  -13.1738 C   0  0  0  0  0  0  0  0  0  0  0  0
   35.8476   13.3470  -14.2119 C   0  0  0  0  0  0  0  0  0  0  0  0
   35.1662   12.5356  -15.0585 C   0  0  0  0  0  0  0  0  0  0  0  0
   33.8412   12.2067  -15.1788 C   0  0  0  0  0  0  0  0  0  0  0  0
   33.4799   11.3210  -16.1895 C   0  0  0  0  0  0  0  0  0  0  0  0
   34.3856   10.7657  -17.0654 C   0  0  0  0  0  0  0  0  0  0  0  0
   35.7317   11.0980  -16.9453 C   0  0  0  0  0  0  0  0  0  0  0  0
   36.0725   11.9683  -15.9489 C   0  0  0  0  0  0  0  0  0  0  0  0
   37.2831   12.4224  -15.6517 N   0  0  0  0  0  0  0  0  0  0  0  0
   37.1763   13.2754  -14.5692 C   0  0  0  0  0  0  0  0  0  0  0  0
   38.1919   13.9976  -13.9613 C   0  0  0  0  0  0  0  0  0  0  0  0
   39.1571    9.8018  -18.0648 H   0  0  0  0  0  0  0  0  0  0  0  0
   33.8847   15.9567  -10.8784 H   0  0  0  0  0  0  0  0  0  0  0  0
   42.1973   13.4432  -16.5753 C   0  0  0  0  0  0  0  0  0  0  0  0
   42.8683   14.4027  -16.1683 O   0  0  0  0  0  0  0  0  0  0  0  0
   44.1453   11.9278  -16.8168 C   0  0  0  0  0  0  0  0  0  0  0  0
   42.8469   12.3752  -17.1703 O   0  0  0  0  0  0  0  0  0  0  0  0
 37 38  1  0  0  0
 38 35  1  0  0  0
 35 36  2  0  0  0
 35  1  1  0  0  0
  1  2  1  0  0  0
  2  3  1  0  0  0
  3  4  1  0  0  0
  3  5  1  0  0  0
  5  6  1  0  0  0
  6  7  1  0  0  0
  7  8  1  0  0  0
  7  9  1  0  0  0
  9 10  1  0  0  0
 10 11  2  0  0  0
 11 12  1  0  0  0
 12 13  2  0  0  0
 13 14  1  0  0  0
 14 15  2  0  0  0
 15 16  1  0  0  0
 16 17  2  0  0  0
 17 18  1  0  0  0
 18 19  1  0  0  0
 19 20  1  0  0  0
 20 21  2  0  0  0
 20 22  1  0  0  0
 22 23  2  0  0  0
 23 24  1  0  0  0
 24 25  2  0  0  0
 25 26  1  0  0  0
 26 27  2  0  0  0
 27 28  1  0  0  0
 28 29  2  0  0  0
 29 30  1  0  0  0
 30 31  1  0  0  0
 31 32  2  0  0  0
  7  1  1  0  0  0
 32  9  1  0  0  0
 30  5  1  0  0  0
 15 10  1  0  0  0
 32 16  1  0  0  0
 22 17  1  0  0  0
 31 23  1  0  0  0
 29 24  1  0  0  0
  4 33  1  0  0  0
 19 34  1  0  0  0
M  END
> <minimizedAffinity>
-8.84658

> <CNNscore>
0.1715019643

> <CNNaffinity>
6.4320898056

> <CNN_VS>
1.1031160355

> <CNNaffinity_variance>
0.2838599086

$$$$
[H]O[C@@]1([H])C2([H])O[C@](C([H])([H])[H])(n3c4c([H])c([H])c([H])c([H])c4c4c5c(c6c7c([H])c([H])c([H])c([H])c7n2c6c43)C(=O)N([H])C5([H])[H])[C@@]([H])(C(=O)OC([H])([H])[H])C1([H])[H]


 38 45  0  0  0  0  0  0  0  0999 V2000
   46.5553   11.9622   -9.9866 C   0  0  0  0  0  0  0  0  0  0  0  0
   47.3421   10.8924   -9.1941 C   0  0  0  0  0  0  0  0  0  0  0  0
   46.7784   10.6756   -7.7528 C   0  0  0  0  0  0  0  0  0  0  0  0
   47.7863   11.0961   -6.8446 O   0  0  0  0  0  0  0  0  0  0  0  0
   45.6959   11.5272   -7.7853 C   0  0  0  0  0  0  0  0  0  0  0  0
   46.2257   12.8000   -7.9276 O   0  0  0  0  0  0  0  0  0  0  0  0
   46.0775   13.1342   -9.3176 C   0  0  0  0  0  0  0  0  0  0  0  0
   46.9991   14.3600   -9.4115 C   0  0  0  0  0  0  0  0  0  0  0  0
   44.6946   13.6023   -9.3651 N   0  0  0  0  0  0  0  0  0  0  0  0
   44.2420   14.5220  -10.2592 C   0  0  0  0  0  0  0  0  0  0  0  0
   44.7485   15.1582  -11.3720 C   0  0  0  0  0  0  0  0  0  0  0  0
   44.0343   16.0718  -12.1146 C   0  0  0  0  0  0  0  0  0  0  0  0
   42.7402   16.4036  -11.7715 C   0  0  0  0  0  0  0  0  0  0  0  0
   42.2005   15.7987  -10.6806 C   0  0  0  0  0  0  0  0  0  0  0  0
   42.9276   14.8889   -9.9505 C   0  0  0  0  0  0  0  0  0  0  0  0
   42.5689   14.1821   -8.8572 C   0  0  0  0  0  0  0  0  0  0  0  0
   41.4534   14.0921   -8.0323 C   0  0  0  0  0  0  0  0  0  0  0  0
   40.1691   14.8157   -8.1625 C   0  0  0  0  0  0  0  0  0  0  0  0
   39.3704   14.3646   -7.0620 N   0  0  0  0  0  0  0  0  0  0  0  0
   40.1158   13.4006   -6.2782 C   0  0  0  0  0  0  0  0  0  0  0  0
   39.6175   12.8755   -5.2753 O   0  0  0  0  0  0  0  0  0  0  0  0
   41.3869   13.2651   -6.9107 C   0  0  0  0  0  0  0  0  0  0  0  0
   42.4855   12.4799   -6.5906 C   0  0  0  0  0  0  0  0  0  0  0  0
   42.7912   11.5430   -5.6589 C   0  0  0  0  0  0  0  0  0  0  0  0
   42.1084   11.0281   -4.5879 C   0  0  0  0  0  0  0  0  0  0  0  0
   42.7378   10.0496   -3.8244 C   0  0  0  0  0  0  0  0  0  0  0  0
   44.0038    9.5804   -4.0945 C   0  0  0  0  0  0  0  0  0  0  0  0
   44.6993   10.1017   -5.1814 C   0  0  0  0  0  0  0  0  0  0  0  0
   44.0698   11.0615   -5.9222 C   0  0  0  0  0  0  0  0  0  0  0  0
   44.5366   11.6923   -6.9918 N   0  0  0  0  0  0  0  0  0  0  0  0
   43.5767   12.5879   -7.4247 C   0  0  0  0  0  0  0  0  0  0  0  0
   43.6378   13.4193   -8.5326 C   0  0  0  0  0  0  0  0  0  0  0  0
   48.2849   10.3058   -6.5115 H   0  0  0  0  0  0  0  0  0  0  0  0
   38.3926   14.7028   -6.8787 H   0  0  0  0  0  0  0  0  0  0  0  0
   47.6264   12.3355  -11.0024 C   0  0  0  0  0  0  0  0  0  0  0  0
   48.8382   12.2278  -10.7648 O   0  0  0  0  0  0  0  0  0  0  0  0
   46.2399   12.2024  -13.0541 C   0  0  0  0  0  0  0  0  0  0  0  0
   47.2253   12.8139  -12.2380 O   0  0  0  0  0  0  0  0  0  0  0  0
 37 38  1  0  0  0
 38 35  1  0  0  0
 35 36  2  0  0  0
 35  1  1  0  0  0
  1  2  1  0  0  0
  2  3  1  0  0  0
  3  4  1  0  0  0
  3  5  1  0  0  0
  5  6  1  0  0  0
  6  7  1  0  0  0
  7  8  1  0  0  0
  7  9  1  0  0  0
  9 10  1  0  0  0
 10 11  2  0  0  0
 11 12  1  0  0  0
 12 13  2  0  0  0
 13 14  1  0  0  0
 14 15  2  0  0  0
 15 16  1  0  0  0
 16 17  2  0  0  0
 17 18  1  0  0  0
 18 19  1  0  0  0
 19 20  1  0  0  0
 20 21  2  0  0  0
 20 22  1  0  0  0
 22 23  2  0  0  0
 23 24  1  0  0  0
 24 25  2  0  0  0
 25 26  1  0  0  0
 26 27  2  0  0  0
 27 28  1  0  0  0
 28 29  2  0  0  0
 29 30  1  0  0  0
 30 31  1  0  0  0
 31 32  2  0  0  0
  7  1  1  0  0  0
 32  9  1  0  0  0
 30  5  1  0  0  0
 15 10  1  0  0  0
 32 16  1  0  0  0
 22 17  1  0  0  0
 31 23  1  0  0  0
 29 24  1  0  0  0
  4 33  1  0  0  0
 19 34  1  0  0  0
M  END
> <minimizedAffinity>
-6.95200

> <CNNscore>
0.1293157041

> <CNNaffinity>
4.7357850075

> <CNN_VS>
0.6124113798

> <CNNaffinity_variance>
0.6281100512

$$$$
[H]OC([H])([H])[C@@]1(O[H])C([H])([H])[C@@]2([H])O[C@]1(C([H])([H])[H])n1c3c([H])c([H])c([H])c([H])c3c3c4c(c5c6c([H])c([H])c([H])c([H])c6n2c5c31)C(=O)N([H])C4([H])[H]


 36 43  0  0  0  0  0  0  0  0999 V2000
   35.5672   12.6524  -12.3372 C   0  0  0  0  0  0  0  0  0  0  0  0
   36.5228   13.1987  -13.3420 C   0  0  0  0  0  0  0  0  0  0  0  0
   37.7590   12.9025  -12.7039 O   0  0  0  0  0  0  0  0  0  0  0  0
   38.6875   13.8221  -13.0535 C   0  0  0  0  0  0  0  0  0  0  0  0
   37.9911   15.0999  -13.2528 C   0  0  0  0  0  0  0  0  0  0  0  0
   36.5430   14.6966  -13.4214 C   0  0  0  0  0  0  0  0  0  0  0  0
   36.1367   15.1823  -14.6552 O   0  0  0  0  0  0  0  0  0  0  0  0
   39.4591   13.3645  -14.2165 N   0  0  0  0  0  0  0  0  0  0  0  0
   40.7487   13.5035  -14.4713 C   0  0  0  0  0  0  0  0  0  0  0  0
   41.7091   14.1196  -13.7115 C   0  0  0  0  0  0  0  0  0  0  0  0
   43.0139   14.1417  -14.1885 C   0  0  0  0  0  0  0  0  0  0  0  0
   43.3320   13.5613  -15.3895 C   0  0  0  0  0  0  0  0  0  0  0  0
   42.3532   12.9313  -16.1676 C   0  0  0  0  0  0  0  0  0  0  0  0
   41.0751   12.9155  -15.6896 C   0  0  0  0  0  0  0  0  0  0  0  0
   39.8970   12.3990  -16.1794 C   0  0  0  0  0  0  0  0  0  0  0  0
   39.5575   11.7186  -17.3346 C   0  0  0  0  0  0  0  0  0  0  0  0
   40.2900   11.2483  -18.4965 C   0  0  0  0  0  0  0  0  0  0  0  0
   41.4846   11.3368  -18.7847 O   0  0  0  0  0  0  0  0  0  0  0  0
   39.3518   10.5983  -19.3598 N   0  0  0  0  0  0  0  0  0  0  0  0
   38.0253   10.6399  -18.7940 C   0  0  0  0  0  0  0  0  0  0  0  0
   38.2352   11.3563  -17.5121 C   0  0  0  0  0  0  0  0  0  0  0  0
   37.2524   11.6525  -16.5740 C   0  0  0  0  0  0  0  0  0  0  0  0
   35.9114   11.4485  -16.4858 C   0  0  0  0  0  0  0  0  0  0  0  0
   35.0458   10.8366  -17.3628 C   0  0  0  0  0  0  0  0  0  0  0  0
   33.6868   10.7733  -17.0412 C   0  0  0  0  0  0  0  0  0  0  0  0
   33.2597   11.3304  -15.8492 C   0  0  0  0  0  0  0  0  0  0  0  0
   34.1506   11.9408  -14.9834 C   0  0  0  0  0  0  0  0  0  0  0  0
   35.4906   12.0130  -15.2790 C   0  0  0  0  0  0  0  0  0  0  0  0
   36.5521   12.5558  -14.6246 N   0  0  0  0  0  0  0  0  0  0  0  0
   37.6232   12.3183  -15.4546 C   0  0  0  0  0  0  0  0  0  0  0  0
   38.9307   12.6971  -15.2429 C   0  0  0  0  0  0  0  0  0  0  0  0
   35.7714   16.0903  -14.5244 H   0  0  0  0  0  0  0  0  0  0  0  0
   39.5591   10.1403  -20.2883 H   0  0  0  0  0  0  0  0  0  0  0  0
   35.7448   15.3705  -12.3573 C   0  0  0  0  0  0  0  0  0  0  0  0
   36.2284   16.6701  -12.2022 O   0  0  0  0  0  0  0  0  0  0  0  0
   36.7090   16.7988  -11.3453 H   0  0  0  0  0  0  0  0  0  0  0  0
  2  1  1  0  0  0
  2  3  1  0  0  0
  3  4  1  0  0  0
  4  5  1  0  0  0
  5  6  1  0  0  0
  6  7  1  0  0  0
  6 34  1  0  0  0
 34 35  1  0  0  0
  4  8  1  0  0  0
  8  9  1  0  0  0
  9 10  2  0  0  0
 10 11  1  0  0  0
 11 12  2  0  0  0
 12 13  1  0  0  0
 13 14  2  0  0  0
 14 15  1  0  0  0
 15 16  2  0  0  0
 16 17  1  0  0  0
 17 18  2  0  0  0
 17 19  1  0  0  0
 19 20  1  0  0  0
 20 21  1  0  0  0
 21 22  2  0  0  0
 22 23  1  0  0  0
 23 24  2  0  0  0
 24 25  1  0  0  0
 25 26  2  0  0  0
 26 27  1  0  0  0
 27 28  2  0  0  0
 28 29  1  0  0  0
 29 30  1  0  0  0
 30 31  2  0  0  0
  6  2  1  0  0  0
 31  8  1  0  0  0
 29  2  1  0  0  0
 14  9  1  0  0  0
 31 15  1  0  0  0
 21 16  1  0  0  0
 30 22  1  0  0  0
 28 23  1  0  0  0
  7 32  1  0  0  0
 35 36  1  0  0  0
 19 33  1  0  0  0
M  END
> <minimizedAffinity>
-13.52958

> <CNNscore>
0.9700492024

> <CNNaffinity>
7.5617651939

> <CNN_VS>
7.3352842331

> <CNNaffinity_variance>
0.0875248611

$$$$
[H]OC([H])([H])[C@@]1(O[H])C([H])([H])[C@@]2([H])O[C@]1(C([H])([H])[H])n1c3c([H])c([H])c([H])c([H])c3c3c4c(c5c6c([H])c([H])c([H])c([H])c6n2c5c31)C(=O)N([H])C4([H])[H]


 36 43  0  0  0  0  0  0  0  0999 V2000
   36.9422   16.8519  -11.5709 C   0  0  0  0  0  0  0  0  0  0  0  0
   36.9761   15.4391  -12.0442 C   0  0  0  0  0  0  0  0  0  0  0  0
   35.9112   15.4615  -12.9868 O   0  0  0  0  0  0  0  0  0  0  0  0
   35.3358   14.2392  -13.0578 C   0  0  0  0  0  0  0  0  0  0  0  0
   35.4259   13.6299  -11.7243 C   0  0  0  0  0  0  0  0  0  0  0  0
   36.5000   14.4393  -11.0321 C   0  0  0  0  0  0  0  0  0  0  0  0
   37.4856   13.5433  -10.6461 O   0  0  0  0  0  0  0  0  0  0  0  0
   35.9429   13.4413  -14.1311 N   0  0  0  0  0  0  0  0  0  0  0  0
   35.3686   12.6037  -14.9773 C   0  0  0  0  0  0  0  0  0  0  0  0
   34.0459   12.2561  -15.0715 C   0  0  0  0  0  0  0  0  0  0  0  0
   33.6715   11.3450  -16.0514 C   0  0  0  0  0  0  0  0  0  0  0  0
   34.6027   10.8076  -16.9027 C   0  0  0  0  0  0  0  0  0  0  0  0
   35.9543   11.1609  -16.8088 C   0  0  0  0  0  0  0  0  0  0  0  0
   36.3109   12.0564  -15.8428 C   0  0  0  0  0  0  0  0  0  0  0  0
   37.5164   12.6111  -15.4773 C   0  0  0  0  0  0  0  0  0  0  0  0
   38.8140   12.4662  -15.9332 C   0  0  0  0  0  0  0  0  0  0  0  0
   39.4466   11.6948  -16.9880 C   0  0  0  0  0  0  0  0  0  0  0  0
   38.9678   10.9113  -17.8096 O   0  0  0  0  0  0  0  0  0  0  0  0
   40.8467   11.9883  -16.9524 N   0  0  0  0  0  0  0  0  0  0  0  0
   41.1440   12.9253  -15.8963 C   0  0  0  0  0  0  0  0  0  0  0  0
   39.8105   13.1867  -15.3014 C   0  0  0  0  0  0  0  0  0  0  0  0
   39.5468   14.0409  -14.2364 C   0  0  0  0  0  0  0  0  0  0  0  0
   40.2980   14.8380  -13.4313 C   0  0  0  0  0  0  0  0  0  0  0  0
   41.6548   15.0658  -13.4221 C   0  0  0  0  0  0  0  0  0  0  0  0
   42.1909   15.9296  -12.4626 C   0  0  0  0  0  0  0  0  0  0  0  0
   41.3353   16.5258  -11.5536 C   0  0  0  0  0  0  0  0  0  0  0  0
   39.9735   16.2803  -11.5835 C   0  0  0  0  0  0  0  0  0  0  0  0
   39.4252   15.4359  -12.5187 C   0  0  0  0  0  0  0  0  0  0  0  0
   38.1513   15.0217  -12.7540 N   0  0  0  0  0  0  0  0  0  0  0  0
   38.2638   14.1583  -13.8190 C   0  0  0  0  0  0  0  0  0  0  0  0
   37.2441   13.4557  -14.4227 C   0  0  0  0  0  0  0  0  0  0  0  0
   37.2723   13.2226   -9.7369 H   0  0  0  0  0  0  0  0  0  0  0  0
   41.5913   11.5964  -17.5902 H   0  0  0  0  0  0  0  0  0  0  0  0
   35.9064   15.0514   -9.8087 C   0  0  0  0  0  0  0  0  0  0  0  0
   35.7403   14.0489   -8.8526 O   0  0  0  0  0  0  0  0  0  0  0  0
   34.7880   13.8224   -8.6986 H   0  0  0  0  0  0  0  0  0  0  0  0
  2  1  1  0  0  0
  2  3  1  0  0  0
  3  4  1  0  0  0
  4  5  1  0  0  0
  5  6  1  0  0  0
  6  7  1  0  0  0
  6 34  1  0  0  0
 34 35  1  0  0  0
  4  8  1  0  0  0
  8  9  1  0  0  0
  9 10  2  0  0  0
 10 11  1  0  0  0
 11 12  2  0  0  0
 12 13  1  0  0  0
 13 14  2  0  0  0
 14 15  1  0  0  0
 15 16  2  0  0  0
 16 17  1  0  0  0
 17 18  2  0  0  0
 17 19  1  0  0  0
 19 20  1  0  0  0
 20 21  1  0  0  0
 21 22  2  0  0  0
 22 23  1  0  0  0
 23 24  2  0  0  0
 24 25  1  0  0  0
 25 26  2  0  0  0
 26 27  1  0  0  0
 27 28  2  0  0  0
 28 29  1  0  0  0
 29 30  1  0  0  0
 30 31  2  0  0  0
  6  2  1  0  0  0
 31  8  1  0  0  0
 29  2  1  0  0  0
 14  9  1  0  0  0
 31 15  1  0  0  0
 21 16  1  0  0  0
 30 22  1  0  0  0
 28 23  1  0  0  0
  7 32  1  0  0  0
 35 36  1  0  0  0
 19 33  1  0  0  0
M  END
> <minimizedAffinity>
-11.27583

> <CNNscore>
0.5484931469

> <CNNaffinity>
6.7071733475

> <CNN_VS>
3.6788387299

> <CNNaffinity_variance>
0.0609079190

$$$$
[H]OC([H])([H])[C@@]1(O[H])C([H])([H])[C@@]2([H])O[C@]1(C([H])([H])[H])n1c3c([H])c([H])c([H])c([H])c3c3c4c(c5c6c([H])c([H])c([H])c([H])c6n2c5c31)C(=O)N([H])C4([H])[H]


 36 43  0  0  0  0  0  0  0  0999 V2000
   35.2944   12.0957  -13.1172 C   0  0  0  0  0  0  0  0  0  0  0  0
   36.3208   13.0974  -13.5225 C   0  0  0  0  0  0  0  0  0  0  0  0
   37.0648   13.2015  -12.3148 O   0  0  0  0  0  0  0  0  0  0  0  0
   37.5926   14.4424  -12.2067 C   0  0  0  0  0  0  0  0  0  0  0  0
   36.6552   15.3784  -12.8414 C   0  0  0  0  0  0  0  0  0  0  0  0
   35.7867   14.4878  -13.7020 C   0  0  0  0  0  0  0  0  0  0  0  0
   35.9064   14.9537  -15.0027 O   0  0  0  0  0  0  0  0  0  0  0  0
   38.9526   14.4781  -12.7600 N   0  0  0  0  0  0  0  0  0  0  0  0
   40.0173   15.1267  -12.3205 C   0  0  0  0  0  0  0  0  0  0  0  0
   40.1288   15.9452  -11.2265 C   0  0  0  0  0  0  0  0  0  0  0  0
   41.3633   16.5239  -10.9587 C   0  0  0  0  0  0  0  0  0  0  0  0
   42.4425   16.2817  -11.7694 C   0  0  0  0  0  0  0  0  0  0  0  0
   42.3316   15.4462  -12.8874 C   0  0  0  0  0  0  0  0  0  0  0  0
   41.1146   14.8831  -13.1409 C   0  0  0  0  0  0  0  0  0  0  0  0
   40.6602   14.0359  -14.1260 C   0  0  0  0  0  0  0  0  0  0  0  0
   41.2506   13.4481  -15.2299 C   0  0  0  0  0  0  0  0  0  0  0  0
   42.5851   13.4571  -15.8016 C   0  0  0  0  0  0  0  0  0  0  0  0
   43.6134   14.0286  -15.4355 O   0  0  0  0  0  0  0  0  0  0  0  0
   42.5562   12.6307  -16.9695 N   0  0  0  0  0  0  0  0  0  0  0  0
   41.2351   12.0895  -17.1780 C   0  0  0  0  0  0  0  0  0  0  0  0
   40.4671   12.6436  -16.0363 C   0  0  0  0  0  0  0  0  0  0  0  0
   39.1218   12.4125  -15.7706 C   0  0  0  0  0  0  0  0  0  0  0  0
   38.1275   11.7084  -16.3733 C   0  0  0  0  0  0  0  0  0  0  0  0
   38.1463   10.9460  -17.5184 C   0  0  0  0  0  0  0  0  0  0  0  0
   36.9648   10.3311  -17.9432 C   0  0  0  0  0  0  0  0  0  0  0  0
   35.8156   10.5123  -17.1948 C   0  0  0  0  0  0  0  0  0  0  0  0
   35.8225   11.2843  -16.0461 C   0  0  0  0  0  0  0  0  0  0  0  0
   36.9727   11.8966  -15.6096 C   0  0  0  0  0  0  0  0  0  0  0  0
   37.2439   12.7008  -14.5470 N   0  0  0  0  0  0  0  0  0  0  0  0
   38.5793   13.0037  -14.6797 C   0  0  0  0  0  0  0  0  0  0  0  0
   39.3278   13.8128  -13.8533 C   0  0  0  0  0  0  0  0  0  0  0  0
   35.2023   15.6290  -15.1547 H   0  0  0  0  0  0  0  0  0  0  0  0
   43.3646   12.4204  -17.6154 H   0  0  0  0  0  0  0  0  0  0  0  0
   34.3710   14.6542  -13.2643 C   0  0  0  0  0  0  0  0  0  0  0  0
   33.5627   14.7011  -14.4006 O   0  0  0  0  0  0  0  0  0  0  0  0
   33.1840   15.6024  -14.5627 H   0  0  0  0  0  0  0  0  0  0  0  0
  2  1  1  0  0  0
  2  3  1  0  0  0
  3  4  1  0  0  0
  4  5  1  0  0  0
  5  6  1  0  0  0
  6  7  1  0  0  0
  6 34  1  0  0  0
 34 35  1  0  0  0
  4  8  1  0  0  0
  8  9  1  0  0  0
  9 10  2  0  0  0
 10 11  1  0  0  0
 11 12  2  0  0  0
 12 13  1  0  0  0
 13 14  2  0  0  0
 14 15  1  0  0  0
 15 16  2  0  0  0
 16 17  1  0  0  0
 17 18  2  0  0  0
 17 19  1  0  0  0
 19 20  1  0  0  0
 20 21  1  0  0  0
 21 22  2  0  0  0
 22 23  1  0  0  0
 23 24  2  0  0  0
 24 25  1  0  0  0
 25 26  2  0  0  0
 26 27  1  0  0  0
 27 28  2  0  0  0
 28 29  1  0  0  0
 29 30  1  0  0  0
 30 31  2  0  0  0
  6  2  1  0  0  0
 31  8  1  0  0  0
 29  2  1  0  0  0
 14  9  1  0  0  0
 31 15  1  0  0  0
 21 16  1  0  0  0
 30 22  1  0  0  0
 28 23  1  0  0  0
  7 32  1  0  0  0
 35 36  1  0  0  0
 19 33  1  0  0  0
M  END
> <minimizedAffinity>
-12.18900

> <CNNscore>
0.4270305932

> <CNNaffinity>
6.7820701599

> <CNN_VS>
2.8961515427

> <CNNaffinity_variance>
0.0852743238

$$$$
[H]OC([H])([H])[C@@]1(O[H])C([H])([H])[C@@]2([H])O[C@]1(C([H])([H])[H])n1c3c([H])c([H])c([H])c([H])c3c3c4c(c5c6c([H])c([H])c([H])c([H])c6n2c5c31)C(=O)N([H])C4([H])[H]


 36 43  0  0  0  0  0  0  0  0999 V2000
   39.2991   14.4663  -11.0883 C   0  0  0  0  0  0  0  0  0  0  0  0
   38.8683   14.4014  -12.5136 C   0  0  0  0  0  0  0  0  0  0  0  0
   39.5132   13.2004  -12.9193 O   0  0  0  0  0  0  0  0  0  0  0  0
   39.8177   13.2655  -14.2358 C   0  0  0  0  0  0  0  0  0  0  0  0
   40.1133   14.6690  -14.5524 C   0  0  0  0  0  0  0  0  0  0  0  0
   39.5057   15.4329  -13.3969 C   0  0  0  0  0  0  0  0  0  0  0  0
   38.5920   16.3208  -13.9447 O   0  0  0  0  0  0  0  0  0  0  0  0
   38.7451   12.6742  -15.0465 N   0  0  0  0  0  0  0  0  0  0  0  0
   38.8335   11.9324  -16.1370 C   0  0  0  0  0  0  0  0  0  0  0  0
   39.9591   11.5216  -16.8030 C   0  0  0  0  0  0  0  0  0  0  0  0
   39.8038   10.7382  -17.9400 C   0  0  0  0  0  0  0  0  0  0  0  0
   38.5553   10.3853  -18.3840 C   0  0  0  0  0  0  0  0  0  0  0  0
   37.4039   10.8034  -17.7058 C   0  0  0  0  0  0  0  0  0  0  0  0
   37.5680   11.5724  -16.5904 C   0  0  0  0  0  0  0  0  0  0  0  0
   36.6811   12.1427  -15.7057 C   0  0  0  0  0  0  0  0  0  0  0  0
   35.3013   12.1667  -15.6157 C   0  0  0  0  0  0  0  0  0  0  0  0
   34.2162   11.5935  -16.3915 C   0  0  0  0  0  0  0  0  0  0  0  0
   34.2343   10.8903  -17.4030 O   0  0  0  0  0  0  0  0  0  0  0  0
   32.9896   11.9886  -15.7692 N   0  0  0  0  0  0  0  0  0  0  0  0
   33.2473   12.8111  -14.6122 C   0  0  0  0  0  0  0  0  0  0  0  0
   34.7289   12.8735  -14.5745 C   0  0  0  0  0  0  0  0  0  0  0  0
   35.4920   13.5502  -13.6293 C   0  0  0  0  0  0  0  0  0  0  0  0
   35.2196   14.3198  -12.5425 C   0  0  0  0  0  0  0  0  0  0  0  0
   34.0127   14.6938  -11.9980 C   0  0  0  0  0  0  0  0  0  0  0  0
   34.0043   15.5209  -10.8710 C   0  0  0  0  0  0  0  0  0  0  0  0
   35.2136   15.9353  -10.3423 C   0  0  0  0  0  0  0  0  0  0  0  0
   36.4148   15.5453  -10.9085 C   0  0  0  0  0  0  0  0  0  0  0  0
   36.4464   14.7317  -12.0155 C   0  0  0  0  0  0  0  0  0  0  0  0
   37.4657   14.2238  -12.7589 N   0  0  0  0  0  0  0  0  0  0  0  0
   36.8401   13.5024  -13.7492 C   0  0  0  0  0  0  0  0  0  0  0  0
   37.4468   12.8095  -14.7737 C   0  0  0  0  0  0  0  0  0  0  0  0
   39.0616   17.1680  -14.1361 H   0  0  0  0  0  0  0  0  0  0  0  0
   32.0128   11.7361  -16.0804 H   0  0  0  0  0  0  0  0  0  0  0  0
   40.5894   16.2129  -12.7329 C   0  0  0  0  0  0  0  0  0  0  0  0
   40.0028   17.0917  -11.8216 O   0  0  0  0  0  0  0  0  0  0  0  0
   40.0655   18.0378  -12.1092 H   0  0  0  0  0  0  0  0  0  0  0  0
  2  1  1  0  0  0
  2  3  1  0  0  0
  3  4  1  0  0  0
  4  5  1  0  0  0
  5  6  1  0  0  0
  6  7  1  0  0  0
  6 34  1  0  0  0
 34 35  1  0  0  0
  4  8  1  0  0  0
  8  9  1  0  0  0
  9 10  2  0  0  0
 10 11  1  0  0  0
 11 12  2  0  0  0
 12 13  1  0  0  0
 13 14  2  0  0  0
 14 15  1  0  0  0
 15 16  2  0  0  0
 16 17  1  0  0  0
 17 18  2  0  0  0
 17 19  1  0  0  0
 19 20  1  0  0  0
 20 21  1  0  0  0
 21 22  2  0  0  0
 22 23  1  0  0  0
 23 24  2  0  0  0
 24 25  1  0  0  0
 25 26  2  0  0  0
 26 27  1  0  0  0
 27 28  2  0  0  0
 28 29  1  0  0  0
 29 30  1  0  0  0
 30 31  2  0  0  0
  6  2  1  0  0  0
 31  8  1  0  0  0
 29  2  1  0  0  0
 14  9  1  0  0  0
 31 15  1  0  0  0
 21 16  1  0  0  0
 30 22  1  0  0  0
 28 23  1  0  0  0
  7 32  1  0  0  0
 35 36  1  0  0  0
 19 33  1  0  0  0
M  END
> <minimizedAffinity>
-4.07083

> <CNNscore>
0.4159988463

> <CNNaffinity>
6.5018639565

> <CNN_VS>
2.7047679424

> <CNNaffinity_variance>
0.2410023957

$$$$
[H]OC([H])([H])[C@@]1(O[H])C([H])([H])[C@@]2([H])O[C@]1(C([H])([H])[H])n1c3c([H])c([H])c([H])c([H])c3c3c4c(c5c6c([H])c([H])c([H])c([H])c6n2c5c31)C(=O)N([H])C4([H])[H]


 36 43  0  0  0  0  0  0  0  0999 V2000
   41.2229   10.3093  -17.2239 C   0  0  0  0  0  0  0  0  0  0  0  0
   40.2468   11.4149  -17.0090 C   0  0  0  0  0  0  0  0  0  0  0  0
   39.1370   10.6799  -16.5079 O   0  0  0  0  0  0  0  0  0  0  0  0
   37.9844   11.3026  -16.8452 C   0  0  0  0  0  0  0  0  0  0  0  0
   38.1978   11.9541  -18.1444 C   0  0  0  0  0  0  0  0  0  0  0  0
   39.7037   12.0111  -18.2739 C   0  0  0  0  0  0  0  0  0  0  0  0
   40.0381   13.3475  -18.4336 O   0  0  0  0  0  0  0  0  0  0  0  0
   37.5529   12.2113  -15.7751 N   0  0  0  0  0  0  0  0  0  0  0  0
   36.3326   12.4630  -15.3336 C   0  0  0  0  0  0  0  0  0  0  0  0
   35.1417   11.9398  -15.7662 C   0  0  0  0  0  0  0  0  0  0  0  0
   33.9722   12.3585  -15.1437 C   0  0  0  0  0  0  0  0  0  0  0  0
   34.0096   13.2725  -14.1220 C   0  0  0  0  0  0  0  0  0  0  0  0
   35.2244   13.8086  -13.6781 C   0  0  0  0  0  0  0  0  0  0  0  0
   36.3668   13.3903  -14.2965 C   0  0  0  0  0  0  0  0  0  0  0  0
   37.6960   13.7014  -14.1210 C   0  0  0  0  0  0  0  0  0  0  0  0
   38.3748   14.5556  -13.2711 C   0  0  0  0  0  0  0  0  0  0  0  0
   37.9840   15.4600  -12.2047 C   0  0  0  0  0  0  0  0  0  0  0  0
   36.8733   15.7280  -11.7435 O   0  0  0  0  0  0  0  0  0  0  0  0
   39.1772   16.0678  -11.7000 N   0  0  0  0  0  0  0  0  0  0  0  0
   40.3348   15.5887  -12.4154 C   0  0  0  0  0  0  0  0  0  0  0  0
   39.7503   14.6319  -13.3867 C   0  0  0  0  0  0  0  0  0  0  0  0
   40.4590   13.8834  -14.3200 C   0  0  0  0  0  0  0  0  0  0  0  0
   41.7676   13.7663  -14.6685 C   0  0  0  0  0  0  0  0  0  0  0  0
   42.8814   14.3984  -14.1654 C   0  0  0  0  0  0  0  0  0  0  0  0
   44.1322   14.1123  -14.7204 C   0  0  0  0  0  0  0  0  0  0  0  0
   44.2053   13.2017  -15.7592 C   0  0  0  0  0  0  0  0  0  0  0  0
   43.0699   12.5790  -16.2479 C   0  0  0  0  0  0  0  0  0  0  0  0
   41.8307   12.8443  -15.7163 C   0  0  0  0  0  0  0  0  0  0  0  0
   40.5832   12.3913  -16.0127 N   0  0  0  0  0  0  0  0  0  0  0  0
   39.7602   13.0567  -15.1338 C   0  0  0  0  0  0  0  0  0  0  0  0
   38.3889   12.9546  -15.0492 C   0  0  0  0  0  0  0  0  0  0  0  0
   40.0407   13.5516  -19.3997 H   0  0  0  0  0  0  0  0  0  0  0  0
   39.2452   16.7722  -10.9163 H   0  0  0  0  0  0  0  0  0  0  0  0
   40.0935   11.2712  -19.5085 C   0  0  0  0  0  0  0  0  0  0  0  0
   39.2790   11.7041  -20.5554 O   0  0  0  0  0  0  0  0  0  0  0  0
   38.6298   11.0135  -20.8446 H   0  0  0  0  0  0  0  0  0  0  0  0
  2  1  1  0  0  0
  2  3  1  0  0  0
  3  4  1  0  0  0
  4  5  1  0  0  0
  5  6  1  0  0  0
  6  7  1  0  0  0
  6 34  1  0  0  0
 34 35  1  0  0  0
  4  8  1  0  0  0
  8  9  1  0  0  0
  9 10  2  0  0  0
 10 11  1  0  0  0
 11 12  2  0  0  0
 12 13  1  0  0  0
 13 14  2  0  0  0
 14 15  1  0  0  0
 15 16  2  0  0  0
 16 17  1  0  0  0
 17 18  2  0  0  0
 17 19  1  0  0  0
 19 20  1  0  0  0
 20 21  1  0  0  0
 21 22  2  0  0  0
 22 23  1  0  0  0
 23 24  2  0  0  0
 24 25  1  0  0  0
 25 26  2  0  0  0
 26 27  1  0  0  0
 27 28  2  0  0  0
 28 29  1  0  0  0
 29 30  1  0  0  0
 30 31  2  0  0  0
  6  2  1  0  0  0
 31  8  1  0  0  0
 29  2  1  0  0  0
 14  9  1  0  0  0
 31 15  1  0  0  0
 21 16  1  0  0  0
 30 22  1  0  0  0
 28 23  1  0  0  0
  7 32  1  0  0  0
 35 36  1  0  0  0
 19 33  1  0  0  0
M  END
> <minimizedAffinity>
-7.74014

> <CNNscore>
0.2284593731

> <CNNaffinity>
6.4101853371

> <CNN_VS>
1.4644669294

> <CNNaffinity_variance>
0.0629564151

$$$$
[H]OC([H])([H])[C@@]1(O[H])C([H])([H])[C@@]2([H])O[C@]1(C([H])([H])[H])n1c3c([H])c([H])c([H])c([H])c3c3c4c(c5c6c([H])c([H])c([H])c([H])c6n2c5c31)C(=O)N([H])C4([H])[H]


 36 43  0  0  0  0  0  0  0  0999 V2000
   34.6846   11.4798  -13.9859 C   0  0  0  0  0  0  0  0  0  0  0  0
   35.4734   12.7400  -13.8813 C   0  0  0  0  0  0  0  0  0  0  0  0
   35.6341   12.8226  -12.4705 O   0  0  0  0  0  0  0  0  0  0  0  0
   35.7200   14.1191  -12.0938 C   0  0  0  0  0  0  0  0  0  0  0  0
   34.8847   14.9030  -13.0132 C   0  0  0  0  0  0  0  0  0  0  0  0
   34.6940   13.9821  -14.1980 C   0  0  0  0  0  0  0  0  0  0  0  0
   35.1755   14.6590  -15.3085 O   0  0  0  0  0  0  0  0  0  0  0  0
   37.1228   14.5499  -12.0326 N   0  0  0  0  0  0  0  0  0  0  0  0
   37.7148   15.3484  -11.1612 C   0  0  0  0  0  0  0  0  0  0  0  0
   37.1678   15.9907  -10.0808 C   0  0  0  0  0  0  0  0  0  0  0  0
   37.9949   16.7875   -9.2986 C   0  0  0  0  0  0  0  0  0  0  0  0
   39.3252   16.9271   -9.6010 C   0  0  0  0  0  0  0  0  0  0  0  0
   39.8866   16.2723  -10.7038 C   0  0  0  0  0  0  0  0  0  0  0  0
   39.0652   15.4923  -11.4650 C   0  0  0  0  0  0  0  0  0  0  0  0
   39.2758   14.7271  -12.5896 C   0  0  0  0  0  0  0  0  0  0  0  0
   40.3826   14.4684  -13.3775 C   0  0  0  0  0  0  0  0  0  0  0  0
   41.7771   14.8707  -13.3449 C   0  0  0  0  0  0  0  0  0  0  0  0
   42.3865   15.5981  -12.5590 O   0  0  0  0  0  0  0  0  0  0  0  0
   42.4278   14.2511  -14.4587 N   0  0  0  0  0  0  0  0  0  0  0  0
   41.4912   13.4615  -15.2209 C   0  0  0  0  0  0  0  0  0  0  0  0
   40.2225   13.6413  -14.4737 C   0  0  0  0  0  0  0  0  0  0  0  0
   38.9971   13.0706  -14.7997 C   0  0  0  0  0  0  0  0  0  0  0  0
   38.5451   12.2602  -15.7931 C   0  0  0  0  0  0  0  0  0  0  0  0
   39.2115   11.7095  -16.8634 C   0  0  0  0  0  0  0  0  0  0  0  0
   38.5017   10.9145  -17.7681 C   0  0  0  0  0  0  0  0  0  0  0  0
   37.1504   10.7099  -17.5543 C   0  0  0  0  0  0  0  0  0  0  0  0
   36.5026   11.2752  -16.4696 C   0  0  0  0  0  0  0  0  0  0  0  0
   37.1810   12.0587  -15.5674 C   0  0  0  0  0  0  0  0  0  0  0  0
   36.7908   12.7287  -14.4501 N   0  0  0  0  0  0  0  0  0  0  0  0
   37.9366   13.3456  -14.0037 C   0  0  0  0  0  0  0  0  0  0  0  0
   38.0568   14.1660  -12.9036 C   0  0  0  0  0  0  0  0  0  0  0  0
   34.4301   15.1709  -15.7051 H   0  0  0  0  0  0  0  0  0  0  0  0
   43.4470   14.3339  -14.7217 H   0  0  0  0  0  0  0  0  0  0  0  0
   33.2319   13.7506  -14.3775 C   0  0  0  0  0  0  0  0  0  0  0  0
   32.5972   13.9849  -13.1573 O   0  0  0  0  0  0  0  0  0  0  0  0
   32.2566   13.1539  -12.7385 H   0  0  0  0  0  0  0  0  0  0  0  0
  2  1  1  0  0  0
  2  3  1  0  0  0
  3  4  1  0  0  0
  4  5  1  0  0  0
  5  6  1  0  0  0
  6  7  1  0  0  0
  6 34  1  0  0  0
 34 35  1  0  0  0
  4  8  1  0  0  0
  8  9  1  0  0  0
  9 10  2  0  0  0
 10 11  1  0  0  0
 11 12  2  0  0  0
 12 13  1  0  0  0
 13 14  2  0  0  0
 14 15  1  0  0  0
 15 16  2  0  0  0
 16 17  1  0  0  0
 17 18  2  0  0  0
 17 19  1  0  0  0
 19 20  1  0  0  0
 20 21  1  0  0  0
 21 22  2  0  0  0
 22 23  1  0  0  0
 23 24  2  0  0  0
 24 25  1  0  0  0
 25 26  2  0  0  0
 26 27  1  0  0  0
 27 28  2  0  0  0
 28 29  1  0  0  0
 29 30  1  0  0  0
 30 31  2  0  0  0
  6  2  1  0  0  0
 31  8  1  0  0  0
 29  2  1  0  0  0
 14  9  1  0  0  0
 31 15  1  0  0  0
 21 16  1  0  0  0
 30 22  1  0  0  0
 28 23  1  0  0  0
  7 32  1  0  0  0
 35 36  1  0  0  0
 19 33  1  0  0  0
M  END
> <minimizedAffinity>
-10.87837

> <CNNscore>
0.2167924047

> <CNNaffinity>
6.2299375534

> <CNN_VS>
1.3506031036

> <CNNaffinity_variance>
0.2321807891

$$$$
[H]OC([H])([H])[C@@]1(O[H])C([H])([H])[C@@]2([H])O[C@]1(C([H])([H])[H])n1c3c([H])c([H])c([H])c([H])c3c3c4c(c5c6c([H])c([H])c([H])c([H])c6n2c5c31)C(=O)N([H])C4([H])[H]


 36 43  0  0  0  0  0  0  0  0999 V2000
   43.4987   16.9934  -12.8875 C   0  0  0  0  0  0  0  0  0  0  0  0
   44.4553   16.4724  -11.8702 C   0  0  0  0  0  0  0  0  0  0  0  0
   43.6615   16.5832  -10.6951 O   0  0  0  0  0  0  0  0  0  0  0  0
   44.4575   16.7974   -9.6225 C   0  0  0  0  0  0  0  0  0  0  0  0
   45.6130   17.5811  -10.0788 C   0  0  0  0  0  0  0  0  0  0  0  0
   45.6053   17.3908  -11.5794 C   0  0  0  0  0  0  0  0  0  0  0  0
   46.8356   16.8469  -11.9169 O   0  0  0  0  0  0  0  0  0  0  0  0
   44.8052   15.5272   -8.9722 N   0  0  0  0  0  0  0  0  0  0  0  0
   44.9211   15.2515   -7.6846 C   0  0  0  0  0  0  0  0  0  0  0  0
   44.7491   16.0877   -6.6121 C   0  0  0  0  0  0  0  0  0  0  0  0
   44.9258   15.5682   -5.3355 C   0  0  0  0  0  0  0  0  0  0  0  0
   45.2638   14.2515   -5.1543 C   0  0  0  0  0  0  0  0  0  0  0  0
   45.4401   13.3952   -6.2479 C   0  0  0  0  0  0  0  0  0  0  0  0
   45.2641   13.9159   -7.4970 C   0  0  0  0  0  0  0  0  0  0  0  0
   45.3552   13.3756   -8.7596 C   0  0  0  0  0  0  0  0  0  0  0  0
   45.6690   12.1180   -9.2421 C   0  0  0  0  0  0  0  0  0  0  0  0
   46.0114   10.8456   -8.6325 C   0  0  0  0  0  0  0  0  0  0  0  0
   46.1241   10.5252   -7.4482 O   0  0  0  0  0  0  0  0  0  0  0  0
   46.2251    9.9072   -9.6916 N   0  0  0  0  0  0  0  0  0  0  0  0
   46.0383   10.5375  -10.9760 C   0  0  0  0  0  0  0  0  0  0  0  0
   45.6820   11.9306  -10.6117 C   0  0  0  0  0  0  0  0  0  0  0  0
   45.3918   12.9571  -11.5038 C   0  0  0  0  0  0  0  0  0  0  0  0
   45.3457   13.0734  -12.8573 C   0  0  0  0  0  0  0  0  0  0  0  0
   45.5877   12.1398  -13.8384 C   0  0  0  0  0  0  0  0  0  0  0  0
   45.4912   12.5242  -15.1791 C   0  0  0  0  0  0  0  0  0  0  0  0
   45.1553   13.8338  -15.4719 C   0  0  0  0  0  0  0  0  0  0  0  0
   44.9167   14.7546  -14.4664 C   0  0  0  0  0  0  0  0  0  0  0  0
   45.0046   14.3981  -13.1423 C   0  0  0  0  0  0  0  0  0  0  0  0
   44.8369   15.0940  -11.9860 N   0  0  0  0  0  0  0  0  0  0  0  0
   45.0874   14.1742  -10.9941 C   0  0  0  0  0  0  0  0  0  0  0  0
   45.0654   14.3998   -9.6352 C   0  0  0  0  0  0  0  0  0  0  0  0
   47.4589   17.5885  -12.1080 H   0  0  0  0  0  0  0  0  0  0  0  0
   46.4842    8.8886   -9.5911 H   0  0  0  0  0  0  0  0  0  0  0  0
   45.4856   18.7327  -12.2186 C   0  0  0  0  0  0  0  0  0  0  0  0
   46.7319   19.3577  -12.1642 O   0  0  0  0  0  0  0  0  0  0  0  0
   46.7496   20.1194  -11.5307 H   0  0  0  0  0  0  0  0  0  0  0  0
  2  1  1  0  0  0
  2  3  1  0  0  0
  3  4  1  0  0  0
  4  5  1  0  0  0
  5  6  1  0  0  0
  6  7  1  0  0  0
  6 34  1  0  0  0
 34 35  1  0  0  0
  4  8  1  0  0  0
  8  9  1  0  0  0
  9 10  2  0  0  0
 10 11  1  0  0  0
 11 12  2  0  0  0
 12 13  1  0  0  0
 13 14  2  0  0  0
 14 15  1  0  0  0
 15 16  2  0  0  0
 16 17  1  0  0  0
 17 18  2  0  0  0
 17 19  1  0  0  0
 19 20  1  0  0  0
 20 21  1  0  0  0
 21 22  2  0  0  0
 22 23  1  0  0  0
 23 24  2  0  0  0
 24 25  1  0  0  0
 25 26  2  0  0  0
 26 27  1  0  0  0
 27 28  2  0  0  0
 28 29  1  0  0  0
 29 30  1  0  0  0
 30 31  2  0  0  0
  6  2  1  0  0  0
 31  8  1  0  0  0
 29  2  1  0  0  0
 14  9  1  0  0  0
 31 15  1  0  0  0
 21 16  1  0  0  0
 30 22  1  0  0  0
 28 23  1  0  0  0
  7 32  1  0  0  0
 35 36  1  0  0  0
 19 33  1  0  0  0
M  END
> <minimizedAffinity>
-5.76255

> <CNNscore>
0.1786021143

> <CNNaffinity>
4.8461127281

> <CNN_VS>
0.8655259609

> <CNNaffinity_variance>
0.2549131215

$$$$
[H]OC([H])([H])[C@@]1(O[H])C([H])([H])[C@@]2([H])O[C@]1(C([H])([H])[H])n1c3c([H])c([H])c([H])c([H])c3c3c4c(c5c6c([H])c([H])c([H])c([H])c6n2c5c31)C(=O)N([H])C4([H])[H]


 36 43  0  0  0  0  0  0  0  0999 V2000
   45.5979   14.1559  -11.2664 C   0  0  0  0  0  0  0  0  0  0  0  0
   44.9063   14.3459   -9.9600 C   0  0  0  0  0  0  0  0  0  0  0  0
   43.5499   14.2267  -10.3710 O   0  0  0  0  0  0  0  0  0  0  0  0
   42.7593   14.9723   -9.5654 C   0  0  0  0  0  0  0  0  0  0  0  0
   43.5366   16.1460   -9.1464 C   0  0  0  0  0  0  0  0  0  0  0  0
   44.9682   15.7475   -9.4288 C   0  0  0  0  0  0  0  0  0  0  0  0
   45.6520   15.8446   -8.2262 O   0  0  0  0  0  0  0  0  0  0  0  0
   42.2382   14.1628   -8.4561 N   0  0  0  0  0  0  0  0  0  0  0  0
   41.0412   14.1848   -7.8955 C   0  0  0  0  0  0  0  0  0  0  0  0
   39.9668   14.9783   -8.2038 C   0  0  0  0  0  0  0  0  0  0  0  0
   38.7980   14.8210   -7.4691 C   0  0  0  0  0  0  0  0  0  0  0  0
   38.7223   13.8945   -6.4609 C   0  0  0  0  0  0  0  0  0  0  0  0
   39.8180   13.0826   -6.1438 C   0  0  0  0  0  0  0  0  0  0  0  0
   40.9608   13.2456   -6.8717 C   0  0  0  0  0  0  0  0  0  0  0  0
   42.1936   12.6347   -6.8313 C   0  0  0  0  0  0  0  0  0  0  0  0
   42.7450   11.6437   -6.0398 C   0  0  0  0  0  0  0  0  0  0  0  0
   42.2613   10.8235   -4.9438 C   0  0  0  0  0  0  0  0  0  0  0  0
   41.1621   10.7897   -4.3884 O   0  0  0  0  0  0  0  0  0  0  0  0
   43.3350    9.9656   -4.5448 N   0  0  0  0  0  0  0  0  0  0  0  0
   44.5084   10.2112   -5.3474 C   0  0  0  0  0  0  0  0  0  0  0  0
   44.0576   11.2783   -6.2740 C   0  0  0  0  0  0  0  0  0  0  0  0
   44.8263   11.8710   -7.2697 C   0  0  0  0  0  0  0  0  0  0  0  0
   46.1065   11.7377   -7.7067 C   0  0  0  0  0  0  0  0  0  0  0  0
   47.1140   10.9100   -7.2676 C   0  0  0  0  0  0  0  0  0  0  0  0
   48.3675   10.9823   -7.8824 C   0  0  0  0  0  0  0  0  0  0  0  0
   48.5505   11.8866   -8.9131 C   0  0  0  0  0  0  0  0  0  0  0  0
   47.5208   12.7087   -9.3368 C   0  0  0  0  0  0  0  0  0  0  0  0
   46.2806   12.6534   -8.7476 C   0  0  0  0  0  0  0  0  0  0  0  0
   45.1272   13.3425   -8.9582 N   0  0  0  0  0  0  0  0  0  0  0  0
   44.2515   12.8364   -8.0257 C   0  0  0  0  0  0  0  0  0  0  0  0
   42.9466   13.2282   -7.8214 C   0  0  0  0  0  0  0  0  0  0  0  0
   46.0191   16.7583   -8.1528 H   0  0  0  0  0  0  0  0  0  0  0  0
   43.3136    9.2415   -3.7767 H   0  0  0  0  0  0  0  0  0  0  0  0
   45.5459   16.7335  -10.3868 C   0  0  0  0  0  0  0  0  0  0  0  0
   45.2978   18.0169   -9.8989 O   0  0  0  0  0  0  0  0  0  0  0  0
   44.6281   18.5079  -10.4395 H   0  0  0  0  0  0  0  0  0  0  0  0
  2  1  1  0  0  0
  2  3  1  0  0  0
  3  4  1  0  0  0
  4  5  1  0  0  0
  5  6  1  0  0  0
  6  7  1  0  0  0
  6 34  1  0  0  0
 34 35  1  0  0  0
  4  8  1  0  0  0
  8  9  1  0  0  0
  9 10  2  0  0  0
 10 11  1  0  0  0
 11 12  2  0  0  0
 12 13  1  0  0  0
 13 14  2  0  0  0
 14 15  1  0  0  0
 15 16  2  0  0  0
 16 17  1  0  0  0
 17 18  2  0  0  0
 17 19  1  0  0  0
 19 20  1  0  0  0
 20 21  1  0  0  0
 21 22  2  0  0  0
 22 23  1  0  0  0
 23 24  2  0  0  0
 24 25  1  0  0  0
 25 26  2  0  0  0
 26 27  1  0  0  0
 27 28  2  0  0  0
 28 29  1  0  0  0
 29 30  1  0  0  0
 30 31  2  0  0  0
  6  2  1  0  0  0
 31  8  1  0  0  0
 29  2  1  0  0  0
 14  9  1  0  0  0
 31 15  1  0  0  0
 21 16  1  0  0  0
 30 22  1  0  0  0
 28 23  1  0  0  0
  7 32  1  0  0  0
 35 36  1  0  0  0
 19 33  1  0  0  0
M  END
> <minimizedAffinity>
-6.75336

> <CNNscore>
0.1514871866

> <CNNaffinity>
4.6788630486

> <CNN_VS>
0.7087877989

> <CNNaffinity_variance>
0.3488199413

$$$$
[H]OC([H])([H])[C@@]1(O[H])C([H])([H])[C@@]2([H])O[C@]1(C([H])([H])[H])n1c3c([H])c([H])c([H])c([H])c3c3c4c(c5c6c([H])c([H])c([H])c([H])c6n2c5c31)C(=O)N([H])C4([H])[H]


 36 43  0  0  0  0  0  0  0  0999 V2000
   39.0417   14.7119   -8.4425 C   0  0  0  0  0  0  0  0  0  0  0  0
   37.9341   15.7088   -8.4645 C   0  0  0  0  0  0  0  0  0  0  0  0
   36.8174   14.8440   -8.6328 O   0  0  0  0  0  0  0  0  0  0  0  0
   35.8374   15.4866   -9.3086 C   0  0  0  0  0  0  0  0  0  0  0  0
   36.4825   16.4162  -10.2452 C   0  0  0  0  0  0  0  0  0  0  0  0
   37.8888   16.5514   -9.7048 C   0  0  0  0  0  0  0  0  0  0  0  0
   38.0899   17.9005   -9.4545 O   0  0  0  0  0  0  0  0  0  0  0  0
   34.8948   16.1208   -8.3778 N   0  0  0  0  0  0  0  0  0  0  0  0
   33.5800   16.2272   -8.4626 C   0  0  0  0  0  0  0  0  0  0  0  0
   32.7473   15.7726   -9.4521 C   0  0  0  0  0  0  0  0  0  0  0  0
   31.3831   16.0034   -9.3241 C   0  0  0  0  0  0  0  0  0  0  0  0
   30.8833   16.6694   -8.2345 C   0  0  0  0  0  0  0  0  0  0  0  0
   31.7314   17.1347   -7.2223 C   0  0  0  0  0  0  0  0  0  0  0  0
   33.0693   16.9026   -7.3583 C   0  0  0  0  0  0  0  0  0  0  0  0
   34.1590   17.2119   -6.5764 C   0  0  0  0  0  0  0  0  0  0  0  0
   34.3165   17.8794   -5.3754 C   0  0  0  0  0  0  0  0  0  0  0  0
   33.4128   18.5116   -4.4312 C   0  0  0  0  0  0  0  0  0  0  0  0
   32.1869   18.6332   -4.4487 O   0  0  0  0  0  0  0  0  0  0  0  0
   34.2075   19.0327   -3.3612 N   0  0  0  0  0  0  0  0  0  0  0  0
   35.6066   18.7632   -3.5877 C   0  0  0  0  0  0  0  0  0  0  0  0
   35.5969   18.0258   -4.8748 C   0  0  0  0  0  0  0  0  0  0  0  0
   36.7136   17.5268   -5.5363 C   0  0  0  0  0  0  0  0  0  0  0  0
   38.0533   17.5341   -5.3063 C   0  0  0  0  0  0  0  0  0  0  0  0
   38.7738   18.0765   -4.2672 C   0  0  0  0  0  0  0  0  0  0  0  0
   40.1671   17.9629   -4.2761 C   0  0  0  0  0  0  0  0  0  0  0  0
   40.7733   17.3076   -5.3329 C   0  0  0  0  0  0  0  0  0  0  0  0
   40.0261   16.7705   -6.3668 C   0  0  0  0  0  0  0  0  0  0  0  0
   38.6556   16.8694   -6.3776 C   0  0  0  0  0  0  0  0  0  0  0  0
   37.7070   16.4514   -7.2578 N   0  0  0  0  0  0  0  0  0  0  0  0
   36.5197   16.8775   -6.7088 C   0  0  0  0  0  0  0  0  0  0  0  0
   35.2592   16.7129   -7.2398 C   0  0  0  0  0  0  0  0  0  0  0  0
   38.4636   18.3134  -10.2699 H   0  0  0  0  0  0  0  0  0  0  0  0
   33.8592   19.5480   -2.5080 H   0  0  0  0  0  0  0  0  0  0  0  0
   38.8401   16.1166  -10.7676 C   0  0  0  0  0  0  0  0  0  0  0  0
   38.1194   15.9101  -11.9443 O   0  0  0  0  0  0  0  0  0  0  0  0
   38.0546   14.9521  -12.1891 H   0  0  0  0  0  0  0  0  0  0  0  0
  2  1  1  0  0  0
  2  3  1  0  0  0
  3  4  1  0  0  0
  4  5  1  0  0  0
  5  6  1  0  0  0
  6  7  1  0  0  0
  6 34  1  0  0  0
 34 35  1  0  0  0
  4  8  1  0  0  0
  8  9  1  0  0  0
  9 10  2  0  0  0
 10 11  1  0  0  0
 11 12  2  0  0  0
 12 13  1  0  0  0
 13 14  2  0  0  0
 14 15  1  0  0  0
 15 16  2  0  0  0
 16 17  1  0  0  0
 17 18  2  0  0  0
 17 19  1  0  0  0
 19 20  1  0  0  0
 20 21  1  0  0  0
 21 22  2  0  0  0
 22 23  1  0  0  0
 23 24  2  0  0  0
 24 25  1  0  0  0
 25 26  2  0  0  0
 26 27  1  0  0  0
 27 28  2  0  0  0
 28 29  1  0  0  0
 29 30  1  0  0  0
 30 31  2  0  0  0
  6  2  1  0  0  0
 31  8  1  0  0  0
 29  2  1  0  0  0
 14  9  1  0  0  0
 31 15  1  0  0  0
 21 16  1  0  0  0
 30 22  1  0  0  0
 28 23  1  0  0  0
  7 32  1  0  0  0
 35 36  1  0  0  0
 19 33  1  0  0  0
M  END
> <minimizedAffinity>
-6.81196

> <CNNscore>
0.1480229497

> <CNNaffinity>
5.0470795631

> <CNN_VS>
0.7470836043

> <CNNaffinity_variance>
0.3049581945

$$$$
[H]c1c([H])c([H])c2c(c1[H])c1c3c(c4c5c([H])c([H])c([H])c([H])c5n([H])c4c1c(=O)n2[H])C([H])([H])N([H])C3=O


 29 34  0  0  0  0  0  0  0  0999 V2000
   39.7248   11.1491  -18.2003 O   0  0  0  0  0  0  0  0  0  0  0  0
   40.2843   11.8140  -17.2799 C   0  0  0  0  0  0  0  0  0  0  0  0
   41.5917   12.0495  -17.3211 N   0  0  0  0  0  0  0  0  0  0  0  0
   42.1977   12.7442  -16.3464 C   0  0  0  0  0  0  0  0  0  0  0  0
   43.5707   12.8509  -16.3546 C   0  0  0  0  0  0  0  0  0  0  0  0
   44.2616   13.4242  -15.3146 C   0  0  0  0  0  0  0  0  0  0  0  0
   43.5341   13.8883  -14.2527 C   0  0  0  0  0  0  0  0  0  0  0  0
   42.1436   13.7918  -14.2304 C   0  0  0  0  0  0  0  0  0  0  0  0
   41.4653   13.2409  -15.2673 C   0  0  0  0  0  0  0  0  0  0  0  0
   40.1152   13.0215  -15.2232 C   0  0  0  0  0  0  0  0  0  0  0  0
   39.3235   13.5543  -14.2083 C   0  0  0  0  0  0  0  0  0  0  0  0
   39.5629   14.6770  -13.3140 C   0  0  0  0  0  0  0  0  0  0  0  0
   40.5019   15.3679  -12.9134 O   0  0  0  0  0  0  0  0  0  0  0  0
   38.2594   15.0385  -12.7946 N   0  0  0  0  0  0  0  0  0  0  0  0
   37.3842   13.9136  -13.0056 C   0  0  0  0  0  0  0  0  0  0  0  0
   37.9466   13.2827  -14.2222 C   0  0  0  0  0  0  0  0  0  0  0  0
   37.3589   12.5269  -15.2174 C   0  0  0  0  0  0  0  0  0  0  0  0
   36.0668   12.1259  -15.4342 C   0  0  0  0  0  0  0  0  0  0  0  0
   34.8824   12.3101  -14.7553 C   0  0  0  0  0  0  0  0  0  0  0  0
   33.7297   11.7481  -15.2608 C   0  0  0  0  0  0  0  0  0  0  0  0
   33.7132   11.0070  -16.4206 C   0  0  0  0  0  0  0  0  0  0  0  0
   34.9091   10.8363  -17.0810 C   0  0  0  0  0  0  0  0  0  0  0  0
   36.0956   11.3786  -16.6176 C   0  0  0  0  0  0  0  0  0  0  0  0
   37.3782   11.3357  -17.0923 N   0  0  0  0  0  0  0  0  0  0  0  0
   38.1386   12.0341  -16.2370 C   0  0  0  0  0  0  0  0  0  0  0  0
   39.4895   12.2740  -16.2524 C   0  0  0  0  0  0  0  0  0  0  0  0
   42.1516   11.7025  -18.1042 H   0  0  0  0  0  0  0  0  0  0  0  0
   37.9711   15.9290  -12.3489 H   0  0  0  0  0  0  0  0  0  0  0  0
   37.5605   10.8146  -17.9665 H   0  0  0  0  0  0  0  0  0  0  0  0
  1  2  2  0  0  0
  2  3  1  0  0  0
  3  4  1  0  0  0
  4  5  2  0  0  0
  5  6  1  0  0  0
  6  7  2  0  0  0
  7  8  1  0  0  0
  8  9  2  0  0  0
  9 10  1  0  0  0
 10 11  2  0  0  0
 11 12  1  0  0  0
 12 13  2  0  0  0
 12 14  1  0  0  0
 14 15  1  0  0  0
 15 16  1  0  0  0
 16 17  2  0  0  0
 17 18  1  0  0  0
 18 19  2  0  0  0
 19 20  1  0  0  0
 20 21  2  0  0  0
 21 22  1  0  0  0
 22 23  2  0  0  0
 23 24  1  0  0  0
 24 25  1  0  0  0
 25 26  2  0  0  0
 26  2  1  0  0  0
  9  4  1  0  0  0
 26 10  1  0  0  0
 16 11  1  0  0  0
 25 17  1  0  0  0
 23 18  1  0  0  0
  3 27  1  0  0  0
 14 28  1  0  0  0
 24 29  1  0  0  0
M  END
> <minimizedAffinity>
-12.25224

> <CNNscore>
0.8979310393

> <CNNaffinity>
7.1153993607

> <CNN_VS>
6.3891377449

> <CNNaffinity_variance>
0.0457268581

$$$$
[H]c1c([H])c([H])c2c(c1[H])c1c3c(c4c5c([H])c([H])c([H])c([H])c5n([H])c4c1c(=O)n2[H])C([H])([H])N([H])C3=O


 29 34  0  0  0  0  0  0  0  0999 V2000
   39.1311   10.8136  -17.8738 O   0  0  0  0  0  0  0  0  0  0  0  0
   38.1553   11.1633  -17.1473 C   0  0  0  0  0  0  0  0  0  0  0  0
   36.9286   10.7272  -17.4147 N   0  0  0  0  0  0  0  0  0  0  0  0
   35.8850   11.0989  -16.6580 C   0  0  0  0  0  0  0  0  0  0  0  0
   34.6142   10.7369  -17.0461 C   0  0  0  0  0  0  0  0  0  0  0  0
   33.4957   11.2026  -16.3981 C   0  0  0  0  0  0  0  0  0  0  0  0
   33.6853   12.0533  -15.3432 C   0  0  0  0  0  0  0  0  0  0  0  0
   34.9649   12.4264  -14.9350 C   0  0  0  0  0  0  0  0  0  0  0  0
   36.0659   11.9500  -15.5670 C   0  0  0  0  0  0  0  0  0  0  0  0
   37.3271   12.3905  -15.2699 C   0  0  0  0  0  0  0  0  0  0  0  0
   37.5772   13.1829  -14.1517 C   0  0  0  0  0  0  0  0  0  0  0  0
   36.8053   13.3662  -12.9317 C   0  0  0  0  0  0  0  0  0  0  0  0
   35.6618   13.1753  -12.5127 O   0  0  0  0  0  0  0  0  0  0  0  0
   37.7331   13.9295  -11.9718 N   0  0  0  0  0  0  0  0  0  0  0  0
   38.8433   14.4722  -12.7125 C   0  0  0  0  0  0  0  0  0  0  0  0
   38.8943   13.6044  -13.9121 C   0  0  0  0  0  0  0  0  0  0  0  0
   39.9414   13.2398  -14.7352 C   0  0  0  0  0  0  0  0  0  0  0  0
   41.2804   13.5299  -14.7132 C   0  0  0  0  0  0  0  0  0  0  0  0
   42.0807   14.2863  -13.8857 C   0  0  0  0  0  0  0  0  0  0  0  0
   43.4288   14.3744  -14.1600 C   0  0  0  0  0  0  0  0  0  0  0  0
   44.0105   13.7355  -15.2315 C   0  0  0  0  0  0  0  0  0  0  0  0
   43.1901   12.9860  -16.0444 C   0  0  0  0  0  0  0  0  0  0  0  0
   41.8304   12.8636  -15.8147 C   0  0  0  0  0  0  0  0  0  0  0  0
   40.8385   12.1935  -16.4774 N   0  0  0  0  0  0  0  0  0  0  0  0
   39.6955   12.4273  -15.8167 C   0  0  0  0  0  0  0  0  0  0  0  0
   38.4191   12.0014  -16.0857 C   0  0  0  0  0  0  0  0  0  0  0  0
   36.7686   10.0969  -18.2048 H   0  0  0  0  0  0  0  0  0  0  0  0
   37.6498   13.9557  -10.9387 H   0  0  0  0  0  0  0  0  0  0  0  0
   41.0915   11.6511  -17.3204 H   0  0  0  0  0  0  0  0  0  0  0  0
  1  2  2  0  0  0
  2  3  1  0  0  0
  3  4  1  0  0  0
  4  5  2  0  0  0
  5  6  1  0  0  0
  6  7  2  0  0  0
  7  8  1  0  0  0
  8  9  2  0  0  0
  9 10  1  0  0  0
 10 11  2  0  0  0
 11 12  1  0  0  0
 12 13  2  0  0  0
 12 14  1  0  0  0
 14 15  1  0  0  0
 15 16  1  0  0  0
 16 17  2  0  0  0
 17 18  1  0  0  0
 18 19  2  0  0  0
 19 20  1  0  0  0
 20 21  2  0  0  0
 21 22  1  0  0  0
 22 23  2  0  0  0
 23 24  1  0  0  0
 24 25  1  0  0  0
 25 26  2  0  0  0
 26  2  1  0  0  0
  9  4  1  0  0  0
 26 10  1  0  0  0
 16 11  1  0  0  0
 25 17  1  0  0  0
 23 18  1  0  0  0
  3 27  1  0  0  0
 14 28  1  0  0  0
 24 29  1  0  0  0
M  END
> <minimizedAffinity>
-11.37255

> <CNNscore>
0.6976089478

> <CNNaffinity>
6.8730330467

> <CNN_VS>
4.7946891785

> <CNNaffinity_variance>
0.1328104585

$$$$
[H]c1c([H])c([H])c2c(c1[H])c1c3c(c4c5c([H])c([H])c([H])c([H])c5n([H])c4c1c(=O)n2[H])C([H])([H])N([H])C3=O


 29 34  0  0  0  0  0  0  0  0999 V2000
   41.1843   11.5058  -17.4324 O   0  0  0  0  0  0  0  0  0  0  0  0
   40.0350   11.7027  -16.9399 C   0  0  0  0  0  0  0  0  0  0  0  0
   38.9683   11.1085  -17.4650 N   0  0  0  0  0  0  0  0  0  0  0  0
   37.7439   11.3173  -16.9580 C   0  0  0  0  0  0  0  0  0  0  0  0
   36.6507   10.7931  -17.6112 C   0  0  0  0  0  0  0  0  0  0  0  0
   35.3646   11.0870  -17.2275 C   0  0  0  0  0  0  0  0  0  0  0  0
   35.2003   11.9327  -16.1643 C   0  0  0  0  0  0  0  0  0  0  0  0
   36.2962   12.4687  -15.4897 C   0  0  0  0  0  0  0  0  0  0  0  0
   37.5635   12.1614  -15.8615 C   0  0  0  0  0  0  0  0  0  0  0  0
   38.6563   12.7641  -15.3000 C   0  0  0  0  0  0  0  0  0  0  0  0
   38.5448   13.5591  -14.1614 C   0  0  0  0  0  0  0  0  0  0  0  0
   37.5082   13.6085  -13.1412 C   0  0  0  0  0  0  0  0  0  0  0  0
   36.3387   13.2537  -12.9805 O   0  0  0  0  0  0  0  0  0  0  0  0
   38.1176   14.2728  -12.0068 N   0  0  0  0  0  0  0  0  0  0  0  0
   39.2764   14.9783  -12.4920 C   0  0  0  0  0  0  0  0  0  0  0  0
   39.7069   14.1517  -13.6435 C   0  0  0  0  0  0  0  0  0  0  0  0
   40.9482   13.9519  -14.2146 C   0  0  0  0  0  0  0  0  0  0  0  0
   42.1969   14.4222  -13.9031 C   0  0  0  0  0  0  0  0  0  0  0  0
   42.6854   15.2632  -12.9275 C   0  0  0  0  0  0  0  0  0  0  0  0
   44.0353   15.5411  -12.9014 C   0  0  0  0  0  0  0  0  0  0  0  0
   44.9190   15.0111  -13.8141 C   0  0  0  0  0  0  0  0  0  0  0  0
   44.4071   14.1740  -14.7799 C   0  0  0  0  0  0  0  0  0  0  0  0
   43.0603   13.8615  -14.8517 C   0  0  0  0  0  0  0  0  0  0  0  0
   42.3389   13.0763  -15.7092 N   0  0  0  0  0  0  0  0  0  0  0  0
   41.0585   13.1369  -15.3163 C   0  0  0  0  0  0  0  0  0  0  0  0
   39.9428   12.5460  -15.8539 C   0  0  0  0  0  0  0  0  0  0  0  0
   39.0729   10.4795  -18.2652 H   0  0  0  0  0  0  0  0  0  0  0  0
   37.8087   14.2651  -11.0172 H   0  0  0  0  0  0  0  0  0  0  0  0
   42.8420   12.5919  -16.4715 H   0  0  0  0  0  0  0  0  0  0  0  0
  1  2  2  0  0  0
  2  3  1  0  0  0
  3  4  1  0  0  0
  4  5  2  0  0  0
  5  6  1  0  0  0
  6  7  2  0  0  0
  7  8  1  0  0  0
  8  9  2  0  0  0
  9 10  1  0  0  0
 10 11  2  0  0  0
 11 12  1  0  0  0
 12 13  2  0  0  0
 12 14  1  0  0  0
 14 15  1  0  0  0
 15 16  1  0  0  0
 16 17  2  0  0  0
 17 18  1  0  0  0
 18 19  2  0  0  0
 19 20  1  0  0  0
 20 21  2  0  0  0
 21 22  1  0  0  0
 22 23  2  0  0  0
 23 24  1  0  0  0
 24 25  1  0  0  0
 25 26  2  0  0  0
 26  2  1  0  0  0
  9  4  1  0  0  0
 26 10  1  0  0  0
 16 11  1  0  0  0
 25 17  1  0  0  0
 23 18  1  0  0  0
  3 27  1  0  0  0
 14 28  1  0  0  0
 24 29  1  0  0  0
M  END
> <minimizedAffinity>
-10.21840

> <CNNscore>
0.6513212323

> <CNNaffinity>
6.6223921776

> <CNN_VS>
4.3133044243

> <CNNaffinity_variance>
0.2172756195

$$$$
[H]c1c([H])c([H])c2c(c1[H])c1c3c(c4c5c([H])c([H])c([H])c([H])c5n([H])c4c1c(=O)n2[H])C([H])([H])N([H])C3=O


 29 34  0  0  0  0  0  0  0  0999 V2000
   37.2329   14.7177  -13.1492 O   0  0  0  0  0  0  0  0  0  0  0  0
   37.4331   13.9192  -14.1108 C   0  0  0  0  0  0  0  0  0  0  0  0
   36.4071   13.3633  -14.7470 N   0  0  0  0  0  0  0  0  0  0  0  0
   36.6067   12.5078  -15.7608 C   0  0  0  0  0  0  0  0  0  0  0  0
   35.5258   11.8499  -16.3043 C   0  0  0  0  0  0  0  0  0  0  0  0
   35.6752   10.8592  -17.2445 C   0  0  0  0  0  0  0  0  0  0  0  0
   36.9492   10.5378  -17.6265 C   0  0  0  0  0  0  0  0  0  0  0  0
   38.0540   11.1967  -17.0891 C   0  0  0  0  0  0  0  0  0  0  0  0
   37.9001   12.1859  -16.1745 C   0  0  0  0  0  0  0  0  0  0  0  0
   38.9645   12.7665  -15.5399 C   0  0  0  0  0  0  0  0  0  0  0  0
   40.2740   12.5378  -15.9566 C   0  0  0  0  0  0  0  0  0  0  0  0
   40.7914   12.0736  -17.2351 C   0  0  0  0  0  0  0  0  0  0  0  0
   40.3920   11.5036  -18.2526 O   0  0  0  0  0  0  0  0  0  0  0  0
   42.1924   12.4433  -17.2391 N   0  0  0  0  0  0  0  0  0  0  0  0
   42.5777   12.6872  -15.8724 C   0  0  0  0  0  0  0  0  0  0  0  0
   41.3174   13.1610  -15.2546 C   0  0  0  0  0  0  0  0  0  0  0  0
   41.0810   14.0035  -14.1863 C   0  0  0  0  0  0  0  0  0  0  0  0
   41.9173   14.7024  -13.3559 C   0  0  0  0  0  0  0  0  0  0  0  0
   43.2860   14.8263  -13.2620 C   0  0  0  0  0  0  0  0  0  0  0  0
   43.8167   15.6309  -12.2764 C   0  0  0  0  0  0  0  0  0  0  0  0
   43.0320   16.3181  -11.3782 C   0  0  0  0  0  0  0  0  0  0  0  0
   41.6671   16.1780  -11.4917 C   0  0  0  0  0  0  0  0  0  0  0  0
   41.0818   15.3833  -12.4626 C   0  0  0  0  0  0  0  0  0  0  0  0
   39.7772   15.0932  -12.7556 N   0  0  0  0  0  0  0  0  0  0  0  0
   39.7852   14.2552  -13.8021 C   0  0  0  0  0  0  0  0  0  0  0  0
   38.7401   13.6581  -14.4610 C   0  0  0  0  0  0  0  0  0  0  0  0
   35.4481   13.5868  -14.4685 H   0  0  0  0  0  0  0  0  0  0  0  0
   42.8308   12.5284  -18.0515 H   0  0  0  0  0  0  0  0  0  0  0  0
   39.0369   15.5244  -12.1767 H   0  0  0  0  0  0  0  0  0  0  0  0
  1  2  2  0  0  0
  2  3  1  0  0  0
  3  4  1  0  0  0
  4  5  2  0  0  0
  5  6  1  0  0  0
  6  7  2  0  0  0
  7  8  1  0  0  0
  8  9  2  0  0  0
  9 10  1  0  0  0
 10 11  2  0  0  0
 11 12  1  0  0  0
 12 13  2  0  0  0
 12 14  1  0  0  0
 14 15  1  0  0  0
 15 16  1  0  0  0
 16 17  2  0  0  0
 17 18  1  0  0  0
 18 19  2  0  0  0
 19 20  1  0  0  0
 20 21  2  0  0  0
 21 22  1  0  0  0
 22 23  2  0  0  0
 23 24  1  0  0  0
 24 25  1  0  0  0
 25 26  2  0  0  0
 26  2  1  0  0  0
  9  4  1  0  0  0
 26 10  1  0  0  0
 16 11  1  0  0  0
 25 17  1  0  0  0
 23 18  1  0  0  0
  3 27  1  0  0  0
 14 28  1  0  0  0
 24 29  1  0  0  0
M  END
> <minimizedAffinity>
-11.50496

> <CNNscore>
0.6132068038

> <CNNaffinity>
6.5875701904

> <CNN_VS>
4.0395426750

> <CNNaffinity_variance>
0.1858536303

$$$$
[H]c1c([H])c([H])c2c(c1[H])c1c3c(c4c5c([H])c([H])c([H])c([H])c5n([H])c4c1c(=O)n2[H])C([H])([H])N([H])C3=O


 29 34  0  0  0  0  0  0  0  0999 V2000
   37.7956   13.9868  -13.0570 O   0  0  0  0  0  0  0  0  0  0  0  0
   37.3266   13.2778  -13.9949 C   0  0  0  0  0  0  0  0  0  0  0  0
   36.0221   13.0327  -14.0638 N   0  0  0  0  0  0  0  0  0  0  0  0
   35.5145   12.2745  -15.0473 C   0  0  0  0  0  0  0  0  0  0  0  0
   34.1813   11.9318  -15.0081 C   0  0  0  0  0  0  0  0  0  0  0  0
   33.6319   11.0451  -15.9024 C   0  0  0  0  0  0  0  0  0  0  0  0
   34.4628   10.5009  -16.8436 C   0  0  0  0  0  0  0  0  0  0  0  0
   35.8138   10.8401  -16.8995 C   0  0  0  0  0  0  0  0  0  0  0  0
   36.3471   11.7292  -16.0256 C   0  0  0  0  0  0  0  0  0  0  0  0
   37.6896   11.9901  -15.9765 C   0  0  0  0  0  0  0  0  0  0  0  0
   38.5572   11.5321  -16.9654 C   0  0  0  0  0  0  0  0  0  0  0  0
   38.2936   11.1145  -18.3343 C   0  0  0  0  0  0  0  0  0  0  0  0
   37.3435   10.7632  -19.0368 O   0  0  0  0  0  0  0  0  0  0  0  0
   39.5761   11.1703  -19.0063 N   0  0  0  0  0  0  0  0  0  0  0  0
   40.5962   11.1690  -17.9888 C   0  0  0  0  0  0  0  0  0  0  0  0
   39.9233   11.8313  -16.8472 C   0  0  0  0  0  0  0  0  0  0  0  0
   40.4216   12.5787  -15.7983 C   0  0  0  0  0  0  0  0  0  0  0  0
   41.6890   12.9816  -15.4689 C   0  0  0  0  0  0  0  0  0  0  0  0
   42.9294   12.7950  -16.0383 C   0  0  0  0  0  0  0  0  0  0  0  0
   44.0339   13.3490  -15.4273 C   0  0  0  0  0  0  0  0  0  0  0  0
   43.9482   14.0837  -14.2664 C   0  0  0  0  0  0  0  0  0  0  0  0
   42.6981   14.2560  -13.7159 C   0  0  0  0  0  0  0  0  0  0  0  0
   41.5563   13.7217  -14.2880 C   0  0  0  0  0  0  0  0  0  0  0  0
   40.2379   13.7559  -13.9235 N   0  0  0  0  0  0  0  0  0  0  0  0
   39.5562   13.0597  -14.8444 C   0  0  0  0  0  0  0  0  0  0  0  0
   38.2149   12.7814  -14.9241 C   0  0  0  0  0  0  0  0  0  0  0  0
   35.3881   13.4255  -13.3632 H   0  0  0  0  0  0  0  0  0  0  0  0
   39.7654   11.2065  -20.0249 H   0  0  0  0  0  0  0  0  0  0  0  0
   39.9799   14.2688  -13.0637 H   0  0  0  0  0  0  0  0  0  0  0  0
  1  2  2  0  0  0
  2  3  1  0  0  0
  3  4  1  0  0  0
  4  5  2  0  0  0
  5  6  1  0  0  0
  6  7  2  0  0  0
  7  8  1  0  0  0
  8  9  2  0  0  0
  9 10  1  0  0  0
 10 11  2  0  0  0
 11 12  1  0  0  0
 12 13  2  0  0  0
 12 14  1  0  0  0
 14 15  1  0  0  0
 15 16  1  0  0  0
 16 17  2  0  0  0
 17 18  1  0  0  0
 18 19  2  0  0  0
 19 20  1  0  0  0
 20 21  2  0  0  0
 21 22  1  0  0  0
 22 23  2  0  0  0
 23 24  1  0  0  0
 24 25  1  0  0  0
 25 26  2  0  0  0
 26  2  1  0  0  0
  9  4  1  0  0  0
 26 10  1  0  0  0
 16 11  1  0  0  0
 25 17  1  0  0  0
 23 18  1  0  0  0
  3 27  1  0  0  0
 14 28  1  0  0  0
 24 29  1  0  0  0
M  END
> <minimizedAffinity>
-12.28256

> <CNNscore>
0.5831743479

> <CNNaffinity>
6.8417320251

> <CNN_VS>
3.9899225235

> <CNNaffinity_variance>
0.0741862357

$$$$
[H]c1c([H])c([H])c2c(c1[H])c1c3c(c4c5c([H])c([H])c([H])c([H])c5n([H])c4c1c(=O)n2[H])C([H])([H])N([H])C3=O


 29 34  0  0  0  0  0  0  0  0999 V2000
   38.7730   10.6948  -17.5915 O   0  0  0  0  0  0  0  0  0  0  0  0
   38.0988   11.3862  -16.7731 C   0  0  0  0  0  0  0  0  0  0  0  0
   36.7799   11.2409  -16.6979 N   0  0  0  0  0  0  0  0  0  0  0  0
   36.0535   11.9750  -15.8417 C   0  0  0  0  0  0  0  0  0  0  0  0
   34.6795   11.8936  -15.8887 C   0  0  0  0  0  0  0  0  0  0  0  0
   33.8762   12.7202  -15.1409 C   0  0  0  0  0  0  0  0  0  0  0  0
   34.4915   13.6436  -14.3402 C   0  0  0  0  0  0  0  0  0  0  0  0
   35.8811   13.7365  -14.2780 C   0  0  0  0  0  0  0  0  0  0  0  0
   36.6694   12.9065  -15.0048 C   0  0  0  0  0  0  0  0  0  0  0  0
   38.0291   13.0518  -15.0592 C   0  0  0  0  0  0  0  0  0  0  0  0
   38.7045   13.9137  -14.1980 C   0  0  0  0  0  0  0  0  0  0  0  0
   38.3067   14.4686  -12.9128 C   0  0  0  0  0  0  0  0  0  0  0  0
   37.2842   14.6398  -12.2460 O   0  0  0  0  0  0  0  0  0  0  0  0
   39.5366   14.9157  -12.2907 N   0  0  0  0  0  0  0  0  0  0  0  0
   40.5253   15.0406  -13.3312 C   0  0  0  0  0  0  0  0  0  0  0  0
   40.0993   14.0179  -14.3146 C   0  0  0  0  0  0  0  0  0  0  0  0
   40.8145   13.2796  -15.2368 C   0  0  0  0  0  0  0  0  0  0  0  0
   42.1495   13.2200  -15.5397 C   0  0  0  0  0  0  0  0  0  0  0  0
   43.2682   13.8640  -15.0587 C   0  0  0  0  0  0  0  0  0  0  0  0
   44.4972   13.5645  -15.6064 C   0  0  0  0  0  0  0  0  0  0  0  0
   44.6534   12.6449  -16.6187 C   0  0  0  0  0  0  0  0  0  0  0  0
   43.5208   12.0148  -17.0832 C   0  0  0  0  0  0  0  0  0  0  0  0
   42.2626   12.2778  -16.5689 C   0  0  0  0  0  0  0  0  0  0  0  0
   41.0207   11.7898  -16.8716 N   0  0  0  0  0  0  0  0  0  0  0  0
   40.1476   12.4029  -16.0595 C   0  0  0  0  0  0  0  0  0  0  0  0
   38.7834   12.2797  -15.9781 C   0  0  0  0  0  0  0  0  0  0  0  0
   36.3034   10.5604  -17.2954 H   0  0  0  0  0  0  0  0  0  0  0  0
   39.7121   15.1175  -11.2891 H   0  0  0  0  0  0  0  0  0  0  0  0
   40.9413   11.0803  -17.6194 H   0  0  0  0  0  0  0  0  0  0  0  0
  1  2  2  0  0  0
  2  3  1  0  0  0
  3  4  1  0  0  0
  4  5  2  0  0  0
  5  6  1  0  0  0
  6  7  2  0  0  0
  7  8  1  0  0  0
  8  9  2  0  0  0
  9 10  1  0  0  0
 10 11  2  0  0  0
 11 12  1  0  0  0
 12 13  2  0  0  0
 12 14  1  0  0  0
 14 15  1  0  0  0
 15 16  1  0  0  0
 16 17  2  0  0  0
 17 18  1  0  0  0
 18 19  2  0  0  0
 19 20  1  0  0  0
 20 21  2  0  0  0
 21 22  1  0  0  0
 22 23  2  0  0  0
 23 24  1  0  0  0
 24 25  1  0  0  0
 25 26  2  0  0  0
 26  2  1  0  0  0
  9  4  1  0  0  0
 26 10  1  0  0  0
 16 11  1  0  0  0
 25 17  1  0  0  0
 23 18  1  0  0  0
  3 27  1  0  0  0
 14 28  1  0  0  0
 24 29  1  0  0  0
M  END
> <minimizedAffinity>
-10.84175

> <CNNscore>
0.5270341635

> <CNNaffinity>
6.5927529335

> <CNN_VS>
3.4746060371

> <CNNaffinity_variance>
0.0895177722

$$$$
[H]c1c([H])c([H])c2c(c1[H])c1c3c(c4c5c([H])c([H])c([H])c([H])c5n([H])c4c1c(=O)n2[H])C([H])([H])N([H])C3=O


 29 34  0  0  0  0  0  0  0  0999 V2000
   40.1176   13.8298  -14.1430 O   0  0  0  0  0  0  0  0  0  0  0  0
   39.3452   13.1838  -14.9101 C   0  0  0  0  0  0  0  0  0  0  0  0
   39.8408   12.4646  -15.9119 N   0  0  0  0  0  0  0  0  0  0  0  0
   39.0317   11.7839  -16.7376 C   0  0  0  0  0  0  0  0  0  0  0  0
   39.5714   11.1627  -17.8419 C   0  0  0  0  0  0  0  0  0  0  0  0
   38.7845   10.5716  -18.8006 C   0  0  0  0  0  0  0  0  0  0  0  0
   37.4284   10.6239  -18.6251 C   0  0  0  0  0  0  0  0  0  0  0  0
   36.8662   11.2453  -17.5110 C   0  0  0  0  0  0  0  0  0  0  0  0
   37.6479   11.8117  -16.5588 C   0  0  0  0  0  0  0  0  0  0  0  0
   37.1266   12.5331  -15.5193 C   0  0  0  0  0  0  0  0  0  0  0  0
   35.7598   12.5390  -15.2501 C   0  0  0  0  0  0  0  0  0  0  0  0
   34.7183   11.5953  -15.6275 C   0  0  0  0  0  0  0  0  0  0  0  0
   34.5319   10.6853  -16.4380 O   0  0  0  0  0  0  0  0  0  0  0  0
   33.6154   11.8601  -14.7258 N   0  0  0  0  0  0  0  0  0  0  0  0
   33.8187   13.1739  -14.1704 C   0  0  0  0  0  0  0  0  0  0  0  0
   35.2941   13.3071  -14.1716 C   0  0  0  0  0  0  0  0  0  0  0  0
   36.1492   14.0324  -13.3656 C   0  0  0  0  0  0  0  0  0  0  0  0
   35.9342   14.8481  -12.2858 C   0  0  0  0  0  0  0  0  0  0  0  0
   34.8078   15.2576  -11.6068 C   0  0  0  0  0  0  0  0  0  0  0  0
   34.9492   16.1128  -10.5350 C   0  0  0  0  0  0  0  0  0  0  0  0
   36.1748   16.5769  -10.1138 C   0  0  0  0  0  0  0  0  0  0  0  0
   37.2857   16.1542  -10.8084 C   0  0  0  0  0  0  0  0  0  0  0  0
   37.2005   15.2962  -11.8915 C   0  0  0  0  0  0  0  0  0  0  0  0
   38.1469   14.7590  -12.7209 N   0  0  0  0  0  0  0  0  0  0  0  0
   37.5011   13.9941  -13.6127 C   0  0  0  0  0  0  0  0  0  0  0  0
   37.9916   13.2591  -14.6625 C   0  0  0  0  0  0  0  0  0  0  0  0
   40.8521   12.4215  -16.0618 H   0  0  0  0  0  0  0  0  0  0  0  0
   32.8130   11.2452  -14.4962 H   0  0  0  0  0  0  0  0  0  0  0  0
   39.1384   15.0005  -12.5551 H   0  0  0  0  0  0  0  0  0  0  0  0
  1  2  2  0  0  0
  2  3  1  0  0  0
  3  4  1  0  0  0
  4  5  2  0  0  0
  5  6  1  0  0  0
  6  7  2  0  0  0
  7  8  1  0  0  0
  8  9  2  0  0  0
  9 10  1  0  0  0
 10 11  2  0  0  0
 11 12  1  0  0  0
 12 13  2  0  0  0
 12 14  1  0  0  0
 14 15  1  0  0  0
 15 16  1  0  0  0
 16 17  2  0  0  0
 17 18  1  0  0  0
 18 19  2  0  0  0
 19 20  1  0  0  0
 20 21  2  0  0  0
 21 22  1  0  0  0
 22 23  2  0  0  0
 23 24  1  0  0  0
 24 25  1  0  0  0
 25 26  2  0  0  0
 26  2  1  0  0  0
  9  4  1  0  0  0
 26 10  1  0  0  0
 16 11  1  0  0  0
 25 17  1  0  0  0
 23 18  1  0  0  0
  3 27  1  0  0  0
 14 28  1  0  0  0
 24 29  1  0  0  0
M  END
> <minimizedAffinity>
-11.18384

> <CNNscore>
0.4752976000

> <CNNaffinity>
6.7019858360

> <CNN_VS>
3.1854376793

> <CNNaffinity_variance>
0.2048482895

$$$$
[H]c1c([H])c([H])c2c(c1[H])c1c3c(c4c5c([H])c([H])c([H])c([H])c5n([H])c4c1c(=O)n2[H])C([H])([H])N([H])C3=O


 29 34  0  0  0  0  0  0  0  0999 V2000
   42.7613   12.1098  -16.8610 O   0  0  0  0  0  0  0  0  0  0  0  0
   42.6888   12.8722  -15.8531 C   0  0  0  0  0  0  0  0  0  0  0  0
   43.7904   13.4012  -15.3305 N   0  0  0  0  0  0  0  0  0  0  0  0
   43.7272   14.2025  -14.2564 C   0  0  0  0  0  0  0  0  0  0  0  0
   44.8978   14.6206  -13.6634 C   0  0  0  0  0  0  0  0  0  0  0  0
   44.9041   15.3223  -12.4821 C   0  0  0  0  0  0  0  0  0  0  0  0
   43.6949   15.5928  -11.9016 C   0  0  0  0  0  0  0  0  0  0  0  0
   42.5007   15.1803  -12.4908 C   0  0  0  0  0  0  0  0  0  0  0  0
   42.4992   14.5033  -13.6657 C   0  0  0  0  0  0  0  0  0  0  0  0
   41.3560   13.9802  -14.2062 C   0  0  0  0  0  0  0  0  0  0  0  0
   40.0980   14.3035  -13.7024 C   0  0  0  0  0  0  0  0  0  0  0  0
   39.6639   15.4387  -12.9021 C   0  0  0  0  0  0  0  0  0  0  0  0
   40.1503   16.3205  -12.1912 O   0  0  0  0  0  0  0  0  0  0  0  0
   38.2233   15.4850  -13.0515 N   0  0  0  0  0  0  0  0  0  0  0  0
   37.7974   14.1927  -13.5253 C   0  0  0  0  0  0  0  0  0  0  0  0
   38.9688   13.7243  -14.3018 C   0  0  0  0  0  0  0  0  0  0  0  0
   39.0699   12.8680  -15.3804 C   0  0  0  0  0  0  0  0  0  0  0  0
   38.1333   12.1850  -16.1110 C   0  0  0  0  0  0  0  0  0  0  0  0
   36.7609   12.0838  -16.0491 C   0  0  0  0  0  0  0  0  0  0  0  0
   36.1098   11.2800  -16.9603 C   0  0  0  0  0  0  0  0  0  0  0  0
   36.7772   10.5710  -17.9332 C   0  0  0  0  0  0  0  0  0  0  0  0
   38.1484   10.6878  -17.9747 C   0  0  0  0  0  0  0  0  0  0  0  0
   38.8519   11.4807  -17.0843 C   0  0  0  0  0  0  0  0  0  0  0  0
   40.1871   11.7390  -16.9334 N   0  0  0  0  0  0  0  0  0  0  0  0
   40.3111   12.5809  -15.8973 C   0  0  0  0  0  0  0  0  0  0  0  0
   41.4378   13.1238  -15.3329 C   0  0  0  0  0  0  0  0  0  0  0  0
   44.7033   13.2025  -15.7477 H   0  0  0  0  0  0  0  0  0  0  0  0
   37.5844   16.2797  -12.8642 H   0  0  0  0  0  0  0  0  0  0  0  0
   40.8509   11.2857  -17.5837 H   0  0  0  0  0  0  0  0  0  0  0  0
  1  2  2  0  0  0
  2  3  1  0  0  0
  3  4  1  0  0  0
  4  5  2  0  0  0
  5  6  1  0  0  0
  6  7  2  0  0  0
  7  8  1  0  0  0
  8  9  2  0  0  0
  9 10  1  0  0  0
 10 11  2  0  0  0
 11 12  1  0  0  0
 12 13  2  0  0  0
 12 14  1  0  0  0
 14 15  1  0  0  0
 15 16  1  0  0  0
 16 17  2  0  0  0
 17 18  1  0  0  0
 18 19  2  0  0  0
 19 20  1  0  0  0
 20 21  2  0  0  0
 21 22  1  0  0  0
 22 23  2  0  0  0
 23 24  1  0  0  0
 24 25  1  0  0  0
 25 26  2  0  0  0
 26  2  1  0  0  0
  9  4  1  0  0  0
 26 10  1  0  0  0
 16 11  1  0  0  0
 25 17  1  0  0  0
 23 18  1  0  0  0
  3 27  1  0  0  0
 14 28  1  0  0  0
 24 29  1  0  0  0
M  END
> <minimizedAffinity>
-10.61725

> <CNNscore>
0.4520360529

> <CNNaffinity>
6.2942557335

> <CNN_VS>
2.8452305794

> <CNNaffinity_variance>
0.2172072828

$$$$
[H]c1c([H])c([H])c2c(c1[H])c1c3c(c4c5c([H])c([H])c([H])c([H])c5n([H])c4c1c(=O)n2[H])C([H])([H])N([H])C3=O


 29 34  0  0  0  0  0  0  0  0999 V2000
   33.4536   11.8005  -15.8785 O   0  0  0  0  0  0  0  0  0  0  0  0
   34.7110   11.9462  -15.8824 C   0  0  0  0  0  0  0  0  0  0  0  0
   35.4552   11.3344  -16.7980 N   0  0  0  0  0  0  0  0  0  0  0  0
   36.7896   11.4731  -16.8062 C   0  0  0  0  0  0  0  0  0  0  0  0
   37.5356   10.7180  -17.6836 C   0  0  0  0  0  0  0  0  0  0  0  0
   38.9090   10.7061  -17.6466 C   0  0  0  0  0  0  0  0  0  0  0  0
   39.5220   11.4745  -16.6946 C   0  0  0  0  0  0  0  0  0  0  0  0
   38.7817   12.2477  -15.8016 C   0  0  0  0  0  0  0  0  0  0  0  0
   37.4269   12.2694  -15.8538 C   0  0  0  0  0  0  0  0  0  0  0  0
   36.6699   12.9199  -14.9175 C   0  0  0  0  0  0  0  0  0  0  0  0
   37.2450   13.7837  -13.9881 C   0  0  0  0  0  0  0  0  0  0  0  0
   38.5182   14.4880  -14.0143 C   0  0  0  0  0  0  0  0  0  0  0  0
   39.5979   14.4434  -14.6073 O   0  0  0  0  0  0  0  0  0  0  0  0
   38.3895   15.5496  -13.0365 N   0  0  0  0  0  0  0  0  0  0  0  0
   37.2935   15.2046  -12.1673 C   0  0  0  0  0  0  0  0  0  0  0  0
   36.4086   14.4117  -13.0522 C   0  0  0  0  0  0  0  0  0  0  0  0
   35.0419   14.2145  -13.0425 C   0  0  0  0  0  0  0  0  0  0  0  0
   34.0428   14.6967  -12.2383 C   0  0  0  0  0  0  0  0  0  0  0  0
   34.0160   15.5388  -11.1485 C   0  0  0  0  0  0  0  0  0  0  0  0
   32.8050   15.8204  -10.5530 C   0  0  0  0  0  0  0  0  0  0  0  0
   31.6166   15.2921  -11.0040 C   0  0  0  0  0  0  0  0  0  0  0  0
   31.6690   14.4528  -12.0940 C   0  0  0  0  0  0  0  0  0  0  0  0
   32.8576   14.1368  -12.7297 C   0  0  0  0  0  0  0  0  0  0  0  0
   33.1474   13.3378  -13.8020 N   0  0  0  0  0  0  0  0  0  0  0  0
   34.4746   13.3898  -13.9849 C   0  0  0  0  0  0  0  0  0  0  0  0
   35.2621   12.7538  -14.9114 C   0  0  0  0  0  0  0  0  0  0  0  0
   35.0132   10.7498  -17.5120 H   0  0  0  0  0  0  0  0  0  0  0  0
   38.9587   16.4115  -12.9470 H   0  0  0  0  0  0  0  0  0  0  0  0
   32.3681   12.8503  -14.2752 H   0  0  0  0  0  0  0  0  0  0  0  0
  1  2  2  0  0  0
  2  3  1  0  0  0
  3  4  1  0  0  0
  4  5  2  0  0  0
  5  6  1  0  0  0
  6  7  2  0  0  0
  7  8  1  0  0  0
  8  9  2  0  0  0
  9 10  1  0  0  0
 10 11  2  0  0  0
 11 12  1  0  0  0
 12 13  2  0  0  0
 12 14  1  0  0  0
 14 15  1  0  0  0
 15 16  1  0  0  0
 16 17  2  0  0  0
 17 18  1  0  0  0
 18 19  2  0  0  0
 19 20  1  0  0  0
 20 21  2  0  0  0
 21 22  1  0  0  0
 22 23  2  0  0  0
 23 24  1  0  0  0
 24 25  1  0  0  0
 25 26  2  0  0  0
 26  2  1  0  0  0
  9  4  1  0  0  0
 26 10  1  0  0  0
 16 11  1  0  0  0
 25 17  1  0  0  0
 23 18  1  0  0  0
  3 27  1  0  0  0
 14 28  1  0  0  0
 24 29  1  0  0  0
M  END
> <minimizedAffinity>
-10.97134

> <CNNscore>
0.4122359157

> <CNNaffinity>
6.4114189148

> <CNN_VS>
2.6430170536

> <CNNaffinity_variance>
0.1755401194

$$$$
[H]C1=C(c2c([H])c(C3([H])C([H])([H])C([H])([H])N(C([H])([H])C([H])([H])[H])C([H])([H])C3([H])[H])c([H])c([H])c2N([H])C(=O)c2nc([H])c(C#N)n2[H])C([H])([H])C([H])([H])C([H])([H])C1([H])[H]


 32 35  0  0  0  0  0  0  0  0999 V2000
   36.0393   15.8394  -10.2310 C   0  0  0  0  0  0  0  0  0  0  0  0
   37.3868   15.7470  -10.0198 C   0  0  0  0  0  0  0  0  0  0  0  0
   38.2052   15.0713  -10.9159 C   0  0  0  0  0  0  0  0  0  0  0  0
   37.6909   14.4579  -12.0673 C   0  0  0  0  0  0  0  0  0  0  0  0
   36.3128   14.5392  -12.2969 C   0  0  0  0  0  0  0  0  0  0  0  0
   35.5398   15.2394  -11.3534 C   0  0  0  0  0  0  0  0  0  0  0  0
   35.1372   15.7989   -6.4980 N   0  0  0  0  0  0  0  0  0  0  0  0
   34.4546   14.9591   -7.4439 C   0  0  0  0  0  0  0  0  0  0  0  0
   34.0921   15.6684   -8.7040 C   0  0  0  0  0  0  0  0  0  0  0  0
   35.1696   16.5660   -9.2546 C   0  0  0  0  0  0  0  0  0  0  0  0
   35.9589   17.2776   -8.1877 C   0  0  0  0  0  0  0  0  0  0  0  0
   35.1767   17.1945   -6.9033 C   0  0  0  0  0  0  0  0  0  0  0  0
   33.6604   14.4118   -5.1495 C   0  0  0  0  0  0  0  0  0  0  0  0
   34.4061   15.7397   -5.2249 C   0  0  0  0  0  0  0  0  0  0  0  0
   35.6068   13.8302  -13.3491 C   0  0  0  0  0  0  0  0  0  0  0  0
   34.7861   12.8021  -13.0708 C   0  0  0  0  0  0  0  0  0  0  0  0
   34.0406   12.0377  -14.0844 C   0  0  0  0  0  0  0  0  0  0  0  0
   34.4683   12.2276  -15.4918 C   0  0  0  0  0  0  0  0  0  0  0  0
   35.8946   12.7260  -15.5163 C   0  0  0  0  0  0  0  0  0  0  0  0
   35.8238   14.1088  -14.8107 C   0  0  0  0  0  0  0  0  0  0  0  0
   38.5472   13.9103  -13.0326 N   0  0  0  0  0  0  0  0  0  0  0  0
   39.5638   14.5600  -13.7384 C   0  0  0  0  0  0  0  0  0  0  0  0
   39.8589   15.7639  -13.5862 O   0  0  0  0  0  0  0  0  0  0  0  0
   38.3845   12.8972  -13.3107 H   0  0  0  0  0  0  0  0  0  0  0  0
   40.3792   13.8401  -14.7410 C   0  0  0  0  0  0  0  0  0  0  0  0
   41.6953   13.6702  -14.6697 N   0  0  0  0  0  0  0  0  0  0  0  0
   42.1376   12.9742  -15.7357 C   0  0  0  0  0  0  0  0  0  0  0  0
   41.0402   12.7007  -16.5037 C   0  0  0  0  0  0  0  0  0  0  0  0
   39.9716   13.2481  -15.8628 N   0  0  0  0  0  0  0  0  0  0  0  0
   38.9848   13.2145  -16.1918 H   0  0  0  0  0  0  0  0  0  0  0  0
   41.0133   11.9815  -17.7390 C   0  0  0  0  0  0  0  0  0  0  0  0
   40.9960   11.4034  -18.7254 N   0  0  0  0  0  0  0  0  0  0  0  0
 13 14  1  0  0  0
 14  7  1  0  0  0
  7  8  1  0  0  0
  8  9  1  0  0  0
  9 10  1  0  0  0
 10 11  1  0  0  0
 11 12  1  0  0  0
 10  1  1  0  0  0
  1  2  2  0  0  0
  2  3  1  0  0  0
  3  4  2  0  0  0
  4 21  1  0  0  0
 21 22  1  0  0  0
 22 23  2  0  0  0
 22 25  1  0  0  0
 25 26  2  0  0  0
 26 27  1  0  0  0
 27 28  2  0  0  0
 28 29  1  0  0  0
 28 31  1  0  0  0
 31 32  3  0  0  0
  4  5  1  0  0  0
  5  6  2  0  0  0
  5 15  1  0  0  0
 15 16  2  0  0  0
 16 17  1  0  0  0
 17 18  1  0  0  0
 18 19  1  0  0  0
 19 20  1  0  0  0
 12  7  1  0  0  0
  6  1  1  0  0  0
 20 15  1  0  0  0
 29 25  1  0  0  0
 21 24  1  0  0  0
 29 30  1  0  0  0
M  END
> <minimizedAffinity>
-8.09513

> <CNNscore>
0.5518631339

> <CNNaffinity>
6.9821243286

> <CNN_VS>
3.8531770706

> <CNNaffinity_variance>
0.2290981263

$$$$
[H]C1=C(c2c([H])c(C3([H])C([H])([H])C([H])([H])N(C([H])([H])C([H])([H])[H])C([H])([H])C3([H])[H])c([H])c([H])c2N([H])C(=O)c2nc([H])c(C#N)n2[H])C([H])([H])C([H])([H])C([H])([H])C1([H])[H]


 32 35  0  0  0  0  0  0  0  0999 V2000
   37.7131   17.1794   -9.5509 C   0  0  0  0  0  0  0  0  0  0  0  0
   38.9328   16.5976   -9.7574 C   0  0  0  0  0  0  0  0  0  0  0  0
   39.1012   15.6168  -10.7265 C   0  0  0  0  0  0  0  0  0  0  0  0
   38.0369   15.1821  -11.5294 C   0  0  0  0  0  0  0  0  0  0  0  0
   36.7801   15.7643  -11.3286 C   0  0  0  0  0  0  0  0  0  0  0  0
   36.6765   16.7531  -10.3338 C   0  0  0  0  0  0  0  0  0  0  0  0
   36.8953   17.4970   -5.8118 N   0  0  0  0  0  0  0  0  0  0  0  0
   35.8571   17.4289   -6.8036 C   0  0  0  0  0  0  0  0  0  0  0  0
   36.1271   18.2829   -7.9954 C   0  0  0  0  0  0  0  0  0  0  0  0
   37.5457   18.2308   -8.5001 C   0  0  0  0  0  0  0  0  0  0  0  0
   38.5687   18.1242   -7.4003 C   0  0  0  0  0  0  0  0  0  0  0  0
   37.8974   18.5078   -6.1077 C   0  0  0  0  0  0  0  0  0  0  0  0
   37.3003   18.6259   -3.6940 C   0  0  0  0  0  0  0  0  0  0  0  0
   36.2778   17.8637   -4.5300 C   0  0  0  0  0  0  0  0  0  0  0  0
   35.5520   15.3186  -11.9619 C   0  0  0  0  0  0  0  0  0  0  0  0
   34.3543   15.5204  -11.3851 C   0  0  0  0  0  0  0  0  0  0  0  0
   33.0707   15.0953  -11.9673 C   0  0  0  0  0  0  0  0  0  0  0  0
   33.1500   14.1301  -13.0906 C   0  0  0  0  0  0  0  0  0  0  0  0
   34.4690   13.3958  -13.0246 C   0  0  0  0  0  0  0  0  0  0  0  0
   35.5325   14.5103  -13.2297 C   0  0  0  0  0  0  0  0  0  0  0  0
   38.2564   14.3019  -12.5980 N   0  0  0  0  0  0  0  0  0  0  0  0
   39.1249   14.4730  -13.6798 C   0  0  0  0  0  0  0  0  0  0  0  0
   39.8563   15.4732  -13.8354 O   0  0  0  0  0  0  0  0  0  0  0  0
   37.6636   13.4202  -12.6335 H   0  0  0  0  0  0  0  0  0  0  0  0
   39.2357   13.4485  -14.7411 C   0  0  0  0  0  0  0  0  0  0  0  0
   38.5197   12.3303  -14.7954 N   0  0  0  0  0  0  0  0  0  0  0  0
   38.8567   11.6089  -15.8827 C   0  0  0  0  0  0  0  0  0  0  0  0
   39.8293   12.3166  -16.5324 C   0  0  0  0  0  0  0  0  0  0  0  0
   40.0402   13.4462  -15.8030 N   0  0  0  0  0  0  0  0  0  0  0  0
   40.7233   14.1972  -16.0321 H   0  0  0  0  0  0  0  0  0  0  0  0
   40.4982   11.9483  -17.7410 C   0  0  0  0  0  0  0  0  0  0  0  0
   41.0293   11.6499  -18.7088 N   0  0  0  0  0  0  0  0  0  0  0  0
 13 14  1  0  0  0
 14  7  1  0  0  0
  7  8  1  0  0  0
  8  9  1  0  0  0
  9 10  1  0  0  0
 10 11  1  0  0  0
 11 12  1  0  0  0
 10  1  1  0  0  0
  1  2  2  0  0  0
  2  3  1  0  0  0
  3  4  2  0  0  0
  4 21  1  0  0  0
 21 22  1  0  0  0
 22 23  2  0  0  0
 22 25  1  0  0  0
 25 26  2  0  0  0
 26 27  1  0  0  0
 27 28  2  0  0  0
 28 29  1  0  0  0
 28 31  1  0  0  0
 31 32  3  0  0  0
  4  5  1  0  0  0
  5  6  2  0  0  0
  5 15  1  0  0  0
 15 16  2  0  0  0
 16 17  1  0  0  0
 17 18  1  0  0  0
 18 19  1  0  0  0
 19 20  1  0  0  0
 12  7  1  0  0  0
  6  1  1  0  0  0
 20 15  1  0  0  0
 29 25  1  0  0  0
 21 24  1  0  0  0
 29 30  1  0  0  0
M  END
> <minimizedAffinity>
-7.32963

> <CNNscore>
0.3202721775

> <CNNaffinity>
6.5932707787

> <CNN_VS>
2.1116411686

> <CNNaffinity_variance>
0.2524287999

$$$$
[H]C1=C(c2c([H])c(C3([H])C([H])([H])C([H])([H])N(C([H])([H])C([H])([H])[H])C([H])([H])C3([H])[H])c([H])c([H])c2N([H])C(=O)c2nc([H])c(C#N)n2[H])C([H])([H])C([H])([H])C([H])([H])C1([H])[H]


 32 35  0  0  0  0  0  0  0  0999 V2000
   42.6528   13.7005  -14.2550 C   0  0  0  0  0  0  0  0  0  0  0  0
   42.0107   14.5521  -13.3999 C   0  0  0  0  0  0  0  0  0  0  0  0
   40.6360   14.7368  -13.4745 C   0  0  0  0  0  0  0  0  0  0  0  0
   39.8514   14.0647  -14.4227 C   0  0  0  0  0  0  0  0  0  0  0  0
   40.4931   13.1921  -15.3089 C   0  0  0  0  0  0  0  0  0  0  0  0
   41.8861   13.0474  -15.1797 C   0  0  0  0  0  0  0  0  0  0  0  0
   45.7684   15.5101  -12.9250 N   0  0  0  0  0  0  0  0  0  0  0  0
   45.2465   15.7806  -14.2366 C   0  0  0  0  0  0  0  0  0  0  0  0
   44.8675   14.5472  -14.9835 C   0  0  0  0  0  0  0  0  0  0  0  0
   44.1345   13.5155  -14.1662 C   0  0  0  0  0  0  0  0  0  0  0  0
   44.6257   13.4173  -12.7461 C   0  0  0  0  0  0  0  0  0  0  0  0
   45.9706   14.0920  -12.6760 C   0  0  0  0  0  0  0  0  0  0  0  0
   48.1615   15.1453  -13.1769 C   0  0  0  0  0  0  0  0  0  0  0  0
   47.0819   16.1591  -12.8141 C   0  0  0  0  0  0  0  0  0  0  0  0
   39.8537   12.5462  -16.4413 C   0  0  0  0  0  0  0  0  0  0  0  0
   38.9279   11.5867  -16.2680 C   0  0  0  0  0  0  0  0  0  0  0  0
   38.2407   10.8886  -17.3671 C   0  0  0  0  0  0  0  0  0  0  0  0
   38.8353   11.0487  -18.7163 C   0  0  0  0  0  0  0  0  0  0  0  0
   40.2907   11.4305  -18.5774 C   0  0  0  0  0  0  0  0  0  0  0  0
   40.2527   12.8119  -17.8665 C   0  0  0  0  0  0  0  0  0  0  0  0
   38.4527   14.1497  -14.3874 N   0  0  0  0  0  0  0  0  0  0  0  0
   37.5604   13.2765  -13.7587 C   0  0  0  0  0  0  0  0  0  0  0  0
   37.9112   12.2681  -13.1109 O   0  0  0  0  0  0  0  0  0  0  0  0
   37.9973   14.9340  -14.9420 H   0  0  0  0  0  0  0  0  0  0  0  0
   36.0993   13.4989  -13.8231 C   0  0  0  0  0  0  0  0  0  0  0  0
   35.3535   13.3376  -14.9111 N   0  0  0  0  0  0  0  0  0  0  0  0
   34.0633   13.6198  -14.6424 C   0  0  0  0  0  0  0  0  0  0  0  0
   34.0095   13.9729  -13.3227 C   0  0  0  0  0  0  0  0  0  0  0  0
   35.2815   13.8881  -12.8460 N   0  0  0  0  0  0  0  0  0  0  0  0
   35.5783   14.0943  -11.8701 H   0  0  0  0  0  0  0  0  0  0  0  0
   32.8485   14.3572  -12.5824 C   0  0  0  0  0  0  0  0  0  0  0  0
   31.9219   14.6625  -11.9858 N   0  0  0  0  0  0  0  0  0  0  0  0
 13 14  1  0  0  0
 14  7  1  0  0  0
  7  8  1  0  0  0
  8  9  1  0  0  0
  9 10  1  0  0  0
 10 11  1  0  0  0
 11 12  1  0  0  0
 10  1  1  0  0  0
  1  2  2  0  0  0
  2  3  1  0  0  0
  3  4  2  0  0  0
  4 21  1  0  0  0
 21 22  1  0  0  0
 22 23  2  0  0  0
 22 25  1  0  0  0
 25 26  2  0  0  0
 26 27  1  0  0  0
 27 28  2  0  0  0
 28 29  1  0  0  0
 28 31  1  0  0  0
 31 32  3  0  0  0
  4  5  1  0  0  0
  5  6  2  0  0  0
  5 15  1  0  0  0
 15 16  2  0  0  0
 16 17  1  0  0  0
 17 18  1  0  0  0
 18 19  1  0  0  0
 19 20  1  0  0  0
 12  7  1  0  0  0
  6  1  1  0  0  0
 20 15  1  0  0  0
 29 25  1  0  0  0
 21 24  1  0  0  0
 29 30  1  0  0  0
M  END
> <minimizedAffinity>
-8.57057

> <CNNscore>
0.3109413981

> <CNNaffinity>
6.9201993942

> <CNN_VS>
2.1517765522

> <CNNaffinity_variance>
0.0630375594

$$$$
[H]C1=C(c2c([H])c(C3([H])C([H])([H])C([H])([H])N(C([H])([H])C([H])([H])[H])C([H])([H])C3([H])[H])c([H])c([H])c2N([H])C(=O)c2nc([H])c(C#N)n2[H])C([H])([H])C([H])([H])C([H])([H])C1([H])[H]


 32 35  0  0  0  0  0  0  0  0999 V2000
   41.7383   14.8733  -13.1145 C   0  0  0  0  0  0  0  0  0  0  0  0
   40.6163   15.5020  -12.6515 C   0  0  0  0  0  0  0  0  0  0  0  0
   39.3610   15.1845  -13.1542 C   0  0  0  0  0  0  0  0  0  0  0  0
   39.1892   14.2136  -14.1514 C   0  0  0  0  0  0  0  0  0  0  0  0
   40.3279   13.5629  -14.6399 C   0  0  0  0  0  0  0  0  0  0  0  0
   41.5688   13.9281  -14.0878 C   0  0  0  0  0  0  0  0  0  0  0  0
   45.0661   16.4115  -14.2594 N   0  0  0  0  0  0  0  0  0  0  0  0
   44.7990   15.0068  -14.4064 C   0  0  0  0  0  0  0  0  0  0  0  0
   44.1716   14.3990  -13.1983 C   0  0  0  0  0  0  0  0  0  0  0  0
   43.0842   15.2293  -12.5673 C   0  0  0  0  0  0  0  0  0  0  0  0
   43.3590   16.7092  -12.6119 C   0  0  0  0  0  0  0  0  0  0  0  0
   44.8232   16.8972  -12.9108 C   0  0  0  0  0  0  0  0  0  0  0  0
   47.2745   16.5521  -13.2463 C   0  0  0  0  0  0  0  0  0  0  0  0
   46.4884   16.6380  -14.5500 C   0  0  0  0  0  0  0  0  0  0  0  0
   40.3388   12.6547  -15.7727 C   0  0  0  0  0  0  0  0  0  0  0  0
   41.2005   12.8181  -16.7919 C   0  0  0  0  0  0  0  0  0  0  0  0
   41.2673   11.9392  -17.9711 C   0  0  0  0  0  0  0  0  0  0  0  0
   40.1180   11.0230  -18.1695 C   0  0  0  0  0  0  0  0  0  0  0  0
   38.9119   11.5719  -17.4432 C   0  0  0  0  0  0  0  0  0  0  0  0
   39.3310   11.5525  -15.9468 C   0  0  0  0  0  0  0  0  0  0  0  0
   37.9067   13.8023  -14.5398 N   0  0  0  0  0  0  0  0  0  0  0  0
   37.0972   12.8408  -13.9281 C   0  0  0  0  0  0  0  0  0  0  0  0
   37.4239   12.2025  -12.9056 O   0  0  0  0  0  0  0  0  0  0  0  0
   37.5088   14.2222  -15.4317 H   0  0  0  0  0  0  0  0  0  0  0  0
   35.7615   12.5086  -14.4701 C   0  0  0  0  0  0  0  0  0  0  0  0
   34.6074   12.8946  -13.9362 N   0  0  0  0  0  0  0  0  0  0  0  0
   33.5736   12.4289  -14.6647 C   0  0  0  0  0  0  0  0  0  0  0  0
   34.1161   11.7200  -15.7002 C   0  0  0  0  0  0  0  0  0  0  0  0
   35.4673   11.7885  -15.5517 N   0  0  0  0  0  0  0  0  0  0  0  0
   36.1695   11.3484  -16.1812 H   0  0  0  0  0  0  0  0  0  0  0  0
   33.4088   11.0380  -16.7386 C   0  0  0  0  0  0  0  0  0  0  0  0
   32.8442   10.4965  -17.5726 N   0  0  0  0  0  0  0  0  0  0  0  0
 13 14  1  0  0  0
 14  7  1  0  0  0
  7  8  1  0  0  0
  8  9  1  0  0  0
  9 10  1  0  0  0
 10 11  1  0  0  0
 11 12  1  0  0  0
 10  1  1  0  0  0
  1  2  2  0  0  0
  2  3  1  0  0  0
  3  4  2  0  0  0
  4 21  1  0  0  0
 21 22  1  0  0  0
 22 23  2  0  0  0
 22 25  1  0  0  0
 25 26  2  0  0  0
 26 27  1  0  0  0
 27 28  2  0  0  0
 28 29  1  0  0  0
 28 31  1  0  0  0
 31 32  3  0  0  0
  4  5  1  0  0  0
  5  6  2  0  0  0
  5 15  1  0  0  0
 15 16  2  0  0  0
 16 17  1  0  0  0
 17 18  1  0  0  0
 18 19  1  0  0  0
 19 20  1  0  0  0
 12  7  1  0  0  0
  6  1  1  0  0  0
 20 15  1  0  0  0
 29 25  1  0  0  0
 21 24  1  0  0  0
 29 30  1  0  0  0
M  END
> <minimizedAffinity>
-8.62861

> <CNNscore>
0.2558638155

> <CNNaffinity>
6.9076499939

> <CNN_VS>
1.7674176693

> <CNNaffinity_variance>
0.0332568362

$$$$
[H]C1=C(c2c([H])c(C3([H])C([H])([H])C([H])([H])N(C([H])([H])C([H])([H])[H])C([H])([H])C3([H])[H])c([H])c([H])c2N([H])C(=O)c2nc([H])c(C#N)n2[H])C([H])([H])C([H])([H])C([H])([H])C1([H])[H]


 32 35  0  0  0  0  0  0  0  0999 V2000
   41.3188   15.6440  -12.0924 C   0  0  0  0  0  0  0  0  0  0  0  0
   39.9844   15.9340  -12.1570 C   0  0  0  0  0  0  0  0  0  0  0  0
   39.1671   15.3287  -13.1030 C   0  0  0  0  0  0  0  0  0  0  0  0
   39.6693   14.4014  -14.0274 C   0  0  0  0  0  0  0  0  0  0  0  0
   41.0342   14.0959  -13.9781 C   0  0  0  0  0  0  0  0  0  0  0  0
   41.8066   14.7408  -12.9955 C   0  0  0  0  0  0  0  0  0  0  0  0
   44.1239   14.7867   -9.6131 N   0  0  0  0  0  0  0  0  0  0  0  0
   42.7386   14.6392   -9.2589 C   0  0  0  0  0  0  0  0  0  0  0  0
   41.8976   15.7941   -9.6852 C   0  0  0  0  0  0  0  0  0  0  0  0
   42.1877   16.3075  -11.0715 C   0  0  0  0  0  0  0  0  0  0  0  0
   43.6490   16.2637  -11.4325 C   0  0  0  0  0  0  0  0  0  0  0  0
   44.4338   16.0986  -10.1576 C   0  0  0  0  0  0  0  0  0  0  0  0
   44.4917   13.3457   -7.6865 C   0  0  0  0  0  0  0  0  0  0  0  0
   44.9262   14.6254   -8.3928 C   0  0  0  0  0  0  0  0  0  0  0  0
   41.7352   13.2838  -14.9565 C   0  0  0  0  0  0  0  0  0  0  0  0
   43.0677   13.3727  -15.1136 C   0  0  0  0  0  0  0  0  0  0  0  0
   43.8432   12.5833  -16.0845 C   0  0  0  0  0  0  0  0  0  0  0  0
   43.0613   11.8917  -17.1381 C   0  0  0  0  0  0  0  0  0  0  0  0
   41.7275   12.5824  -17.3032 C   0  0  0  0  0  0  0  0  0  0  0  0
   41.0267   12.3836  -15.9305 C   0  0  0  0  0  0  0  0  0  0  0  0
   38.8063   13.6925  -14.8744 N   0  0  0  0  0  0  0  0  0  0  0  0
   37.9437   12.6471  -14.5326 C   0  0  0  0  0  0  0  0  0  0  0  0
   37.8189   12.1962  -13.3747 O   0  0  0  0  0  0  0  0  0  0  0  0
   38.8365   13.9288  -15.9104 H   0  0  0  0  0  0  0  0  0  0  0  0
   37.0982   11.9888  -15.5525 C   0  0  0  0  0  0  0  0  0  0  0  0
   37.5566   11.3749  -16.6382 N   0  0  0  0  0  0  0  0  0  0  0  0
   36.5350   10.8800  -17.3648 C   0  0  0  0  0  0  0  0  0  0  0  0
   35.3885   11.2044  -16.6945 C   0  0  0  0  0  0  0  0  0  0  0  0
   35.7700   11.8877  -15.5810 N   0  0  0  0  0  0  0  0  0  0  0  0
   35.1294   12.2755  -14.8583 H   0  0  0  0  0  0  0  0  0  0  0  0
   34.0485   10.8909  -17.0816 C   0  0  0  0  0  0  0  0  0  0  0  0
   32.9764   10.6448  -17.3940 N   0  0  0  0  0  0  0  0  0  0  0  0
 13 14  1  0  0  0
 14  7  1  0  0  0
  7  8  1  0  0  0
  8  9  1  0  0  0
  9 10  1  0  0  0
 10 11  1  0  0  0
 11 12  1  0  0  0
 10  1  1  0  0  0
  1  2  2  0  0  0
  2  3  1  0  0  0
  3  4  2  0  0  0
  4 21  1  0  0  0
 21 22  1  0  0  0
 22 23  2  0  0  0
 22 25  1  0  0  0
 25 26  2  0  0  0
 26 27  1  0  0  0
 27 28  2  0  0  0
 28 29  1  0  0  0
 28 31  1  0  0  0
 31 32  3  0  0  0
  4  5  1  0  0  0
  5  6  2  0  0  0
  5 15  1  0  0  0
 15 16  2  0  0  0
 16 17  1  0  0  0
 17 18  1  0  0  0
 18 19  1  0  0  0
 19 20  1  0  0  0
 12  7  1  0  0  0
  6  1  1  0  0  0
 20 15  1  0  0  0
 29 25  1  0  0  0
 21 24  1  0  0  0
 29 30  1  0  0  0
M  END
> <minimizedAffinity>
-7.60837

> <CNNscore>
0.2416030467

> <CNNaffinity>
6.6394209862

> <CNN_VS>
1.6041042805

> <CNNaffinity_variance>
0.1310961097

$$$$
[H]C1=C(c2c([H])c(C3([H])C([H])([H])C([H])([H])N(C([H])([H])C([H])([H])[H])C([H])([H])C3([H])[H])c([H])c([H])c2N([H])C(=O)c2nc([H])c(C#N)n2[H])C([H])([H])C([H])([H])C([H])([H])C1([H])[H]


 32 35  0  0  0  0  0  0  0  0999 V2000
   41.7543   14.6302  -13.4135 C   0  0  0  0  0  0  0  0  0  0  0  0
   40.6610   15.2117  -12.8344 C   0  0  0  0  0  0  0  0  0  0  0  0
   39.3780   14.9240  -13.2821 C   0  0  0  0  0  0  0  0  0  0  0  0
   39.1479   14.0325  -14.3399 C   0  0  0  0  0  0  0  0  0  0  0  0
   40.2563   13.4313  -14.9471 C   0  0  0  0  0  0  0  0  0  0  0  0
   41.5278   13.7625  -14.4456 C   0  0  0  0  0  0  0  0  0  0  0  0
   45.0714   12.8774  -12.5918 N   0  0  0  0  0  0  0  0  0  0  0  0
   44.0177   12.9828  -11.6197 C   0  0  0  0  0  0  0  0  0  0  0  0
   43.3935   14.3360  -11.5752 C   0  0  0  0  0  0  0  0  0  0  0  0
   43.1303   14.9536  -12.9240 C   0  0  0  0  0  0  0  0  0  0  0  0
   44.1979   14.6476  -13.9410 C   0  0  0  0  0  0  0  0  0  0  0  0
   45.4123   14.1532  -13.1998 C   0  0  0  0  0  0  0  0  0  0  0  0
   45.8839   11.2439  -10.9809 C   0  0  0  0  0  0  0  0  0  0  0  0
   46.2764   12.3901  -11.9068 C   0  0  0  0  0  0  0  0  0  0  0  0
   40.2000   12.6144  -16.1461 C   0  0  0  0  0  0  0  0  0  0  0  0
   40.6040   13.0909  -17.3367 C   0  0  0  0  0  0  0  0  0  0  0  0
   40.5741   12.3218  -18.5918 C   0  0  0  0  0  0  0  0  0  0  0  0
   39.7708   11.0752  -18.5756 C   0  0  0  0  0  0  0  0  0  0  0  0
   38.7424   11.1593  -17.4717 C   0  0  0  0  0  0  0  0  0  0  0  0
   39.5898   11.2403  -16.1714 C   0  0  0  0  0  0  0  0  0  0  0  0
   37.8452   13.6421  -14.6795 N   0  0  0  0  0  0  0  0  0  0  0  0
   37.1130   12.5703  -14.1609 C   0  0  0  0  0  0  0  0  0  0  0  0
   37.5416   11.7933  -13.2821 O   0  0  0  0  0  0  0  0  0  0  0  0
   37.3618   14.1808  -15.4581 H   0  0  0  0  0  0  0  0  0  0  0  0
   35.7421   12.2801  -14.6349 C   0  0  0  0  0  0  0  0  0  0  0  0
   34.6291   12.7130  -14.0521 N   0  0  0  0  0  0  0  0  0  0  0  0
   33.5460   12.2765  -14.7249 C   0  0  0  0  0  0  0  0  0  0  0  0
   34.0133   11.5370  -15.7756 C   0  0  0  0  0  0  0  0  0  0  0  0
   35.3715   11.5588  -15.6919 N   0  0  0  0  0  0  0  0  0  0  0  0
   36.0271   11.0868  -16.3482 H   0  0  0  0  0  0  0  0  0  0  0  0
   33.2337   10.8690  -16.7705 C   0  0  0  0  0  0  0  0  0  0  0  0
   32.6103   10.3392  -17.5694 N   0  0  0  0  0  0  0  0  0  0  0  0
 13 14  1  0  0  0
 14  7  1  0  0  0
  7  8  1  0  0  0
  8  9  1  0  0  0
  9 10  1  0  0  0
 10 11  1  0  0  0
 11 12  1  0  0  0
 10  1  1  0  0  0
  1  2  2  0  0  0
  2  3  1  0  0  0
  3  4  2  0  0  0
  4 21  1  0  0  0
 21 22  1  0  0  0
 22 23  2  0  0  0
 22 25  1  0  0  0
 25 26  2  0  0  0
 26 27  1  0  0  0
 27 28  2  0  0  0
 28 29  1  0  0  0
 28 31  1  0  0  0
 31 32  3  0  0  0
  4  5  1  0  0  0
  5  6  2  0  0  0
  5 15  1  0  0  0
 15 16  2  0  0  0
 16 17  1  0  0  0
 17 18  1  0  0  0
 18 19  1  0  0  0
 19 20  1  0  0  0
 12  7  1  0  0  0
  6  1  1  0  0  0
 20 15  1  0  0  0
 29 25  1  0  0  0
 21 24  1  0  0  0
 29 30  1  0  0  0
M  END
> <minimizedAffinity>
-8.26826

> <CNNscore>
0.2290665507

> <CNNaffinity>
6.9324593544

> <CNN_VS>
1.5879945755

> <CNNaffinity_variance>
0.0514548719

$$$$
[H]C1=C(c2c([H])c(C3([H])C([H])([H])C([H])([H])N(C([H])([H])C([H])([H])[H])C([H])([H])C3([H])[H])c([H])c([H])c2N([H])C(=O)c2nc([H])c(C#N)n2[H])C([H])([H])C([H])([H])C([H])([H])C1([H])[H]


 32 35  0  0  0  0  0  0  0  0999 V2000
   35.4263   15.9330  -10.1635 C   0  0  0  0  0  0  0  0  0  0  0  0
   34.5846   15.3687  -11.0810 C   0  0  0  0  0  0  0  0  0  0  0  0
   35.0728   14.8483  -12.2727 C   0  0  0  0  0  0  0  0  0  0  0  0
   36.4393   14.8787  -12.5865 C   0  0  0  0  0  0  0  0  0  0  0  0
   37.3148   15.4567  -11.6602 C   0  0  0  0  0  0  0  0  0  0  0  0
   36.7579   15.9631  -10.4721 C   0  0  0  0  0  0  0  0  0  0  0  0
   36.0361   15.7436   -6.3763 N   0  0  0  0  0  0  0  0  0  0  0  0
   35.1963   14.7909   -7.0495 C   0  0  0  0  0  0  0  0  0  0  0  0
   34.2670   15.4185   -8.0318 C   0  0  0  0  0  0  0  0  0  0  0  0
   34.8856   16.4940   -8.8866 C   0  0  0  0  0  0  0  0  0  0  0  0
   35.8899   17.3403   -8.1500 C   0  0  0  0  0  0  0  0  0  0  0  0
   35.6825   17.1219   -6.6742 C   0  0  0  0  0  0  0  0  0  0  0  0
   36.6935   16.6113   -4.1996 C   0  0  0  0  0  0  0  0  0  0  0  0
   35.8667   15.5578   -4.9287 C   0  0  0  0  0  0  0  0  0  0  0  0
   38.7247   15.7071  -11.9002 C   0  0  0  0  0  0  0  0  0  0  0  0
   39.3934   15.0644  -12.8738 C   0  0  0  0  0  0  0  0  0  0  0  0
   40.8208   15.2663  -13.1726 C   0  0  0  0  0  0  0  0  0  0  0  0
   41.6091   15.9854  -12.1425 C   0  0  0  0  0  0  0  0  0  0  0  0
   40.9110   15.8663  -10.8076 C   0  0  0  0  0  0  0  0  0  0  0  0
   39.5577   16.5995  -11.0224 C   0  0  0  0  0  0  0  0  0  0  0  0
   36.9302   14.2190  -13.7217 N   0  0  0  0  0  0  0  0  0  0  0  0
   37.0171   12.8406  -13.9366 C   0  0  0  0  0  0  0  0  0  0  0  0
   36.6434   11.9812  -13.1112 O   0  0  0  0  0  0  0  0  0  0  0  0
   37.3362   14.8208  -14.4983 H   0  0  0  0  0  0  0  0  0  0  0  0
   37.5745   12.2964  -15.1941 C   0  0  0  0  0  0  0  0  0  0  0  0
   36.9104   11.5251  -16.0485 N   0  0  0  0  0  0  0  0  0  0  0  0
   37.6959   11.1961  -17.0931 C   0  0  0  0  0  0  0  0  0  0  0  0
   38.9056   11.7939  -16.8729 C   0  0  0  0  0  0  0  0  0  0  0  0
   38.7981   12.4649  -15.6937 N   0  0  0  0  0  0  0  0  0  0  0  0
   39.5510   13.0253  -15.2442 H   0  0  0  0  0  0  0  0  0  0  0  0
   40.0611   11.7304  -17.7123 C   0  0  0  0  0  0  0  0  0  0  0  0
   40.9830   11.6832  -18.3871 N   0  0  0  0  0  0  0  0  0  0  0  0
 13 14  1  0  0  0
 14  7  1  0  0  0
  7  8  1  0  0  0
  8  9  1  0  0  0
  9 10  1  0  0  0
 10 11  1  0  0  0
 11 12  1  0  0  0
 10  1  1  0  0  0
  1  2  2  0  0  0
  2  3  1  0  0  0
  3  4  2  0  0  0
  4 21  1  0  0  0
 21 22  1  0  0  0
 22 23  2  0  0  0
 22 25  1  0  0  0
 25 26  2  0  0  0
 26 27  1  0  0  0
 27 28  2  0  0  0
 28 29  1  0  0  0
 28 31  1  0  0  0
 31 32  3  0  0  0
  4  5  1  0  0  0
  5  6  2  0  0  0
  5 15  1  0  0  0
 15 16  2  0  0  0
 16 17  1  0  0  0
 17 18  1  0  0  0
 18 19  1  0  0  0
 19 20  1  0  0  0
 12  7  1  0  0  0
  6  1  1  0  0  0
 20 15  1  0  0  0
 29 25  1  0  0  0
 21 24  1  0  0  0
 29 30  1  0  0  0
M  END
> <minimizedAffinity>
-7.36674

> <CNNscore>
0.1808941662

> <CNNaffinity>
6.3229851723

> <CNN_VS>
1.1437910795

> <CNNaffinity_variance>
0.0756153464

$$$$
[H]C1=C(c2c([H])c(C3([H])C([H])([H])C([H])([H])N(C([H])([H])C([H])([H])[H])C([H])([H])C3([H])[H])c([H])c([H])c2N([H])C(=O)c2nc([H])c(C#N)n2[H])C([H])([H])C([H])([H])C([H])([H])C1([H])[H]


 32 35  0  0  0  0  0  0  0  0999 V2000
   35.6203   16.1277   -9.9035 C   0  0  0  0  0  0  0  0  0  0  0  0
   34.4683   15.8413  -10.5814 C   0  0  0  0  0  0  0  0  0  0  0  0
   34.5059   15.2137  -11.8200 C   0  0  0  0  0  0  0  0  0  0  0  0
   35.7167   14.8492  -12.4263 C   0  0  0  0  0  0  0  0  0  0  0  0
   36.9061   15.1387  -11.7479 C   0  0  0  0  0  0  0  0  0  0  0  0
   36.7997   15.7729  -10.4971 C   0  0  0  0  0  0  0  0  0  0  0  0
   35.7704   15.2846   -6.1594 N   0  0  0  0  0  0  0  0  0  0  0  0
   34.5342   15.2328   -6.8911 C   0  0  0  0  0  0  0  0  0  0  0  0
   34.3390   16.4006   -7.7971 C   0  0  0  0  0  0  0  0  0  0  0  0
   35.5645   16.8086   -8.5727 C   0  0  0  0  0  0  0  0  0  0  0  0
   36.8432   16.6653   -7.7904 C   0  0  0  0  0  0  0  0  0  0  0  0
   36.4807   16.5411   -6.3337 C   0  0  0  0  0  0  0  0  0  0  0  0
   35.4444   13.6807   -4.3582 C   0  0  0  0  0  0  0  0  0  0  0  0
   35.4591   15.1597   -4.7290 C   0  0  0  0  0  0  0  0  0  0  0  0
   38.2367   14.9714  -12.3042 C   0  0  0  0  0  0  0  0  0  0  0  0
   39.2384   15.8100  -11.9860 C   0  0  0  0  0  0  0  0  0  0  0  0
   40.6094   15.7024  -12.5117 C   0  0  0  0  0  0  0  0  0  0  0  0
   40.7929   14.8085  -13.6809 C   0  0  0  0  0  0  0  0  0  0  0  0
   39.4711   14.6430  -14.3941 C   0  0  0  0  0  0  0  0  0  0  0  0
   38.5628   13.9391  -13.3478 C   0  0  0  0  0  0  0  0  0  0  0  0
   35.7299   14.0869  -13.6025 N   0  0  0  0  0  0  0  0  0  0  0  0
   35.4695   12.7201  -13.7365 C   0  0  0  0  0  0  0  0  0  0  0  0
   35.1694   11.9707  -12.7836 O   0  0  0  0  0  0  0  0  0  0  0  0
   36.0209   14.5783  -14.4992 H   0  0  0  0  0  0  0  0  0  0  0  0
   35.5352   12.0548  -15.0561 C   0  0  0  0  0  0  0  0  0  0  0  0
   34.4881   11.5711  -15.7160 N   0  0  0  0  0  0  0  0  0  0  0  0
   34.8798   11.0272  -16.8852 C   0  0  0  0  0  0  0  0  0  0  0  0
   36.2365   11.1828  -16.9508 C   0  0  0  0  0  0  0  0  0  0  0  0
   36.6099   11.8201  -15.8076 N   0  0  0  0  0  0  0  0  0  0  0  0
   37.5830   12.0862  -15.5520 H   0  0  0  0  0  0  0  0  0  0  0  0
   37.0998   10.7609  -18.0093 C   0  0  0  0  0  0  0  0  0  0  0  0
   37.7901   10.4284  -18.8582 N   0  0  0  0  0  0  0  0  0  0  0  0
 13 14  1  0  0  0
 14  7  1  0  0  0
  7  8  1  0  0  0
  8  9  1  0  0  0
  9 10  1  0  0  0
 10 11  1  0  0  0
 11 12  1  0  0  0
 10  1  1  0  0  0
  1  2  2  0  0  0
  2  3  1  0  0  0
  3  4  2  0  0  0
  4 21  1  0  0  0
 21 22  1  0  0  0
 22 23  2  0  0  0
 22 25  1  0  0  0
 25 26  2  0  0  0
 26 27  1  0  0  0
 27 28  2  0  0  0
 28 29  1  0  0  0
 28 31  1  0  0  0
 31 32  3  0  0  0
  4  5  1  0  0  0
  5  6  2  0  0  0
  5 15  1  0  0  0
 15 16  2  0  0  0
 16 17  1  0  0  0
 17 18  1  0  0  0
 18 19  1  0  0  0
 19 20  1  0  0  0
 12  7  1  0  0  0
  6  1  1  0  0  0
 20 15  1  0  0  0
 29 25  1  0  0  0
 21 24  1  0  0  0
 29 30  1  0  0  0
M  END
> <minimizedAffinity>
-7.79476

> <CNNscore>
0.1751368344

> <CNNaffinity>
6.4313735962

> <CNN_VS>
1.1263704300

> <CNNaffinity_variance>
0.0751288310

$$$$
[H]C1=C(c2c([H])c(C3([H])C([H])([H])C([H])([H])N(C([H])([H])C([H])([H])[H])C([H])([H])C3([H])[H])c([H])c([H])c2N([H])C(=O)c2nc([H])c(C#N)n2[H])C([H])([H])C([H])([H])C([H])([H])C1([H])[H]


 32 35  0  0  0  0  0  0  0  0999 V2000
   37.1692   16.1735  -10.4563 C   0  0  0  0  0  0  0  0  0  0  0  0
   35.8530   16.0294  -10.7962 C   0  0  0  0  0  0  0  0  0  0  0  0
   35.4842   15.3616  -11.9570 C   0  0  0  0  0  0  0  0  0  0  0  0
   36.4370   14.8105  -12.8258 C   0  0  0  0  0  0  0  0  0  0  0  0
   37.7895   14.9524  -12.4952 C   0  0  0  0  0  0  0  0  0  0  0  0
   38.0966   15.6367  -11.3055 C   0  0  0  0  0  0  0  0  0  0  0  0
   38.4324   15.4472   -6.9027 N   0  0  0  0  0  0  0  0  0  0  0  0
   37.0300   15.4337   -7.2177 C   0  0  0  0  0  0  0  0  0  0  0  0
   36.6098   16.5795   -8.0741 C   0  0  0  0  0  0  0  0  0  0  0  0
   37.5516   16.8996   -9.2056 C   0  0  0  0  0  0  0  0  0  0  0  0
   39.0026   16.7178   -8.8463 C   0  0  0  0  0  0  0  0  0  0  0  0
   39.1016   16.6599   -7.3445 C   0  0  0  0  0  0  0  0  0  0  0  0
   37.3109   15.9580   -4.8040 C   0  0  0  0  0  0  0  0  0  0  0  0
   38.5720   15.3850   -5.4414 C   0  0  0  0  0  0  0  0  0  0  0  0
   38.8951   14.5810  -13.3600 C   0  0  0  0  0  0  0  0  0  0  0  0
   38.8709   13.4439  -14.0771 C   0  0  0  0  0  0  0  0  0  0  0  0
   39.9542   13.0036  -14.9715 C   0  0  0  0  0  0  0  0  0  0  0  0
   41.2517   13.7063  -14.8219 C   0  0  0  0  0  0  0  0  0  0  0  0
   41.3292   14.3218  -13.4441 C   0  0  0  0  0  0  0  0  0  0  0  0
   40.1768   15.3643  -13.4307 C   0  0  0  0  0  0  0  0  0  0  0  0
   36.0441   14.0149  -13.9110 N   0  0  0  0  0  0  0  0  0  0  0  0
   35.5251   12.7176  -13.8741 C   0  0  0  0  0  0  0  0  0  0  0  0
   35.3276   12.0751  -12.8216 O   0  0  0  0  0  0  0  0  0  0  0  0
   36.2009   14.4080  -14.8862 H   0  0  0  0  0  0  0  0  0  0  0  0
   35.1662   12.0019  -15.1180 C   0  0  0  0  0  0  0  0  0  0  0  0
   36.0273   11.6467  -16.0657 N   0  0  0  0  0  0  0  0  0  0  0  0
   35.3877   11.0123  -17.0681 C   0  0  0  0  0  0  0  0  0  0  0  0
   34.0655   10.9737  -16.7223 C   0  0  0  0  0  0  0  0  0  0  0  0
   33.9620   11.5922  -15.5144 N   0  0  0  0  0  0  0  0  0  0  0  0
   33.0815   11.7288  -14.9766 H   0  0  0  0  0  0  0  0  0  0  0  0
   32.9962   10.3985  -17.4770 C   0  0  0  0  0  0  0  0  0  0  0  0
   32.1404    9.9345  -18.0768 N   0  0  0  0  0  0  0  0  0  0  0  0
 13 14  1  0  0  0
 14  7  1  0  0  0
  7  8  1  0  0  0
  8  9  1  0  0  0
  9 10  1  0  0  0
 10 11  1  0  0  0
 11 12  1  0  0  0
 10  1  1  0  0  0
  1  2  2  0  0  0
  2  3  1  0  0  0
  3  4  2  0  0  0
  4 21  1  0  0  0
 21 22  1  0  0  0
 22 23  2  0  0  0
 22 25  1  0  0  0
 25 26  2  0  0  0
 26 27  1  0  0  0
 27 28  2  0  0  0
 28 29  1  0  0  0
 28 31  1  0  0  0
 31 32  3  0  0  0
  4  5  1  0  0  0
  5  6  2  0  0  0
  5 15  1  0  0  0
 15 16  2  0  0  0
 16 17  1  0  0  0
 17 18  1  0  0  0
 18 19  1  0  0  0
 19 20  1  0  0  0
 12  7  1  0  0  0
  6  1  1  0  0  0
 20 15  1  0  0  0
 29 25  1  0  0  0
 21 24  1  0  0  0
 29 30  1  0  0  0
M  END
> <minimizedAffinity>
-7.58103

> <CNNscore>
0.1686865240

> <CNNaffinity>
6.5250716209

> <CNN_VS>
1.1006916761

> <CNNaffinity_variance>
0.0753096342

$$$$
