[H]OC([H])([H])[C@@]1(O[H])C([H])([H])[C@@]2([H])O[C@]1(C([H])([H])[H])n1c3c([H])c([H])c([H])c([H])c3c3c4c(c5c6c([H])c([H])c([H])c([H])c6n2c5c31)C(=O)N([H])C4([H])[H]


 36 43  0  0  0  0  0  0  0  0999 V2000
   35.5672   12.6524  -12.3372 C   0  0  0  0  0  0  0  0  0  0  0  0
   36.5228   13.1987  -13.3420 C   0  0  0  0  0  0  0  0  0  0  0  0
   37.7590   12.9025  -12.7039 O   0  0  0  0  0  0  0  0  0  0  0  0
   38.6875   13.8221  -13.0535 C   0  0  0  0  0  0  0  0  0  0  0  0
   37.9911   15.0999  -13.2528 C   0  0  0  0  0  0  0  0  0  0  0  0
   36.5430   14.6966  -13.4214 C   0  0  0  0  0  0  0  0  0  0  0  0
   36.1367   15.1823  -14.6552 O   0  0  0  0  0  0  0  0  0  0  0  0
   39.4591   13.3645  -14.2165 N   0  0  0  0  0  0  0  0  0  0  0  0
   40.7487   13.5035  -14.4713 C   0  0  0  0  0  0  0  0  0  0  0  0
   41.7091   14.1196  -13.7115 C   0  0  0  0  0  0  0  0  0  0  0  0
   43.0139   14.1417  -14.1885 C   0  0  0  0  0  0  0  0  0  0  0  0
   43.3320   13.5613  -15.3895 C   0  0  0  0  0  0  0  0  0  0  0  0
   42.3532   12.9313  -16.1676 C   0  0  0  0  0  0  0  0  0  0  0  0
   41.0751   12.9155  -15.6896 C   0  0  0  0  0  0  0  0  0  0  0  0
   39.8970   12.3990  -16.1794 C   0  0  0  0  0  0  0  0  0  0  0  0
   39.5575   11.7186  -17.3346 C   0  0  0  0  0  0  0  0  0  0  0  0
   40.2900   11.2483  -18.4965 C   0  0  0  0  0  0  0  0  0  0  0  0
   41.4846   11.3368  -18.7847 O   0  0  0  0  0  0  0  0  0  0  0  0
   39.3518   10.5983  -19.3598 N   0  0  0  0  0  0  0  0  0  0  0  0
   38.0253   10.6399  -18.7940 C   0  0  0  0  0  0  0  0  0  0  0  0
   38.2352   11.3563  -17.5121 C   0  0  0  0  0  0  0  0  0  0  0  0
   37.2524   11.6525  -16.5740 C   0  0  0  0  0  0  0  0  0  0  0  0
   35.9114   11.4485  -16.4858 C   0  0  0  0  0  0  0  0  0  0  0  0
   35.0458   10.8366  -17.3628 C   0  0  0  0  0  0  0  0  0  0  0  0
   33.6868   10.7733  -17.0412 C   0  0  0  0  0  0  0  0  0  0  0  0
   33.2597   11.3304  -15.8492 C   0  0  0  0  0  0  0  0  0  0  0  0
   34.1506   11.9408  -14.9834 C   0  0  0  0  0  0  0  0  0  0  0  0
   35.4906   12.0130  -15.2790 C   0  0  0  0  0  0  0  0  0  0  0  0
   36.5521   12.5558  -14.6246 N   0  0  0  0  0  0  0  0  0  0  0  0
   37.6232   12.3183  -15.4546 C   0  0  0  0  0  0  0  0  0  0  0  0
   38.9307   12.6971  -15.2429 C   0  0  0  0  0  0  0  0  0  0  0  0
   35.7714   16.0903  -14.5244 H   0  0  0  0  0  0  0  0  0  0  0  0
   39.5591   10.1403  -20.2883 H   0  0  0  0  0  0  0  0  0  0  0  0
   35.7448   15.3705  -12.3573 C   0  0  0  0  0  0  0  0  0  0  0  0
   36.2284   16.6701  -12.2022 O   0  0  0  0  0  0  0  0  0  0  0  0
   36.7090   16.7988  -11.3453 H   0  0  0  0  0  0  0  0  0  0  0  0
  2  1  1  0  0  0
  2  3  1  0  0  0
  3  4  1  0  0  0
  4  5  1  0  0  0
  5  6  1  0  0  0
  6  7  1  0  0  0
  6 34  1  0  0  0
 34 35  1  0  0  0
  4  8  1  0  0  0
  8  9  1  0  0  0
  9 10  2  0  0  0
 10 11  1  0  0  0
 11 12  2  0  0  0
 12 13  1  0  0  0
 13 14  2  0  0  0
 14 15  1  0  0  0
 15 16  2  0  0  0
 16 17  1  0  0  0
 17 18  2  0  0  0
 17 19  1  0  0  0
 19 20  1  0  0  0
 20 21  1  0  0  0
 21 22  2  0  0  0
 22 23  1  0  0  0
 23 24  2  0  0  0
 24 25  1  0  0  0
 25 26  2  0  0  0
 26 27  1  0  0  0
 27 28  2  0  0  0
 28 29  1  0  0  0
 29 30  1  0  0  0
 30 31  2  0  0  0
  6  2  1  0  0  0
 31  8  1  0  0  0
 29  2  1  0  0  0
 14  9  1  0  0  0
 31 15  1  0  0  0
 21 16  1  0  0  0
 30 22  1  0  0  0
 28 23  1  0  0  0
  7 32  1  0  0  0
 35 36  1  0  0  0
 19 33  1  0  0  0
M  END
> <minimizedAffinity>
-13.52958

> <CNNscore>
0.9700492024

> <CNNaffinity>
7.5617651939

> <CNN_VS>
7.3352842331

> <CNNaffinity_variance>
0.0875248611

$$$$
[H]OC([H])([H])[C@@]1(O[H])C([H])([H])[C@@]2([H])O[C@]1(C([H])([H])[H])n1c3c([H])c([H])c([H])c([H])c3c3c4c(c5c6c([H])c([H])c([H])c([H])c6n2c5c31)C(=O)N([H])C4([H])[H]


 36 43  0  0  0  0  0  0  0  0999 V2000
   36.9422   16.8519  -11.5709 C   0  0  0  0  0  0  0  0  0  0  0  0
   36.9761   15.4391  -12.0442 C   0  0  0  0  0  0  0  0  0  0  0  0
   35.9112   15.4615  -12.9868 O   0  0  0  0  0  0  0  0  0  0  0  0
   35.3358   14.2392  -13.0578 C   0  0  0  0  0  0  0  0  0  0  0  0
   35.4259   13.6299  -11.7243 C   0  0  0  0  0  0  0  0  0  0  0  0
   36.5000   14.4393  -11.0321 C   0  0  0  0  0  0  0  0  0  0  0  0
   37.4856   13.5433  -10.6461 O   0  0  0  0  0  0  0  0  0  0  0  0
   35.9429   13.4413  -14.1311 N   0  0  0  0  0  0  0  0  0  0  0  0
   35.3686   12.6037  -14.9773 C   0  0  0  0  0  0  0  0  0  0  0  0
   34.0459   12.2561  -15.0715 C   0  0  0  0  0  0  0  0  0  0  0  0
   33.6715   11.3450  -16.0514 C   0  0  0  0  0  0  0  0  0  0  0  0
   34.6027   10.8076  -16.9027 C   0  0  0  0  0  0  0  0  0  0  0  0
   35.9543   11.1609  -16.8088 C   0  0  0  0  0  0  0  0  0  0  0  0
   36.3109   12.0564  -15.8428 C   0  0  0  0  0  0  0  0  0  0  0  0
   37.5164   12.6111  -15.4773 C   0  0  0  0  0  0  0  0  0  0  0  0
   38.8140   12.4662  -15.9332 C   0  0  0  0  0  0  0  0  0  0  0  0
   39.4466   11.6948  -16.9880 C   0  0  0  0  0  0  0  0  0  0  0  0
   38.9678   10.9113  -17.8096 O   0  0  0  0  0  0  0  0  0  0  0  0
   40.8467   11.9883  -16.9524 N   0  0  0  0  0  0  0  0  0  0  0  0
   41.1440   12.9253  -15.8963 C   0  0  0  0  0  0  0  0  0  0  0  0
   39.8105   13.1867  -15.3014 C   0  0  0  0  0  0  0  0  0  0  0  0
   39.5468   14.0409  -14.2364 C   0  0  0  0  0  0  0  0  0  0  0  0
   40.2980   14.8380  -13.4313 C   0  0  0  0  0  0  0  0  0  0  0  0
   41.6548   15.0658  -13.4221 C   0  0  0  0  0  0  0  0  0  0  0  0
   42.1909   15.9296  -12.4626 C   0  0  0  0  0  0  0  0  0  0  0  0
   41.3353   16.5258  -11.5536 C   0  0  0  0  0  0  0  0  0  0  0  0
   39.9735   16.2803  -11.5835 C   0  0  0  0  0  0  0  0  0  0  0  0
   39.4252   15.4359  -12.5187 C   0  0  0  0  0  0  0  0  0  0  0  0
   38.1513   15.0217  -12.7540 N   0  0  0  0  0  0  0  0  0  0  0  0
   38.2638   14.1583  -13.8190 C   0  0  0  0  0  0  0  0  0  0  0  0
   37.2441   13.4557  -14.4227 C   0  0  0  0  0  0  0  0  0  0  0  0
   37.2723   13.2226   -9.7369 H   0  0  0  0  0  0  0  0  0  0  0  0
   41.5913   11.5964  -17.5902 H   0  0  0  0  0  0  0  0  0  0  0  0
   35.9064   15.0514   -9.8087 C   0  0  0  0  0  0  0  0  0  0  0  0
   35.7403   14.0489   -8.8526 O   0  0  0  0  0  0  0  0  0  0  0  0
   34.7880   13.8224   -8.6986 H   0  0  0  0  0  0  0  0  0  0  0  0
  2  1  1  0  0  0
  2  3  1  0  0  0
  3  4  1  0  0  0
  4  5  1  0  0  0
  5  6  1  0  0  0
  6  7  1  0  0  0
  6 34  1  0  0  0
 34 35  1  0  0  0
  4  8  1  0  0  0
  8  9  1  0  0  0
  9 10  2  0  0  0
 10 11  1  0  0  0
 11 12  2  0  0  0
 12 13  1  0  0  0
 13 14  2  0  0  0
 14 15  1  0  0  0
 15 16  2  0  0  0
 16 17  1  0  0  0
 17 18  2  0  0  0
 17 19  1  0  0  0
 19 20  1  0  0  0
 20 21  1  0  0  0
 21 22  2  0  0  0
 22 23  1  0  0  0
 23 24  2  0  0  0
 24 25  1  0  0  0
 25 26  2  0  0  0
 26 27  1  0  0  0
 27 28  2  0  0  0
 28 29  1  0  0  0
 29 30  1  0  0  0
 30 31  2  0  0  0
  6  2  1  0  0  0
 31  8  1  0  0  0
 29  2  1  0  0  0
 14  9  1  0  0  0
 31 15  1  0  0  0
 21 16  1  0  0  0
 30 22  1  0  0  0
 28 23  1  0  0  0
  7 32  1  0  0  0
 35 36  1  0  0  0
 19 33  1  0  0  0
M  END
> <minimizedAffinity>
-11.27583

> <CNNscore>
0.5484931469

> <CNNaffinity>
6.7071733475

> <CNN_VS>
3.6788387299

> <CNNaffinity_variance>
0.0609079190

$$$$
[H]OC([H])([H])[C@@]1(O[H])C([H])([H])[C@@]2([H])O[C@]1(C([H])([H])[H])n1c3c([H])c([H])c([H])c([H])c3c3c4c(c5c6c([H])c([H])c([H])c([H])c6n2c5c31)C(=O)N([H])C4([H])[H]


 36 43  0  0  0  0  0  0  0  0999 V2000
   35.2944   12.0957  -13.1172 C   0  0  0  0  0  0  0  0  0  0  0  0
   36.3208   13.0974  -13.5225 C   0  0  0  0  0  0  0  0  0  0  0  0
   37.0648   13.2015  -12.3148 O   0  0  0  0  0  0  0  0  0  0  0  0
   37.5926   14.4424  -12.2067 C   0  0  0  0  0  0  0  0  0  0  0  0
   36.6552   15.3784  -12.8414 C   0  0  0  0  0  0  0  0  0  0  0  0
   35.7867   14.4878  -13.7020 C   0  0  0  0  0  0  0  0  0  0  0  0
   35.9064   14.9537  -15.0027 O   0  0  0  0  0  0  0  0  0  0  0  0
   38.9526   14.4781  -12.7600 N   0  0  0  0  0  0  0  0  0  0  0  0
   40.0173   15.1267  -12.3205 C   0  0  0  0  0  0  0  0  0  0  0  0
   40.1288   15.9452  -11.2265 C   0  0  0  0  0  0  0  0  0  0  0  0
   41.3633   16.5239  -10.9587 C   0  0  0  0  0  0  0  0  0  0  0  0
   42.4425   16.2817  -11.7694 C   0  0  0  0  0  0  0  0  0  0  0  0
   42.3316   15.4462  -12.8874 C   0  0  0  0  0  0  0  0  0  0  0  0
   41.1146   14.8831  -13.1409 C   0  0  0  0  0  0  0  0  0  0  0  0
   40.6602   14.0359  -14.1260 C   0  0  0  0  0  0  0  0  0  0  0  0
   41.2506   13.4481  -15.2299 C   0  0  0  0  0  0  0  0  0  0  0  0
   42.5851   13.4571  -15.8016 C   0  0  0  0  0  0  0  0  0  0  0  0
   43.6134   14.0286  -15.4355 O   0  0  0  0  0  0  0  0  0  0  0  0
   42.5562   12.6307  -16.9695 N   0  0  0  0  0  0  0  0  0  0  0  0
   41.2351   12.0895  -17.1780 C   0  0  0  0  0  0  0  0  0  0  0  0
   40.4671   12.6436  -16.0363 C   0  0  0  0  0  0  0  0  0  0  0  0
   39.1218   12.4125  -15.7706 C   0  0  0  0  0  0  0  0  0  0  0  0
   38.1275   11.7084  -16.3733 C   0  0  0  0  0  0  0  0  0  0  0  0
   38.1463   10.9460  -17.5184 C   0  0  0  0  0  0  0  0  0  0  0  0
   36.9648   10.3311  -17.9432 C   0  0  0  0  0  0  0  0  0  0  0  0
   35.8156   10.5123  -17.1948 C   0  0  0  0  0  0  0  0  0  0  0  0
   35.8225   11.2843  -16.0461 C   0  0  0  0  0  0  0  0  0  0  0  0
   36.9727   11.8966  -15.6096 C   0  0  0  0  0  0  0  0  0  0  0  0
   37.2439   12.7008  -14.5470 N   0  0  0  0  0  0  0  0  0  0  0  0
   38.5793   13.0037  -14.6797 C   0  0  0  0  0  0  0  0  0  0  0  0
   39.3278   13.8128  -13.8533 C   0  0  0  0  0  0  0  0  0  0  0  0
   35.2023   15.6290  -15.1547 H   0  0  0  0  0  0  0  0  0  0  0  0
   43.3646   12.4204  -17.6154 H   0  0  0  0  0  0  0  0  0  0  0  0
   34.3710   14.6542  -13.2643 C   0  0  0  0  0  0  0  0  0  0  0  0
   33.5627   14.7011  -14.4006 O   0  0  0  0  0  0  0  0  0  0  0  0
   33.1840   15.6024  -14.5627 H   0  0  0  0  0  0  0  0  0  0  0  0
  2  1  1  0  0  0
  2  3  1  0  0  0
  3  4  1  0  0  0
  4  5  1  0  0  0
  5  6  1  0  0  0
  6  7  1  0  0  0
  6 34  1  0  0  0
 34 35  1  0  0  0
  4  8  1  0  0  0
  8  9  1  0  0  0
  9 10  2  0  0  0
 10 11  1  0  0  0
 11 12  2  0  0  0
 12 13  1  0  0  0
 13 14  2  0  0  0
 14 15  1  0  0  0
 15 16  2  0  0  0
 16 17  1  0  0  0
 17 18  2  0  0  0
 17 19  1  0  0  0
 19 20  1  0  0  0
 20 21  1  0  0  0
 21 22  2  0  0  0
 22 23  1  0  0  0
 23 24  2  0  0  0
 24 25  1  0  0  0
 25 26  2  0  0  0
 26 27  1  0  0  0
 27 28  2  0  0  0
 28 29  1  0  0  0
 29 30  1  0  0  0
 30 31  2  0  0  0
  6  2  1  0  0  0
 31  8  1  0  0  0
 29  2  1  0  0  0
 14  9  1  0  0  0
 31 15  1  0  0  0
 21 16  1  0  0  0
 30 22  1  0  0  0
 28 23  1  0  0  0
  7 32  1  0  0  0
 35 36  1  0  0  0
 19 33  1  0  0  0
M  END
> <minimizedAffinity>
-12.18900

> <CNNscore>
0.4270305932

> <CNNaffinity>
6.7820701599

> <CNN_VS>
2.8961515427

> <CNNaffinity_variance>
0.0852743238

$$$$
[H]OC([H])([H])[C@@]1(O[H])C([H])([H])[C@@]2([H])O[C@]1(C([H])([H])[H])n1c3c([H])c([H])c([H])c([H])c3c3c4c(c5c6c([H])c([H])c([H])c([H])c6n2c5c31)C(=O)N([H])C4([H])[H]


 36 43  0  0  0  0  0  0  0  0999 V2000
   39.2991   14.4663  -11.0883 C   0  0  0  0  0  0  0  0  0  0  0  0
   38.8683   14.4014  -12.5136 C   0  0  0  0  0  0  0  0  0  0  0  0
   39.5132   13.2004  -12.9193 O   0  0  0  0  0  0  0  0  0  0  0  0
   39.8177   13.2655  -14.2358 C   0  0  0  0  0  0  0  0  0  0  0  0
   40.1133   14.6690  -14.5524 C   0  0  0  0  0  0  0  0  0  0  0  0
   39.5057   15.4329  -13.3969 C   0  0  0  0  0  0  0  0  0  0  0  0
   38.5920   16.3208  -13.9447 O   0  0  0  0  0  0  0  0  0  0  0  0
   38.7451   12.6742  -15.0465 N   0  0  0  0  0  0  0  0  0  0  0  0
   38.8335   11.9324  -16.1370 C   0  0  0  0  0  0  0  0  0  0  0  0
   39.9591   11.5216  -16.8030 C   0  0  0  0  0  0  0  0  0  0  0  0
   39.8038   10.7382  -17.9400 C   0  0  0  0  0  0  0  0  0  0  0  0
   38.5553   10.3853  -18.3840 C   0  0  0  0  0  0  0  0  0  0  0  0
   37.4039   10.8034  -17.7058 C   0  0  0  0  0  0  0  0  0  0  0  0
   37.5680   11.5724  -16.5904 C   0  0  0  0  0  0  0  0  0  0  0  0
   36.6811   12.1427  -15.7057 C   0  0  0  0  0  0  0  0  0  0  0  0
   35.3013   12.1667  -15.6157 C   0  0  0  0  0  0  0  0  0  0  0  0
   34.2162   11.5935  -16.3915 C   0  0  0  0  0  0  0  0  0  0  0  0
   34.2343   10.8903  -17.4030 O   0  0  0  0  0  0  0  0  0  0  0  0
   32.9896   11.9886  -15.7692 N   0  0  0  0  0  0  0  0  0  0  0  0
   33.2473   12.8111  -14.6122 C   0  0  0  0  0  0  0  0  0  0  0  0
   34.7289   12.8735  -14.5745 C   0  0  0  0  0  0  0  0  0  0  0  0
   35.4920   13.5502  -13.6293 C   0  0  0  0  0  0  0  0  0  0  0  0
   35.2196   14.3198  -12.5425 C   0  0  0  0  0  0  0  0  0  0  0  0
   34.0127   14.6938  -11.9980 C   0  0  0  0  0  0  0  0  0  0  0  0
   34.0043   15.5209  -10.8710 C   0  0  0  0  0  0  0  0  0  0  0  0
   35.2136   15.9353  -10.3423 C   0  0  0  0  0  0  0  0  0  0  0  0
   36.4148   15.5453  -10.9085 C   0  0  0  0  0  0  0  0  0  0  0  0
   36.4464   14.7317  -12.0155 C   0  0  0  0  0  0  0  0  0  0  0  0
   37.4657   14.2238  -12.7589 N   0  0  0  0  0  0  0  0  0  0  0  0
   36.8401   13.5024  -13.7492 C   0  0  0  0  0  0  0  0  0  0  0  0
   37.4468   12.8095  -14.7737 C   0  0  0  0  0  0  0  0  0  0  0  0
   39.0616   17.1680  -14.1361 H   0  0  0  0  0  0  0  0  0  0  0  0
   32.0128   11.7361  -16.0804 H   0  0  0  0  0  0  0  0  0  0  0  0
   40.5894   16.2129  -12.7329 C   0  0  0  0  0  0  0  0  0  0  0  0
   40.0028   17.0917  -11.8216 O   0  0  0  0  0  0  0  0  0  0  0  0
   40.0655   18.0378  -12.1092 H   0  0  0  0  0  0  0  0  0  0  0  0
  2  1  1  0  0  0
  2  3  1  0  0  0
  3  4  1  0  0  0
  4  5  1  0  0  0
  5  6  1  0  0  0
  6  7  1  0  0  0
  6 34  1  0  0  0
 34 35  1  0  0  0
  4  8  1  0  0  0
  8  9  1  0  0  0
  9 10  2  0  0  0
 10 11  1  0  0  0
 11 12  2  0  0  0
 12 13  1  0  0  0
 13 14  2  0  0  0
 14 15  1  0  0  0
 15 16  2  0  0  0
 16 17  1  0  0  0
 17 18  2  0  0  0
 17 19  1  0  0  0
 19 20  1  0  0  0
 20 21  1  0  0  0
 21 22  2  0  0  0
 22 23  1  0  0  0
 23 24  2  0  0  0
 24 25  1  0  0  0
 25 26  2  0  0  0
 26 27  1  0  0  0
 27 28  2  0  0  0
 28 29  1  0  0  0
 29 30  1  0  0  0
 30 31  2  0  0  0
  6  2  1  0  0  0
 31  8  1  0  0  0
 29  2  1  0  0  0
 14  9  1  0  0  0
 31 15  1  0  0  0
 21 16  1  0  0  0
 30 22  1  0  0  0
 28 23  1  0  0  0
  7 32  1  0  0  0
 35 36  1  0  0  0
 19 33  1  0  0  0
M  END
> <minimizedAffinity>
-4.07083

> <CNNscore>
0.4159988463

> <CNNaffinity>
6.5018639565

> <CNN_VS>
2.7047679424

> <CNNaffinity_variance>
0.2410023957

$$$$
[H]OC([H])([H])[C@@]1(O[H])C([H])([H])[C@@]2([H])O[C@]1(C([H])([H])[H])n1c3c([H])c([H])c([H])c([H])c3c3c4c(c5c6c([H])c([H])c([H])c([H])c6n2c5c31)C(=O)N([H])C4([H])[H]


 36 43  0  0  0  0  0  0  0  0999 V2000
   41.2229   10.3093  -17.2239 C   0  0  0  0  0  0  0  0  0  0  0  0
   40.2468   11.4149  -17.0090 C   0  0  0  0  0  0  0  0  0  0  0  0
   39.1370   10.6799  -16.5079 O   0  0  0  0  0  0  0  0  0  0  0  0
   37.9844   11.3026  -16.8452 C   0  0  0  0  0  0  0  0  0  0  0  0
   38.1978   11.9541  -18.1444 C   0  0  0  0  0  0  0  0  0  0  0  0
   39.7037   12.0111  -18.2739 C   0  0  0  0  0  0  0  0  0  0  0  0
   40.0381   13.3475  -18.4336 O   0  0  0  0  0  0  0  0  0  0  0  0
   37.5529   12.2113  -15.7751 N   0  0  0  0  0  0  0  0  0  0  0  0
   36.3326   12.4630  -15.3336 C   0  0  0  0  0  0  0  0  0  0  0  0
   35.1417   11.9398  -15.7662 C   0  0  0  0  0  0  0  0  0  0  0  0
   33.9722   12.3585  -15.1437 C   0  0  0  0  0  0  0  0  0  0  0  0
   34.0096   13.2725  -14.1220 C   0  0  0  0  0  0  0  0  0  0  0  0
   35.2244   13.8086  -13.6781 C   0  0  0  0  0  0  0  0  0  0  0  0
   36.3668   13.3903  -14.2965 C   0  0  0  0  0  0  0  0  0  0  0  0
   37.6960   13.7014  -14.1210 C   0  0  0  0  0  0  0  0  0  0  0  0
   38.3748   14.5556  -13.2711 C   0  0  0  0  0  0  0  0  0  0  0  0
   37.9840   15.4600  -12.2047 C   0  0  0  0  0  0  0  0  0  0  0  0
   36.8733   15.7280  -11.7435 O   0  0  0  0  0  0  0  0  0  0  0  0
   39.1772   16.0678  -11.7000 N   0  0  0  0  0  0  0  0  0  0  0  0
   40.3348   15.5887  -12.4154 C   0  0  0  0  0  0  0  0  0  0  0  0
   39.7503   14.6319  -13.3867 C   0  0  0  0  0  0  0  0  0  0  0  0
   40.4590   13.8834  -14.3200 C   0  0  0  0  0  0  0  0  0  0  0  0
   41.7676   13.7663  -14.6685 C   0  0  0  0  0  0  0  0  0  0  0  0
   42.8814   14.3984  -14.1654 C   0  0  0  0  0  0  0  0  0  0  0  0
   44.1322   14.1123  -14.7204 C   0  0  0  0  0  0  0  0  0  0  0  0
   44.2053   13.2017  -15.7592 C   0  0  0  0  0  0  0  0  0  0  0  0
   43.0699   12.5790  -16.2479 C   0  0  0  0  0  0  0  0  0  0  0  0
   41.8307   12.8443  -15.7163 C   0  0  0  0  0  0  0  0  0  0  0  0
   40.5832   12.3913  -16.0127 N   0  0  0  0  0  0  0  0  0  0  0  0
   39.7602   13.0567  -15.1338 C   0  0  0  0  0  0  0  0  0  0  0  0
   38.3889   12.9546  -15.0492 C   0  0  0  0  0  0  0  0  0  0  0  0
   40.0407   13.5516  -19.3997 H   0  0  0  0  0  0  0  0  0  0  0  0
   39.2452   16.7722  -10.9163 H   0  0  0  0  0  0  0  0  0  0  0  0
   40.0935   11.2712  -19.5085 C   0  0  0  0  0  0  0  0  0  0  0  0
   39.2790   11.7041  -20.5554 O   0  0  0  0  0  0  0  0  0  0  0  0
   38.6298   11.0135  -20.8446 H   0  0  0  0  0  0  0  0  0  0  0  0
  2  1  1  0  0  0
  2  3  1  0  0  0
  3  4  1  0  0  0
  4  5  1  0  0  0
  5  6  1  0  0  0
  6  7  1  0  0  0
  6 34  1  0  0  0
 34 35  1  0  0  0
  4  8  1  0  0  0
  8  9  1  0  0  0
  9 10  2  0  0  0
 10 11  1  0  0  0
 11 12  2  0  0  0
 12 13  1  0  0  0
 13 14  2  0  0  0
 14 15  1  0  0  0
 15 16  2  0  0  0
 16 17  1  0  0  0
 17 18  2  0  0  0
 17 19  1  0  0  0
 19 20  1  0  0  0
 20 21  1  0  0  0
 21 22  2  0  0  0
 22 23  1  0  0  0
 23 24  2  0  0  0
 24 25  1  0  0  0
 25 26  2  0  0  0
 26 27  1  0  0  0
 27 28  2  0  0  0
 28 29  1  0  0  0
 29 30  1  0  0  0
 30 31  2  0  0  0
  6  2  1  0  0  0
 31  8  1  0  0  0
 29  2  1  0  0  0
 14  9  1  0  0  0
 31 15  1  0  0  0
 21 16  1  0  0  0
 30 22  1  0  0  0
 28 23  1  0  0  0
  7 32  1  0  0  0
 35 36  1  0  0  0
 19 33  1  0  0  0
M  END
> <minimizedAffinity>
-7.74014

> <CNNscore>
0.2284593731

> <CNNaffinity>
6.4101853371

> <CNN_VS>
1.4644669294

> <CNNaffinity_variance>
0.0629564151

$$$$
[H]OC([H])([H])[C@@]1(O[H])C([H])([H])[C@@]2([H])O[C@]1(C([H])([H])[H])n1c3c([H])c([H])c([H])c([H])c3c3c4c(c5c6c([H])c([H])c([H])c([H])c6n2c5c31)C(=O)N([H])C4([H])[H]


 36 43  0  0  0  0  0  0  0  0999 V2000
   34.6846   11.4798  -13.9859 C   0  0  0  0  0  0  0  0  0  0  0  0
   35.4734   12.7400  -13.8813 C   0  0  0  0  0  0  0  0  0  0  0  0
   35.6341   12.8226  -12.4705 O   0  0  0  0  0  0  0  0  0  0  0  0
   35.7200   14.1191  -12.0938 C   0  0  0  0  0  0  0  0  0  0  0  0
   34.8847   14.9030  -13.0132 C   0  0  0  0  0  0  0  0  0  0  0  0
   34.6940   13.9821  -14.1980 C   0  0  0  0  0  0  0  0  0  0  0  0
   35.1755   14.6590  -15.3085 O   0  0  0  0  0  0  0  0  0  0  0  0
   37.1228   14.5499  -12.0326 N   0  0  0  0  0  0  0  0  0  0  0  0
   37.7148   15.3484  -11.1612 C   0  0  0  0  0  0  0  0  0  0  0  0
   37.1678   15.9907  -10.0808 C   0  0  0  0  0  0  0  0  0  0  0  0
   37.9949   16.7875   -9.2986 C   0  0  0  0  0  0  0  0  0  0  0  0
   39.3252   16.9271   -9.6010 C   0  0  0  0  0  0  0  0  0  0  0  0
   39.8866   16.2723  -10.7038 C   0  0  0  0  0  0  0  0  0  0  0  0
   39.0652   15.4923  -11.4650 C   0  0  0  0  0  0  0  0  0  0  0  0
   39.2758   14.7271  -12.5896 C   0  0  0  0  0  0  0  0  0  0  0  0
   40.3826   14.4684  -13.3775 C   0  0  0  0  0  0  0  0  0  0  0  0
   41.7771   14.8707  -13.3449 C   0  0  0  0  0  0  0  0  0  0  0  0
   42.3865   15.5981  -12.5590 O   0  0  0  0  0  0  0  0  0  0  0  0
   42.4278   14.2511  -14.4587 N   0  0  0  0  0  0  0  0  0  0  0  0
   41.4912   13.4615  -15.2209 C   0  0  0  0  0  0  0  0  0  0  0  0
   40.2225   13.6413  -14.4737 C   0  0  0  0  0  0  0  0  0  0  0  0
   38.9971   13.0706  -14.7997 C   0  0  0  0  0  0  0  0  0  0  0  0
   38.5451   12.2602  -15.7931 C   0  0  0  0  0  0  0  0  0  0  0  0
   39.2115   11.7095  -16.8634 C   0  0  0  0  0  0  0  0  0  0  0  0
   38.5017   10.9145  -17.7681 C   0  0  0  0  0  0  0  0  0  0  0  0
   37.1504   10.7099  -17.5543 C   0  0  0  0  0  0  0  0  0  0  0  0
   36.5026   11.2752  -16.4696 C   0  0  0  0  0  0  0  0  0  0  0  0
   37.1810   12.0587  -15.5674 C   0  0  0  0  0  0  0  0  0  0  0  0
   36.7908   12.7287  -14.4501 N   0  0  0  0  0  0  0  0  0  0  0  0
   37.9366   13.3456  -14.0037 C   0  0  0  0  0  0  0  0  0  0  0  0
   38.0568   14.1660  -12.9036 C   0  0  0  0  0  0  0  0  0  0  0  0
   34.4301   15.1709  -15.7051 H   0  0  0  0  0  0  0  0  0  0  0  0
   43.4470   14.3339  -14.7217 H   0  0  0  0  0  0  0  0  0  0  0  0
   33.2319   13.7506  -14.3775 C   0  0  0  0  0  0  0  0  0  0  0  0
   32.5972   13.9849  -13.1573 O   0  0  0  0  0  0  0  0  0  0  0  0
   32.2566   13.1539  -12.7385 H   0  0  0  0  0  0  0  0  0  0  0  0
  2  1  1  0  0  0
  2  3  1  0  0  0
  3  4  1  0  0  0
  4  5  1  0  0  0
  5  6  1  0  0  0
  6  7  1  0  0  0
  6 34  1  0  0  0
 34 35  1  0  0  0
  4  8  1  0  0  0
  8  9  1  0  0  0
  9 10  2  0  0  0
 10 11  1  0  0  0
 11 12  2  0  0  0
 12 13  1  0  0  0
 13 14  2  0  0  0
 14 15  1  0  0  0
 15 16  2  0  0  0
 16 17  1  0  0  0
 17 18  2  0  0  0
 17 19  1  0  0  0
 19 20  1  0  0  0
 20 21  1  0  0  0
 21 22  2  0  0  0
 22 23  1  0  0  0
 23 24  2  0  0  0
 24 25  1  0  0  0
 25 26  2  0  0  0
 26 27  1  0  0  0
 27 28  2  0  0  0
 28 29  1  0  0  0
 29 30  1  0  0  0
 30 31  2  0  0  0
  6  2  1  0  0  0
 31  8  1  0  0  0
 29  2  1  0  0  0
 14  9  1  0  0  0
 31 15  1  0  0  0
 21 16  1  0  0  0
 30 22  1  0  0  0
 28 23  1  0  0  0
  7 32  1  0  0  0
 35 36  1  0  0  0
 19 33  1  0  0  0
M  END
> <minimizedAffinity>
-10.87837

> <CNNscore>
0.2167924047

> <CNNaffinity>
6.2299375534

> <CNN_VS>
1.3506031036

> <CNNaffinity_variance>
0.2321807891

$$$$
[H]OC([H])([H])[C@@]1(O[H])C([H])([H])[C@@]2([H])O[C@]1(C([H])([H])[H])n1c3c([H])c([H])c([H])c([H])c3c3c4c(c5c6c([H])c([H])c([H])c([H])c6n2c5c31)C(=O)N([H])C4([H])[H]


 36 43  0  0  0  0  0  0  0  0999 V2000
   43.4987   16.9934  -12.8875 C   0  0  0  0  0  0  0  0  0  0  0  0
   44.4553   16.4724  -11.8702 C   0  0  0  0  0  0  0  0  0  0  0  0
   43.6615   16.5832  -10.6951 O   0  0  0  0  0  0  0  0  0  0  0  0
   44.4575   16.7974   -9.6225 C   0  0  0  0  0  0  0  0  0  0  0  0
   45.6130   17.5811  -10.0788 C   0  0  0  0  0  0  0  0  0  0  0  0
   45.6053   17.3908  -11.5794 C   0  0  0  0  0  0  0  0  0  0  0  0
   46.8356   16.8469  -11.9169 O   0  0  0  0  0  0  0  0  0  0  0  0
   44.8052   15.5272   -8.9722 N   0  0  0  0  0  0  0  0  0  0  0  0
   44.9211   15.2515   -7.6846 C   0  0  0  0  0  0  0  0  0  0  0  0
   44.7491   16.0877   -6.6121 C   0  0  0  0  0  0  0  0  0  0  0  0
   44.9258   15.5682   -5.3355 C   0  0  0  0  0  0  0  0  0  0  0  0
   45.2638   14.2515   -5.1543 C   0  0  0  0  0  0  0  0  0  0  0  0
   45.4401   13.3952   -6.2479 C   0  0  0  0  0  0  0  0  0  0  0  0
   45.2641   13.9159   -7.4970 C   0  0  0  0  0  0  0  0  0  0  0  0
   45.3552   13.3756   -8.7596 C   0  0  0  0  0  0  0  0  0  0  0  0
   45.6690   12.1180   -9.2421 C   0  0  0  0  0  0  0  0  0  0  0  0
   46.0114   10.8456   -8.6325 C   0  0  0  0  0  0  0  0  0  0  0  0
   46.1241   10.5252   -7.4482 O   0  0  0  0  0  0  0  0  0  0  0  0
   46.2251    9.9072   -9.6916 N   0  0  0  0  0  0  0  0  0  0  0  0
   46.0383   10.5375  -10.9760 C   0  0  0  0  0  0  0  0  0  0  0  0
   45.6820   11.9306  -10.6117 C   0  0  0  0  0  0  0  0  0  0  0  0
   45.3918   12.9571  -11.5038 C   0  0  0  0  0  0  0  0  0  0  0  0
   45.3457   13.0734  -12.8573 C   0  0  0  0  0  0  0  0  0  0  0  0
   45.5877   12.1398  -13.8384 C   0  0  0  0  0  0  0  0  0  0  0  0
   45.4912   12.5242  -15.1791 C   0  0  0  0  0  0  0  0  0  0  0  0
   45.1553   13.8338  -15.4719 C   0  0  0  0  0  0  0  0  0  0  0  0
   44.9167   14.7546  -14.4664 C   0  0  0  0  0  0  0  0  0  0  0  0
   45.0046   14.3981  -13.1423 C   0  0  0  0  0  0  0  0  0  0  0  0
   44.8369   15.0940  -11.9860 N   0  0  0  0  0  0  0  0  0  0  0  0
   45.0874   14.1742  -10.9941 C   0  0  0  0  0  0  0  0  0  0  0  0
   45.0654   14.3998   -9.6352 C   0  0  0  0  0  0  0  0  0  0  0  0
   47.4589   17.5885  -12.1080 H   0  0  0  0  0  0  0  0  0  0  0  0
   46.4842    8.8886   -9.5911 H   0  0  0  0  0  0  0  0  0  0  0  0
   45.4856   18.7327  -12.2186 C   0  0  0  0  0  0  0  0  0  0  0  0
   46.7319   19.3577  -12.1642 O   0  0  0  0  0  0  0  0  0  0  0  0
   46.7496   20.1194  -11.5307 H   0  0  0  0  0  0  0  0  0  0  0  0
  2  1  1  0  0  0
  2  3  1  0  0  0
  3  4  1  0  0  0
  4  5  1  0  0  0
  5  6  1  0  0  0
  6  7  1  0  0  0
  6 34  1  0  0  0
 34 35  1  0  0  0
  4  8  1  0  0  0
  8  9  1  0  0  0
  9 10  2  0  0  0
 10 11  1  0  0  0
 11 12  2  0  0  0
 12 13  1  0  0  0
 13 14  2  0  0  0
 14 15  1  0  0  0
 15 16  2  0  0  0
 16 17  1  0  0  0
 17 18  2  0  0  0
 17 19  1  0  0  0
 19 20  1  0  0  0
 20 21  1  0  0  0
 21 22  2  0  0  0
 22 23  1  0  0  0
 23 24  2  0  0  0
 24 25  1  0  0  0
 25 26  2  0  0  0
 26 27  1  0  0  0
 27 28  2  0  0  0
 28 29  1  0  0  0
 29 30  1  0  0  0
 30 31  2  0  0  0
  6  2  1  0  0  0
 31  8  1  0  0  0
 29  2  1  0  0  0
 14  9  1  0  0  0
 31 15  1  0  0  0
 21 16  1  0  0  0
 30 22  1  0  0  0
 28 23  1  0  0  0
  7 32  1  0  0  0
 35 36  1  0  0  0
 19 33  1  0  0  0
M  END
> <minimizedAffinity>
-5.76255

> <CNNscore>
0.1786021143

> <CNNaffinity>
4.8461127281

> <CNN_VS>
0.8655259609

> <CNNaffinity_variance>
0.2549131215

$$$$
[H]OC([H])([H])[C@@]1(O[H])C([H])([H])[C@@]2([H])O[C@]1(C([H])([H])[H])n1c3c([H])c([H])c([H])c([H])c3c3c4c(c5c6c([H])c([H])c([H])c([H])c6n2c5c31)C(=O)N([H])C4([H])[H]


 36 43  0  0  0  0  0  0  0  0999 V2000
   45.5979   14.1559  -11.2664 C   0  0  0  0  0  0  0  0  0  0  0  0
   44.9063   14.3459   -9.9600 C   0  0  0  0  0  0  0  0  0  0  0  0
   43.5499   14.2267  -10.3710 O   0  0  0  0  0  0  0  0  0  0  0  0
   42.7593   14.9723   -9.5654 C   0  0  0  0  0  0  0  0  0  0  0  0
   43.5366   16.1460   -9.1464 C   0  0  0  0  0  0  0  0  0  0  0  0
   44.9682   15.7475   -9.4288 C   0  0  0  0  0  0  0  0  0  0  0  0
   45.6520   15.8446   -8.2262 O   0  0  0  0  0  0  0  0  0  0  0  0
   42.2382   14.1628   -8.4561 N   0  0  0  0  0  0  0  0  0  0  0  0
   41.0412   14.1848   -7.8955 C   0  0  0  0  0  0  0  0  0  0  0  0
   39.9668   14.9783   -8.2038 C   0  0  0  0  0  0  0  0  0  0  0  0
   38.7980   14.8210   -7.4691 C   0  0  0  0  0  0  0  0  0  0  0  0
   38.7223   13.8945   -6.4609 C   0  0  0  0  0  0  0  0  0  0  0  0
   39.8180   13.0826   -6.1438 C   0  0  0  0  0  0  0  0  0  0  0  0
   40.9608   13.2456   -6.8717 C   0  0  0  0  0  0  0  0  0  0  0  0
   42.1936   12.6347   -6.8313 C   0  0  0  0  0  0  0  0  0  0  0  0
   42.7450   11.6437   -6.0398 C   0  0  0  0  0  0  0  0  0  0  0  0
   42.2613   10.8235   -4.9438 C   0  0  0  0  0  0  0  0  0  0  0  0
   41.1621   10.7897   -4.3884 O   0  0  0  0  0  0  0  0  0  0  0  0
   43.3350    9.9656   -4.5448 N   0  0  0  0  0  0  0  0  0  0  0  0
   44.5084   10.2112   -5.3474 C   0  0  0  0  0  0  0  0  0  0  0  0
   44.0576   11.2783   -6.2740 C   0  0  0  0  0  0  0  0  0  0  0  0
   44.8263   11.8710   -7.2697 C   0  0  0  0  0  0  0  0  0  0  0  0
   46.1065   11.7377   -7.7067 C   0  0  0  0  0  0  0  0  0  0  0  0
   47.1140   10.9100   -7.2676 C   0  0  0  0  0  0  0  0  0  0  0  0
   48.3675   10.9823   -7.8824 C   0  0  0  0  0  0  0  0  0  0  0  0
   48.5505   11.8866   -8.9131 C   0  0  0  0  0  0  0  0  0  0  0  0
   47.5208   12.7087   -9.3368 C   0  0  0  0  0  0  0  0  0  0  0  0
   46.2806   12.6534   -8.7476 C   0  0  0  0  0  0  0  0  0  0  0  0
   45.1272   13.3425   -8.9582 N   0  0  0  0  0  0  0  0  0  0  0  0
   44.2515   12.8364   -8.0257 C   0  0  0  0  0  0  0  0  0  0  0  0
   42.9466   13.2282   -7.8214 C   0  0  0  0  0  0  0  0  0  0  0  0
   46.0191   16.7583   -8.1528 H   0  0  0  0  0  0  0  0  0  0  0  0
   43.3136    9.2415   -3.7767 H   0  0  0  0  0  0  0  0  0  0  0  0
   45.5459   16.7335  -10.3868 C   0  0  0  0  0  0  0  0  0  0  0  0
   45.2978   18.0169   -9.8989 O   0  0  0  0  0  0  0  0  0  0  0  0
   44.6281   18.5079  -10.4395 H   0  0  0  0  0  0  0  0  0  0  0  0
  2  1  1  0  0  0
  2  3  1  0  0  0
  3  4  1  0  0  0
  4  5  1  0  0  0
  5  6  1  0  0  0
  6  7  1  0  0  0
  6 34  1  0  0  0
 34 35  1  0  0  0
  4  8  1  0  0  0
  8  9  1  0  0  0
  9 10  2  0  0  0
 10 11  1  0  0  0
 11 12  2  0  0  0
 12 13  1  0  0  0
 13 14  2  0  0  0
 14 15  1  0  0  0
 15 16  2  0  0  0
 16 17  1  0  0  0
 17 18  2  0  0  0
 17 19  1  0  0  0
 19 20  1  0  0  0
 20 21  1  0  0  0
 21 22  2  0  0  0
 22 23  1  0  0  0
 23 24  2  0  0  0
 24 25  1  0  0  0
 25 26  2  0  0  0
 26 27  1  0  0  0
 27 28  2  0  0  0
 28 29  1  0  0  0
 29 30  1  0  0  0
 30 31  2  0  0  0
  6  2  1  0  0  0
 31  8  1  0  0  0
 29  2  1  0  0  0
 14  9  1  0  0  0
 31 15  1  0  0  0
 21 16  1  0  0  0
 30 22  1  0  0  0
 28 23  1  0  0  0
  7 32  1  0  0  0
 35 36  1  0  0  0
 19 33  1  0  0  0
M  END
> <minimizedAffinity>
-6.75336

> <CNNscore>
0.1514871866

> <CNNaffinity>
4.6788630486

> <CNN_VS>
0.7087877989

> <CNNaffinity_variance>
0.3488199413

$$$$
[H]OC([H])([H])[C@@]1(O[H])C([H])([H])[C@@]2([H])O[C@]1(C([H])([H])[H])n1c3c([H])c([H])c([H])c([H])c3c3c4c(c5c6c([H])c([H])c([H])c([H])c6n2c5c31)C(=O)N([H])C4([H])[H]


 36 43  0  0  0  0  0  0  0  0999 V2000
   39.0417   14.7119   -8.4425 C   0  0  0  0  0  0  0  0  0  0  0  0
   37.9341   15.7088   -8.4645 C   0  0  0  0  0  0  0  0  0  0  0  0
   36.8174   14.8440   -8.6328 O   0  0  0  0  0  0  0  0  0  0  0  0
   35.8374   15.4866   -9.3086 C   0  0  0  0  0  0  0  0  0  0  0  0
   36.4825   16.4162  -10.2452 C   0  0  0  0  0  0  0  0  0  0  0  0
   37.8888   16.5514   -9.7048 C   0  0  0  0  0  0  0  0  0  0  0  0
   38.0899   17.9005   -9.4545 O   0  0  0  0  0  0  0  0  0  0  0  0
   34.8948   16.1208   -8.3778 N   0  0  0  0  0  0  0  0  0  0  0  0
   33.5800   16.2272   -8.4626 C   0  0  0  0  0  0  0  0  0  0  0  0
   32.7473   15.7726   -9.4521 C   0  0  0  0  0  0  0  0  0  0  0  0
   31.3831   16.0034   -9.3241 C   0  0  0  0  0  0  0  0  0  0  0  0
   30.8833   16.6694   -8.2345 C   0  0  0  0  0  0  0  0  0  0  0  0
   31.7314   17.1347   -7.2223 C   0  0  0  0  0  0  0  0  0  0  0  0
   33.0693   16.9026   -7.3583 C   0  0  0  0  0  0  0  0  0  0  0  0
   34.1590   17.2119   -6.5764 C   0  0  0  0  0  0  0  0  0  0  0  0
   34.3165   17.8794   -5.3754 C   0  0  0  0  0  0  0  0  0  0  0  0
   33.4128   18.5116   -4.4312 C   0  0  0  0  0  0  0  0  0  0  0  0
   32.1869   18.6332   -4.4487 O   0  0  0  0  0  0  0  0  0  0  0  0
   34.2075   19.0327   -3.3612 N   0  0  0  0  0  0  0  0  0  0  0  0
   35.6066   18.7632   -3.5877 C   0  0  0  0  0  0  0  0  0  0  0  0
   35.5969   18.0258   -4.8748 C   0  0  0  0  0  0  0  0  0  0  0  0
   36.7136   17.5268   -5.5363 C   0  0  0  0  0  0  0  0  0  0  0  0
   38.0533   17.5341   -5.3063 C   0  0  0  0  0  0  0  0  0  0  0  0
   38.7738   18.0765   -4.2672 C   0  0  0  0  0  0  0  0  0  0  0  0
   40.1671   17.9629   -4.2761 C   0  0  0  0  0  0  0  0  0  0  0  0
   40.7733   17.3076   -5.3329 C   0  0  0  0  0  0  0  0  0  0  0  0
   40.0261   16.7705   -6.3668 C   0  0  0  0  0  0  0  0  0  0  0  0
   38.6556   16.8694   -6.3776 C   0  0  0  0  0  0  0  0  0  0  0  0
   37.7070   16.4514   -7.2578 N   0  0  0  0  0  0  0  0  0  0  0  0
   36.5197   16.8775   -6.7088 C   0  0  0  0  0  0  0  0  0  0  0  0
   35.2592   16.7129   -7.2398 C   0  0  0  0  0  0  0  0  0  0  0  0
   38.4636   18.3134  -10.2699 H   0  0  0  0  0  0  0  0  0  0  0  0
   33.8592   19.5480   -2.5080 H   0  0  0  0  0  0  0  0  0  0  0  0
   38.8401   16.1166  -10.7676 C   0  0  0  0  0  0  0  0  0  0  0  0
   38.1194   15.9101  -11.9443 O   0  0  0  0  0  0  0  0  0  0  0  0
   38.0546   14.9521  -12.1891 H   0  0  0  0  0  0  0  0  0  0  0  0
  2  1  1  0  0  0
  2  3  1  0  0  0
  3  4  1  0  0  0
  4  5  1  0  0  0
  5  6  1  0  0  0
  6  7  1  0  0  0
  6 34  1  0  0  0
 34 35  1  0  0  0
  4  8  1  0  0  0
  8  9  1  0  0  0
  9 10  2  0  0  0
 10 11  1  0  0  0
 11 12  2  0  0  0
 12 13  1  0  0  0
 13 14  2  0  0  0
 14 15  1  0  0  0
 15 16  2  0  0  0
 16 17  1  0  0  0
 17 18  2  0  0  0
 17 19  1  0  0  0
 19 20  1  0  0  0
 20 21  1  0  0  0
 21 22  2  0  0  0
 22 23  1  0  0  0
 23 24  2  0  0  0
 24 25  1  0  0  0
 25 26  2  0  0  0
 26 27  1  0  0  0
 27 28  2  0  0  0
 28 29  1  0  0  0
 29 30  1  0  0  0
 30 31  2  0  0  0
  6  2  1  0  0  0
 31  8  1  0  0  0
 29  2  1  0  0  0
 14  9  1  0  0  0
 31 15  1  0  0  0
 21 16  1  0  0  0
 30 22  1  0  0  0
 28 23  1  0  0  0
  7 32  1  0  0  0
 35 36  1  0  0  0
 19 33  1  0  0  0
M  END
> <minimizedAffinity>
-6.81196

> <CNNscore>
0.1480229497

> <CNNaffinity>
5.0470795631

> <CNN_VS>
0.7470836043

> <CNNaffinity_variance>
0.3049581945

$$$$
[H]c1c([H])c([H])c2c(c1[H])c1c3c(c4c5c([H])c([H])c([H])c([H])c5n5c4c1n2[C@]1([H])O[C@]5(C([H])([H])[H])[C@@]([H])(OC([H])([H])[H])[C@]([H])(N([H])C([H])([H])[H])C1([H])[H])C([H])([H])N([H])C3=O


 37 44  0  0  0  0  0  0  0  0999 V2000
   36.0736   14.7186  -11.2739 C   0  0  0  0  0  0  0  0  0  0  0  0
   37.5053   15.2211  -11.6490 C   0  0  0  0  0  0  0  0  0  0  0  0
   37.7008   14.5960  -12.8587 C   0  0  0  0  0  0  0  0  0  0  0  0
   36.7081   15.1020  -13.6826 O   0  0  0  0  0  0  0  0  0  0  0  0
   35.7073   14.0805  -13.7302 C   0  0  0  0  0  0  0  0  0  0  0  0
   34.5444   14.8478  -14.4178 C   0  0  0  0  0  0  0  0  0  0  0  0
   35.4490   13.7981  -12.3404 C   0  0  0  0  0  0  0  0  0  0  0  0
   36.1570   13.1098  -14.6945 N   0  0  0  0  0  0  0  0  0  0  0  0
   35.3477   12.3134  -15.4627 C   0  0  0  0  0  0  0  0  0  0  0  0
   34.0041   12.0695  -15.4693 C   0  0  0  0  0  0  0  0  0  0  0  0
   33.4559   11.1766  -16.3828 C   0  0  0  0  0  0  0  0  0  0  0  0
   34.2360   10.5115  -17.3040 C   0  0  0  0  0  0  0  0  0  0  0  0
   35.6028   10.7410  -17.3171 C   0  0  0  0  0  0  0  0  0  0  0  0
   36.0983   11.6254  -16.4026 C   0  0  0  0  0  0  0  0  0  0  0  0
   37.3967   12.0041  -16.2025 C   0  0  0  0  0  0  0  0  0  0  0  0
   38.6190   11.7275  -16.7971 C   0  0  0  0  0  0  0  0  0  0  0  0
   38.8906   10.8145  -17.9370 C   0  0  0  0  0  0  0  0  0  0  0  0
   40.3101   10.8902  -18.1370 N   0  0  0  0  0  0  0  0  0  0  0  0
   40.9013   11.8097  -17.1917 C   0  0  0  0  0  0  0  0  0  0  0  0
   42.1246   12.0112  -17.2198 O   0  0  0  0  0  0  0  0  0  0  0  0
   39.8132   12.2962  -16.3897 C   0  0  0  0  0  0  0  0  0  0  0  0
   39.8203   13.1907  -15.3308 C   0  0  0  0  0  0  0  0  0  0  0  0
   40.7564   13.8831  -14.6307 C   0  0  0  0  0  0  0  0  0  0  0  0
   42.1062   14.0212  -14.7391 C   0  0  0  0  0  0  0  0  0  0  0  0
   42.7480   14.8505  -13.8014 C   0  0  0  0  0  0  0  0  0  0  0  0
   42.0660   15.5080  -12.8050 C   0  0  0  0  0  0  0  0  0  0  0  0
   40.6921   15.3610  -12.7034 C   0  0  0  0  0  0  0  0  0  0  0  0
   40.0768   14.5425  -13.6323 C   0  0  0  0  0  0  0  0  0  0  0  0
   38.7847   14.2873  -13.6932 N   0  0  0  0  0  0  0  0  0  0  0  0
   38.5975   13.4515  -14.7542 C   0  0  0  0  0  0  0  0  0  0  0  0
   37.3949   12.8782  -15.1802 C   0  0  0  0  0  0  0  0  0  0  0  0
   40.8016   10.3392  -18.8727 H   0  0  0  0  0  0  0  0  0  0  0  0
   35.9550   16.6059   -9.9089 C   0  0  0  0  0  0  0  0  0  0  0  0
   35.2433   15.7954  -10.8738 N   0  0  0  0  0  0  0  0  0  0  0  0
   34.3901   15.4432  -10.4313 H   0  0  0  0  0  0  0  0  0  0  0  0
   35.4247   12.4598  -11.9289 O   0  0  0  0  0  0  0  0  0  0  0  0
   36.4010   11.6739  -12.5290 C   0  0  0  0  0  0  0  0  0  0  0  0
 33 34  1  0  0  0
 34  1  1  0  0  0
  1  2  1  0  0  0
  2  3  1  0  0  0
  3  4  1  0  0  0
  4  5  1  0  0  0
  5  6  1  0  0  0
  5  7  1  0  0  0
  7 36  1  0  0  0
 36 37  1  0  0  0
  5  8  1  0  0  0
  8  9  1  0  0  0
  9 10  2  0  0  0
 10 11  1  0  0  0
 11 12  2  0  0  0
 12 13  1  0  0  0
 13 14  2  0  0  0
 14 15  1  0  0  0
 15 16  2  0  0  0
 16 17  1  0  0  0
 17 18  1  0  0  0
 18 19  1  0  0  0
 19 20  2  0  0  0
 19 21  1  0  0  0
 21 22  2  0  0  0
 22 23  1  0  0  0
 23 24  2  0  0  0
 24 25  1  0  0  0
 25 26  2  0  0  0
 26 27  1  0  0  0
 27 28  2  0  0  0
 28 29  1  0  0  0
 29 30  1  0  0  0
 30 31  2  0  0  0
  7  1  1  0  0  0
 31  8  1  0  0  0
 29  3  1  0  0  0
 14  9  1  0  0  0
 31 15  1  0  0  0
 21 16  1  0  0  0
 30 22  1  0  0  0
 28 23  1  0  0  0
 34 35  1  0  0  0
 18 32  1  0  0  0
M  END
> <minimizedAffinity>
-10.24415

> <CNNscore>
0.6140197515

> <CNNaffinity>
7.3303728104

> <CNN_VS>
4.5009937286

> <CNNaffinity_variance>
0.1275750101

$$$$
[H]c1c([H])c([H])c2c(c1[H])c1c3c(c4c5c([H])c([H])c([H])c([H])c5n5c4c1n2[C@]1([H])O[C@]5(C([H])([H])[H])[C@@]([H])(OC([H])([H])[H])[C@]([H])(N([H])C([H])([H])[H])C1([H])[H])C([H])([H])N([H])C3=O


 37 44  0  0  0  0  0  0  0  0999 V2000
   36.5181   14.4448  -11.5485 C   0  0  0  0  0  0  0  0  0  0  0  0
   37.8654   15.2322  -11.4623 C   0  0  0  0  0  0  0  0  0  0  0  0
   38.5144   14.7778  -12.5866 C   0  0  0  0  0  0  0  0  0  0  0  0
   37.7121   15.1769  -13.6437 O   0  0  0  0  0  0  0  0  0  0  0  0
   36.9925   14.0018  -14.0291 C   0  0  0  0  0  0  0  0  0  0  0  0
   35.9394   14.6120  -14.9947 C   0  0  0  0  0  0  0  0  0  0  0  0
   36.4170   13.5389  -12.7911 C   0  0  0  0  0  0  0  0  0  0  0  0
   37.8809   13.2301  -14.8596 N   0  0  0  0  0  0  0  0  0  0  0  0
   37.4978   12.3823  -15.8664 C   0  0  0  0  0  0  0  0  0  0  0  0
   36.2881   11.9021  -16.2797 C   0  0  0  0  0  0  0  0  0  0  0  0
   36.2103   11.0216  -17.3525 C   0  0  0  0  0  0  0  0  0  0  0  0
   37.3350   10.6042  -18.0309 C   0  0  0  0  0  0  0  0  0  0  0  0
   38.5750   11.0766  -17.6303 C   0  0  0  0  0  0  0  0  0  0  0  0
   38.6048   11.9392  -16.5724 C   0  0  0  0  0  0  0  0  0  0  0  0
   39.6906   12.5236  -15.9818 C   0  0  0  0  0  0  0  0  0  0  0  0
   41.0603   12.5332  -16.2010 C   0  0  0  0  0  0  0  0  0  0  0  0
   41.8192   11.8037  -17.2491 C   0  0  0  0  0  0  0  0  0  0  0  0
   43.1921   12.1539  -17.0180 N   0  0  0  0  0  0  0  0  0  0  0  0
   43.2960   13.0649  -15.9010 C   0  0  0  0  0  0  0  0  0  0  0  0
   44.4111   13.4854  -15.5582 O   0  0  0  0  0  0  0  0  0  0  0  0
   41.9517   13.2640  -15.4350 C   0  0  0  0  0  0  0  0  0  0  0  0
   41.4807   14.0338  -14.3830 C   0  0  0  0  0  0  0  0  0  0  0  0
   42.0229   14.8096  -13.4082 C   0  0  0  0  0  0  0  0  0  0  0  0
   43.2921   15.1989  -13.1076 C   0  0  0  0  0  0  0  0  0  0  0  0
   43.4637   16.0316  -11.9868 C   0  0  0  0  0  0  0  0  0  0  0  0
   42.4115   16.4517  -11.2080 C   0  0  0  0  0  0  0  0  0  0  0  0
   41.1235   16.0499  -11.5227 C   0  0  0  0  0  0  0  0  0  0  0  0
   40.9719   15.2317  -12.6267 C   0  0  0  0  0  0  0  0  0  0  0  0
   39.8280   14.7552  -13.0771 N   0  0  0  0  0  0  0  0  0  0  0  0
   40.1188   14.0104  -14.1817 C   0  0  0  0  0  0  0  0  0  0  0  0
   39.2256   13.2756  -14.9682 C   0  0  0  0  0  0  0  0  0  0  0  0
   43.9710   11.7774  -17.5995 H   0  0  0  0  0  0  0  0  0  0  0  0
   35.8864   16.5975  -10.9113 C   0  0  0  0  0  0  0  0  0  0  0  0
   35.4093   15.3084  -11.3642 N   0  0  0  0  0  0  0  0  0  0  0  0
   34.7771   14.9311  -10.6530 H   0  0  0  0  0  0  0  0  0  0  0  0
   36.5488   12.1836  -12.4642 O   0  0  0  0  0  0  0  0  0  0  0  0
   35.4685   11.4060  -12.8634 C   0  0  0  0  0  0  0  0  0  0  0  0
 33 34  1  0  0  0
 34  1  1  0  0  0
  1  2  1  0  0  0
  2  3  1  0  0  0
  3  4  1  0  0  0
  4  5  1  0  0  0
  5  6  1  0  0  0
  5  7  1  0  0  0
  7 36  1  0  0  0
 36 37  1  0  0  0
  5  8  1  0  0  0
  8  9  1  0  0  0
  9 10  2  0  0  0
 10 11  1  0  0  0
 11 12  2  0  0  0
 12 13  1  0  0  0
 13 14  2  0  0  0
 14 15  1  0  0  0
 15 16  2  0  0  0
 16 17  1  0  0  0
 17 18  1  0  0  0
 18 19  1  0  0  0
 19 20  2  0  0  0
 19 21  1  0  0  0
 21 22  2  0  0  0
 22 23  1  0  0  0
 23 24  2  0  0  0
 24 25  1  0  0  0
 25 26  2  0  0  0
 26 27  1  0  0  0
 27 28  2  0  0  0
 28 29  1  0  0  0
 29 30  1  0  0  0
 30 31  2  0  0  0
  7  1  1  0  0  0
 31  8  1  0  0  0
 29  3  1  0  0  0
 14  9  1  0  0  0
 31 15  1  0  0  0
 21 16  1  0  0  0
 30 22  1  0  0  0
 28 23  1  0  0  0
 34 35  1  0  0  0
 18 32  1  0  0  0
M  END
> <minimizedAffinity>
-11.04261

> <CNNscore>
0.5079571009

> <CNNaffinity>
6.9505286217

> <CNN_VS>
3.5305702686

> <CNNaffinity_variance>
0.0622765124

$$$$
[H]c1c([H])c([H])c2c(c1[H])c1c3c(c4c5c([H])c([H])c([H])c([H])c5n5c4c1n2[C@]1([H])O[C@]5(C([H])([H])[H])[C@@]([H])(OC([H])([H])[H])[C@]([H])(N([H])C([H])([H])[H])C1([H])[H])C([H])([H])N([H])C3=O


 37 44  0  0  0  0  0  0  0  0999 V2000
   34.9546   14.8336  -12.3858 C   0  0  0  0  0  0  0  0  0  0  0  0
   34.9790   13.6238  -13.3750 C   0  0  0  0  0  0  0  0  0  0  0  0
   36.3277   13.5013  -13.6162 C   0  0  0  0  0  0  0  0  0  0  0  0
   36.8829   13.2109  -12.3801 O   0  0  0  0  0  0  0  0  0  0  0  0
   37.4471   14.4450  -11.9264 C   0  0  0  0  0  0  0  0  0  0  0  0
   37.7713   14.0882  -10.4494 C   0  0  0  0  0  0  0  0  0  0  0  0
   36.3565   15.3794  -12.0516 C   0  0  0  0  0  0  0  0  0  0  0  0
   38.7219   14.5797  -12.5830 N   0  0  0  0  0  0  0  0  0  0  0  0
   39.8124   15.2418  -12.0814 C   0  0  0  0  0  0  0  0  0  0  0  0
   40.0040   16.0464  -10.9948 C   0  0  0  0  0  0  0  0  0  0  0  0
   41.2532   16.6011  -10.7419 C   0  0  0  0  0  0  0  0  0  0  0  0
   42.3318   16.3647  -11.5666 C   0  0  0  0  0  0  0  0  0  0  0  0
   42.1631   15.5521  -12.6768 C   0  0  0  0  0  0  0  0  0  0  0  0
   40.9197   15.0286  -12.8867 C   0  0  0  0  0  0  0  0  0  0  0  0
   40.4973   14.2230  -13.9074 C   0  0  0  0  0  0  0  0  0  0  0  0
   41.0841   13.6211  -15.0109 C   0  0  0  0  0  0  0  0  0  0  0  0
   42.4982   13.7175  -15.4554 C   0  0  0  0  0  0  0  0  0  0  0  0
   42.5627   12.9201  -16.6474 N   0  0  0  0  0  0  0  0  0  0  0  0
   41.2708   12.3387  -16.9322 C   0  0  0  0  0  0  0  0  0  0  0  0
   41.1360   11.6074  -17.9248 O   0  0  0  0  0  0  0  0  0  0  0  0
   40.3966   12.8045  -15.8917 C   0  0  0  0  0  0  0  0  0  0  0  0
   39.0474   12.5597  -15.6886 C   0  0  0  0  0  0  0  0  0  0  0  0
   38.0578   11.8910  -16.3362 C   0  0  0  0  0  0  0  0  0  0  0  0
   38.0164   11.1165  -17.4548 C   0  0  0  0  0  0  0  0  0  0  0  0
   36.7695   10.5786  -17.8221 C   0  0  0  0  0  0  0  0  0  0  0  0
   35.6222   10.8081  -17.1002 C   0  0  0  0  0  0  0  0  0  0  0  0
   35.6751   11.5977  -15.9630 C   0  0  0  0  0  0  0  0  0  0  0  0
   36.9077   12.1188  -15.6159 C   0  0  0  0  0  0  0  0  0  0  0  0
   37.1497   12.8852  -14.5707 N   0  0  0  0  0  0  0  0  0  0  0  0
   38.4839   13.1663  -14.5885 C   0  0  0  0  0  0  0  0  0  0  0  0
   39.1905   13.9824  -13.6991 C   0  0  0  0  0  0  0  0  0  0  0  0
   43.4405   12.8072  -17.1981 H   0  0  0  0  0  0  0  0  0  0  0  0
   33.2662   15.6671  -11.0097 C   0  0  0  0  0  0  0  0  0  0  0  0
   34.1533   14.5496  -11.2516 N   0  0  0  0  0  0  0  0  0  0  0  0
   34.7404   14.4195  -10.4232 H   0  0  0  0  0  0  0  0  0  0  0  0
   36.6039   16.6077  -12.6768 O   0  0  0  0  0  0  0  0  0  0  0  0
   36.6093   17.6876  -11.8023 C   0  0  0  0  0  0  0  0  0  0  0  0
 33 34  1  0  0  0
 34  1  1  0  0  0
  1  2  1  0  0  0
  2  3  1  0  0  0
  3  4  1  0  0  0
  4  5  1  0  0  0
  5  6  1  0  0  0
  5  7  1  0  0  0
  7 36  1  0  0  0
 36 37  1  0  0  0
  5  8  1  0  0  0
  8  9  1  0  0  0
  9 10  2  0  0  0
 10 11  1  0  0  0
 11 12  2  0  0  0
 12 13  1  0  0  0
 13 14  2  0  0  0
 14 15  1  0  0  0
 15 16  2  0  0  0
 16 17  1  0  0  0
 17 18  1  0  0  0
 18 19  1  0  0  0
 19 20  2  0  0  0
 19 21  1  0  0  0
 21 22  2  0  0  0
 22 23  1  0  0  0
 23 24  2  0  0  0
 24 25  1  0  0  0
 25 26  2  0  0  0
 26 27  1  0  0  0
 27 28  2  0  0  0
 28 29  1  0  0  0
 29 30  1  0  0  0
 30 31  2  0  0  0
  7  1  1  0  0  0
 31  8  1  0  0  0
 29  3  1  0  0  0
 14  9  1  0  0  0
 31 15  1  0  0  0
 21 16  1  0  0  0
 30 22  1  0  0  0
 28 23  1  0  0  0
 34 35  1  0  0  0
 18 32  1  0  0  0
M  END
> <minimizedAffinity>
-8.54950

> <CNNscore>
0.4649252594

> <CNNaffinity>
6.9610319138

> <CNN_VS>
3.2363595963

> <CNNaffinity_variance>
0.1470239311

$$$$
[H]c1c([H])c([H])c2c(c1[H])c1c3c(c4c5c([H])c([H])c([H])c([H])c5n5c4c1n2[C@]1([H])O[C@]5(C([H])([H])[H])[C@@]([H])(OC([H])([H])[H])[C@]([H])(N([H])C([H])([H])[H])C1([H])[H])C([H])([H])N([H])C3=O


 37 44  0  0  0  0  0  0  0  0999 V2000
   34.4530   15.4770  -11.3171 C   0  0  0  0  0  0  0  0  0  0  0  0
   34.1413   14.2609  -12.2481 C   0  0  0  0  0  0  0  0  0  0  0  0
   35.3949   13.9634  -12.7299 C   0  0  0  0  0  0  0  0  0  0  0  0
   36.1327   13.6208  -11.6081 O   0  0  0  0  0  0  0  0  0  0  0  0
   36.9201   14.7784  -11.3127 C   0  0  0  0  0  0  0  0  0  0  0  0
   37.4701   14.4028   -9.9091 C   0  0  0  0  0  0  0  0  0  0  0  0
   35.9492   15.8430  -11.2687 C   0  0  0  0  0  0  0  0  0  0  0  0
   38.0552   14.7398  -12.1985 N   0  0  0  0  0  0  0  0  0  0  0  0
   39.2939   15.2633  -11.9323 C   0  0  0  0  0  0  0  0  0  0  0  0
   39.7844   16.0512  -10.9306 C   0  0  0  0  0  0  0  0  0  0  0  0
   41.1176   16.4446  -10.9341 C   0  0  0  0  0  0  0  0  0  0  0  0
   41.9841   16.0609  -11.9348 C   0  0  0  0  0  0  0  0  0  0  0  0
   41.5104   15.2618  -12.9636 C   0  0  0  0  0  0  0  0  0  0  0  0
   40.1948   14.8993  -12.9202 C   0  0  0  0  0  0  0  0  0  0  0  0
   39.4917   14.1408  -13.8144 C   0  0  0  0  0  0  0  0  0  0  0  0
   39.7814   13.4540  -14.9843 C   0  0  0  0  0  0  0  0  0  0  0  0
   41.0874   13.3624  -15.6861 C   0  0  0  0  0  0  0  0  0  0  0  0
   40.8274   12.5475  -16.8390 N   0  0  0  0  0  0  0  0  0  0  0  0
   39.4433   12.1326  -16.8580 C   0  0  0  0  0  0  0  0  0  0  0  0
   39.0349   11.4115  -17.7805 O   0  0  0  0  0  0  0  0  0  0  0  0
   38.8449   12.7205  -15.6917 C   0  0  0  0  0  0  0  0  0  0  0  0
   37.5384   12.6533  -15.2334 C   0  0  0  0  0  0  0  0  0  0  0  0
   36.3698   12.1084  -15.6614 C   0  0  0  0  0  0  0  0  0  0  0  0
   36.0233   11.3307  -16.7235 C   0  0  0  0  0  0  0  0  0  0  0  0
   34.6729   10.9521  -16.8334 C   0  0  0  0  0  0  0  0  0  0  0  0
   33.7192   11.3364  -15.9207 C   0  0  0  0  0  0  0  0  0  0  0  0
   34.0823   12.1278  -14.8430 C   0  0  0  0  0  0  0  0  0  0  0  0
   35.4129   12.4913  -14.7497 C   0  0  0  0  0  0  0  0  0  0  0  0
   35.9401   13.2343  -13.7965 N   0  0  0  0  0  0  0  0  0  0  0  0
   37.2713   13.3419  -14.0714 C   0  0  0  0  0  0  0  0  0  0  0  0
   38.2280   14.0725  -13.3591 C   0  0  0  0  0  0  0  0  0  0  0  0
   41.5651   12.3157  -17.5381 H   0  0  0  0  0  0  0  0  0  0  0  0
   34.4462   16.2515   -9.1173 C   0  0  0  0  0  0  0  0  0  0  0  0
   33.8509   15.3132  -10.0445 N   0  0  0  0  0  0  0  0  0  0  0  0
   34.0129   14.3658   -9.6921 H   0  0  0  0  0  0  0  0  0  0  0  0
   36.2241   17.0211  -11.9740 O   0  0  0  0  0  0  0  0  0  0  0  0
   36.8387   18.0015  -11.2046 C   0  0  0  0  0  0  0  0  0  0  0  0
 33 34  1  0  0  0
 34  1  1  0  0  0
  1  2  1  0  0  0
  2  3  1  0  0  0
  3  4  1  0  0  0
  4  5  1  0  0  0
  5  6  1  0  0  0
  5  7  1  0  0  0
  7 36  1  0  0  0
 36 37  1  0  0  0
  5  8  1  0  0  0
  8  9  1  0  0  0
  9 10  2  0  0  0
 10 11  1  0  0  0
 11 12  2  0  0  0
 12 13  1  0  0  0
 13 14  2  0  0  0
 14 15  1  0  0  0
 15 16  2  0  0  0
 16 17  1  0  0  0
 17 18  1  0  0  0
 18 19  1  0  0  0
 19 20  2  0  0  0
 19 21  1  0  0  0
 21 22  2  0  0  0
 22 23  1  0  0  0
 23 24  2  0  0  0
 24 25  1  0  0  0
 25 26  2  0  0  0
 26 27  1  0  0  0
 27 28  2  0  0  0
 28 29  1  0  0  0
 29 30  1  0  0  0
 30 31  2  0  0  0
  7  1  1  0  0  0
 31  8  1  0  0  0
 29  3  1  0  0  0
 14  9  1  0  0  0
 31 15  1  0  0  0
 21 16  1  0  0  0
 30 22  1  0  0  0
 28 23  1  0  0  0
 34 35  1  0  0  0
 18 32  1  0  0  0
M  END
> <minimizedAffinity>
-10.87276

> <CNNscore>
0.3974384665

> <CNNaffinity>
6.8391060829

> <CNN_VS>
2.7181239128

> <CNNaffinity_variance>
0.1302360594

$$$$
[H]c1c([H])c([H])c2c(c1[H])c1c3c(c4c5c([H])c([H])c([H])c([H])c5n5c4c1n2[C@]1([H])O[C@]5(C([H])([H])[H])[C@@]([H])(OC([H])([H])[H])[C@]([H])(N([H])C([H])([H])[H])C1([H])[H])C([H])([H])N([H])C3=O


 37 44  0  0  0  0  0  0  0  0999 V2000
   37.7348   15.1428  -11.7961 C   0  0  0  0  0  0  0  0  0  0  0  0
   39.1427   15.8214  -11.7821 C   0  0  0  0  0  0  0  0  0  0  0  0
   39.7481   15.2058  -12.8529 C   0  0  0  0  0  0  0  0  0  0  0  0
   38.9776   15.5628  -13.9480 O   0  0  0  0  0  0  0  0  0  0  0  0
   38.1623   14.4186  -14.2184 C   0  0  0  0  0  0  0  0  0  0  0  0
   37.1597   15.0148  -15.2447 C   0  0  0  0  0  0  0  0  0  0  0  0
   37.5550   14.1296  -12.9433 C   0  0  0  0  0  0  0  0  0  0  0  0
   38.9812   13.4979  -14.9642 N   0  0  0  0  0  0  0  0  0  0  0  0
   38.5260   12.5889  -15.8839 C   0  0  0  0  0  0  0  0  0  0  0  0
   37.2794   12.1713  -16.2532 C   0  0  0  0  0  0  0  0  0  0  0  0
   37.1255   11.1983  -17.2339 C   0  0  0  0  0  0  0  0  0  0  0  0
   38.2096   10.6245  -17.8623 C   0  0  0  0  0  0  0  0  0  0  0  0
   39.4857   11.0306  -17.5047 C   0  0  0  0  0  0  0  0  0  0  0  0
   39.5902   11.9883  -16.5373 C   0  0  0  0  0  0  0  0  0  0  0  0
   40.7225   12.5370  -16.0025 C   0  0  0  0  0  0  0  0  0  0  0  0
   42.0876   12.4121  -16.2152 C   0  0  0  0  0  0  0  0  0  0  0  0
   42.7801   11.5222  -17.1822 C   0  0  0  0  0  0  0  0  0  0  0  0
   44.1780   11.7794  -16.9806 N   0  0  0  0  0  0  0  0  0  0  0  0
   44.3605   12.7849  -15.9589 C   0  0  0  0  0  0  0  0  0  0  0  0
   45.5078   13.1441  -15.6542 O   0  0  0  0  0  0  0  0  0  0  0  0
   43.0389   13.1393  -15.5212 C   0  0  0  0  0  0  0  0  0  0  0  0
   42.6366   14.0457  -14.5527 C   0  0  0  0  0  0  0  0  0  0  0  0
   43.2443   14.8670  -13.6571 C   0  0  0  0  0  0  0  0  0  0  0  0
   44.5423   15.1784  -13.3906 C   0  0  0  0  0  0  0  0  0  0  0  0
   44.7859   16.1011  -12.3570 C   0  0  0  0  0  0  0  0  0  0  0  0
   43.7747   16.6815  -11.6286 C   0  0  0  0  0  0  0  0  0  0  0  0
   42.4568   16.3579  -11.9080 C   0  0  0  0  0  0  0  0  0  0  0  0
   42.2345   15.4496  -12.9262 C   0  0  0  0  0  0  0  0  0  0  0  0
   41.0536   15.0266  -13.3325 N   0  0  0  0  0  0  0  0  0  0  0  0
   41.2782   14.1546  -14.3566 C   0  0  0  0  0  0  0  0  0  0  0  0
   40.3247   13.4215  -15.0706 C   0  0  0  0  0  0  0  0  0  0  0  0
   44.9212   11.2843  -17.5182 H   0  0  0  0  0  0  0  0  0  0  0  0
   36.5915   16.5507  -10.3298 C   0  0  0  0  0  0  0  0  0  0  0  0
   36.7016   16.1088  -11.7036 N   0  0  0  0  0  0  0  0  0  0  0  0
   35.8053   15.7009  -11.9832 H   0  0  0  0  0  0  0  0  0  0  0  0
   37.5758   12.8072  -12.4832 O   0  0  0  0  0  0  0  0  0  0  0  0
   36.3445   12.1685  -12.5657 C   0  0  0  0  0  0  0  0  0  0  0  0
 33 34  1  0  0  0
 34  1  1  0  0  0
  1  2  1  0  0  0
  2  3  1  0  0  0
  3  4  1  0  0  0
  4  5  1  0  0  0
  5  6  1  0  0  0
  5  7  1  0  0  0
  7 36  1  0  0  0
 36 37  1  0  0  0
  5  8  1  0  0  0
  8  9  1  0  0  0
  9 10  2  0  0  0
 10 11  1  0  0  0
 11 12  2  0  0  0
 12 13  1  0  0  0
 13 14  2  0  0  0
 14 15  1  0  0  0
 15 16  2  0  0  0
 16 17  1  0  0  0
 17 18  1  0  0  0
 18 19  1  0  0  0
 19 20  2  0  0  0
 19 21  1  0  0  0
 21 22  2  0  0  0
 22 23  1  0  0  0
 23 24  2  0  0  0
 24 25  1  0  0  0
 25 26  2  0  0  0
 26 27  1  0  0  0
 27 28  2  0  0  0
 28 29  1  0  0  0
 29 30  1  0  0  0
 30 31  2  0  0  0
  7  1  1  0  0  0
 31  8  1  0  0  0
 29  3  1  0  0  0
 14  9  1  0  0  0
 31 15  1  0  0  0
 21 16  1  0  0  0
 30 22  1  0  0  0
 28 23  1  0  0  0
 34 35  1  0  0  0
 18 32  1  0  0  0
M  END
> <minimizedAffinity>
-9.11171

> <CNNscore>
0.2216881812

> <CNNaffinity>
6.4625868797

> <CNN_VS>
1.4326791763

> <CNNaffinity_variance>
0.1688145995

$$$$
[H]c1c([H])c([H])c2c(c1[H])c1c3c(c4c5c([H])c([H])c([H])c([H])c5n5c4c1n2[C@]1([H])O[C@]5(C([H])([H])[H])[C@@]([H])(OC([H])([H])[H])[C@]([H])(N([H])C([H])([H])[H])C1([H])[H])C([H])([H])N([H])C3=O


 37 44  0  0  0  0  0  0  0  0999 V2000
   34.1801   14.0263  -12.5076 C   0  0  0  0  0  0  0  0  0  0  0  0
   35.2250   15.0328  -11.9263 C   0  0  0  0  0  0  0  0  0  0  0  0
   36.3262   14.7546  -12.7022 C   0  0  0  0  0  0  0  0  0  0  0  0
   35.9329   15.0578  -13.9959 O   0  0  0  0  0  0  0  0  0  0  0  0
   35.6412   13.7949  -14.6019 C   0  0  0  0  0  0  0  0  0  0  0  0
   34.9477   14.2573  -15.9130 C   0  0  0  0  0  0  0  0  0  0  0  0
   34.7288   13.1784  -13.6716 C   0  0  0  0  0  0  0  0  0  0  0  0
   36.9038   13.2325  -15.0071 N   0  0  0  0  0  0  0  0  0  0  0  0
   37.0962   12.3808  -16.0639 C   0  0  0  0  0  0  0  0  0  0  0  0
   36.2458   11.7165  -16.9008 C   0  0  0  0  0  0  0  0  0  0  0  0
   36.7458   10.8895  -17.8999 C   0  0  0  0  0  0  0  0  0  0  0  0
   38.1001   10.7094  -18.0818 C   0  0  0  0  0  0  0  0  0  0  0  0
   38.9841   11.3719  -17.2446 C   0  0  0  0  0  0  0  0  0  0  0  0
   38.4495   12.1737  -16.2775 C   0  0  0  0  0  0  0  0  0  0  0  0
   39.1008   12.9100  -15.3273 C   0  0  0  0  0  0  0  0  0  0  0  0
   40.4237   13.1705  -15.0010 C   0  0  0  0  0  0  0  0  0  0  0  0
   41.6448   12.6374  -15.6578 C   0  0  0  0  0  0  0  0  0  0  0  0
   42.7363   13.2113  -14.9229 N   0  0  0  0  0  0  0  0  0  0  0  0
   42.2374   14.0708  -13.8738 C   0  0  0  0  0  0  0  0  0  0  0  0
   43.0399   14.6633  -13.1369 O   0  0  0  0  0  0  0  0  0  0  0  0
   40.8052   14.0081  -13.9674 C   0  0  0  0  0  0  0  0  0  0  0  0
   39.8361   14.6311  -13.1968 C   0  0  0  0  0  0  0  0  0  0  0  0
   39.8131   15.4414  -12.1065 C   0  0  0  0  0  0  0  0  0  0  0  0
   40.7770   16.0323  -11.3484 C   0  0  0  0  0  0  0  0  0  0  0  0
   40.3522   16.8265  -10.2678 C   0  0  0  0  0  0  0  0  0  0  0  0
   39.0246   17.0170   -9.9654 C   0  0  0  0  0  0  0  0  0  0  0  0
   38.0513   16.4113  -10.7435 C   0  0  0  0  0  0  0  0  0  0  0  0
   38.4853   15.6340  -11.8012 C   0  0  0  0  0  0  0  0  0  0  0  0
   37.7081   14.9868  -12.6470 N   0  0  0  0  0  0  0  0  0  0  0  0
   38.5297   14.3594  -13.5363 C   0  0  0  0  0  0  0  0  0  0  0  0
   38.1552   13.5184  -14.5894 C   0  0  0  0  0  0  0  0  0  0  0  0
   43.7327   13.0061  -15.1498 H   0  0  0  0  0  0  0  0  0  0  0  0
   32.5451   15.4356  -11.6246 C   0  0  0  0  0  0  0  0  0  0  0  0
   32.9493   14.6720  -12.7856 N   0  0  0  0  0  0  0  0  0  0  0  0
   32.2209   13.9812  -12.9859 H   0  0  0  0  0  0  0  0  0  0  0  0
   34.9676   11.8530  -13.2880 O   0  0  0  0  0  0  0  0  0  0  0  0
   34.2744   10.9188  -14.0481 C   0  0  0  0  0  0  0  0  0  0  0  0
 33 34  1  0  0  0
 34  1  1  0  0  0
  1  2  1  0  0  0
  2  3  1  0  0  0
  3  4  1  0  0  0
  4  5  1  0  0  0
  5  6  1  0  0  0
  5  7  1  0  0  0
  7 36  1  0  0  0
 36 37  1  0  0  0
  5  8  1  0  0  0
  8  9  1  0  0  0
  9 10  2  0  0  0
 10 11  1  0  0  0
 11 12  2  0  0  0
 12 13  1  0  0  0
 13 14  2  0  0  0
 14 15  1  0  0  0
 15 16  2  0  0  0
 16 17  1  0  0  0
 17 18  1  0  0  0
 18 19  1  0  0  0
 19 20  2  0  0  0
 19 21  1  0  0  0
 21 22  2  0  0  0
 22 23  1  0  0  0
 23 24  2  0  0  0
 24 25  1  0  0  0
 25 26  2  0  0  0
 26 27  1  0  0  0
 27 28  2  0  0  0
 28 29  1  0  0  0
 29 30  1  0  0  0
 30 31  2  0  0  0
  7  1  1  0  0  0
 31  8  1  0  0  0
 29  3  1  0  0  0
 14  9  1  0  0  0
 31 15  1  0  0  0
 21 16  1  0  0  0
 30 22  1  0  0  0
 28 23  1  0  0  0
 34 35  1  0  0  0
 18 32  1  0  0  0
M  END
> <minimizedAffinity>
-9.43719

> <CNNscore>
0.2121562809

> <CNNaffinity>
6.7677907944

> <CNN_VS>
1.4358292818

> <CNNaffinity_variance>
0.1918124408

$$$$
[H]c1c([H])c([H])c2c(c1[H])c1c3c(c4c5c([H])c([H])c([H])c([H])c5n5c4c1n2[C@]1([H])O[C@]5(C([H])([H])[H])[C@@]([H])(OC([H])([H])[H])[C@]([H])(N([H])C([H])([H])[H])C1([H])[H])C([H])([H])N([H])C3=O


 37 44  0  0  0  0  0  0  0  0999 V2000
   41.3426   13.9707  -15.2651 C   0  0  0  0  0  0  0  0  0  0  0  0
   41.0705   14.5447  -13.8371 C   0  0  0  0  0  0  0  0  0  0  0  0
   39.7337   14.2595  -13.6832 C   0  0  0  0  0  0  0  0  0  0  0  0
   39.6580   12.8771  -13.7427 O   0  0  0  0  0  0  0  0  0  0  0  0
   39.1936   12.5863  -15.0645 C   0  0  0  0  0  0  0  0  0  0  0  0
   39.4216   11.0504  -15.1191 C   0  0  0  0  0  0  0  0  0  0  0  0
   40.1034   13.3191  -15.9092 C   0  0  0  0  0  0  0  0  0  0  0  0
   37.7648   12.7672  -15.0468 N   0  0  0  0  0  0  0  0  0  0  0  0
   36.8660   12.1032  -15.8409 C   0  0  0  0  0  0  0  0  0  0  0  0
   36.9990   11.2624  -16.9087 C   0  0  0  0  0  0  0  0  0  0  0  0
   35.8744   10.7397  -17.5366 C   0  0  0  0  0  0  0  0  0  0  0  0
   34.5993   11.0459  -17.1125 C   0  0  0  0  0  0  0  0  0  0  0  0
   34.4375   11.8978  -16.0312 C   0  0  0  0  0  0  0  0  0  0  0  0
   35.5690   12.3878  -15.4449 C   0  0  0  0  0  0  0  0  0  0  0  0
   35.6749   13.2495  -14.3888 C   0  0  0  0  0  0  0  0  0  0  0  0
   34.7922   13.8854  -13.5282 C   0  0  0  0  0  0  0  0  0  0  0  0
   33.3083   13.8166  -13.5328 C   0  0  0  0  0  0  0  0  0  0  0  0
   32.8988   14.6648  -12.4494 N   0  0  0  0  0  0  0  0  0  0  0  0
   34.0545   15.2243  -11.7863 C   0  0  0  0  0  0  0  0  0  0  0  0
   33.8951   15.9792  -10.8154 O   0  0  0  0  0  0  0  0  0  0  0  0
   35.1951   14.7109  -12.4930 C   0  0  0  0  0  0  0  0  0  0  0  0
   36.5464   14.9366  -12.2827 C   0  0  0  0  0  0  0  0  0  0  0  0
   37.3012   15.6953  -11.4457 C   0  0  0  0  0  0  0  0  0  0  0  0
   37.0144   16.5202  -10.4016 C   0  0  0  0  0  0  0  0  0  0  0  0
   38.0965   17.1495   -9.7596 C   0  0  0  0  0  0  0  0  0  0  0  0
   39.4013   16.9583  -10.1483 C   0  0  0  0  0  0  0  0  0  0  0  0
   39.6826   16.1164  -11.2121 C   0  0  0  0  0  0  0  0  0  0  0  0
   38.6082   15.5060  -11.8323 C   0  0  0  0  0  0  0  0  0  0  0  0
   38.6826   14.6752  -12.8533 N   0  0  0  0  0  0  0  0  0  0  0  0
   37.4059   14.2970  -13.1475 C   0  0  0  0  0  0  0  0  0  0  0  0
   36.9881   13.4569  -14.1848 C   0  0  0  0  0  0  0  0  0  0  0  0
   31.8965   14.8257  -12.2128 H   0  0  0  0  0  0  0  0  0  0  0  0
   43.3452   13.5217  -14.1574 C   0  0  0  0  0  0  0  0  0  0  0  0
   42.5022   13.1557  -15.2754 N   0  0  0  0  0  0  0  0  0  0  0  0
   43.0324   13.2999  -16.1391 H   0  0  0  0  0  0  0  0  0  0  0  0
   39.5670   14.1102  -16.9326 O   0  0  0  0  0  0  0  0  0  0  0  0
   40.4764   14.4123  -17.9389 C   0  0  0  0  0  0  0  0  0  0  0  0
 33 34  1  0  0  0
 34  1  1  0  0  0
  1  2  1  0  0  0
  2  3  1  0  0  0
  3  4  1  0  0  0
  4  5  1  0  0  0
  5  6  1  0  0  0
  5  7  1  0  0  0
  7 36  1  0  0  0
 36 37  1  0  0  0
  5  8  1  0  0  0
  8  9  1  0  0  0
  9 10  2  0  0  0
 10 11  1  0  0  0
 11 12  2  0  0  0
 12 13  1  0  0  0
 13 14  2  0  0  0
 14 15  1  0  0  0
 15 16  2  0  0  0
 16 17  1  0  0  0
 17 18  1  0  0  0
 18 19  1  0  0  0
 19 20  2  0  0  0
 19 21  1  0  0  0
 21 22  2  0  0  0
 22 23  1  0  0  0
 23 24  2  0  0  0
 24 25  1  0  0  0
 25 26  2  0  0  0
 26 27  1  0  0  0
 27 28  2  0  0  0
 28 29  1  0  0  0
 29 30  1  0  0  0
 30 31  2  0  0  0
  7  1  1  0  0  0
 31  8  1  0  0  0
 29  3  1  0  0  0
 14  9  1  0  0  0
 31 15  1  0  0  0
 21 16  1  0  0  0
 30 22  1  0  0  0
 28 23  1  0  0  0
 34 35  1  0  0  0
 18 32  1  0  0  0
M  END
> <minimizedAffinity>
-7.24282

> <CNNscore>
0.2034591734

> <CNNaffinity>
6.6610498428

> <CNN_VS>
1.3552516699

> <CNNaffinity_variance>
0.1024302840

$$$$
[H]c1c([H])c([H])c2c(c1[H])c1c3c(c4c5c([H])c([H])c([H])c([H])c5n5c4c1n2[C@]1([H])O[C@]5(C([H])([H])[H])[C@@]([H])(OC([H])([H])[H])[C@]([H])(N([H])C([H])([H])[H])C1([H])[H])C([H])([H])N([H])C3=O


 37 44  0  0  0  0  0  0  0  0999 V2000
   43.6149   14.2755  -11.8659 C   0  0  0  0  0  0  0  0  0  0  0  0
   44.2492   12.8682  -11.6211 C   0  0  0  0  0  0  0  0  0  0  0  0
   44.6490   12.9783  -10.3096 C   0  0  0  0  0  0  0  0  0  0  0  0
   43.4772   13.1833   -9.5988 O   0  0  0  0  0  0  0  0  0  0  0  0
   43.4480   14.5876   -9.3263 C   0  0  0  0  0  0  0  0  0  0  0  0
   41.9946   14.7496   -8.8016 C   0  0  0  0  0  0  0  0  0  0  0  0
   43.6466   15.1858  -10.6228 C   0  0  0  0  0  0  0  0  0  0  0  0
   44.2999   14.8022   -8.1849 N   0  0  0  0  0  0  0  0  0  0  0  0
   44.1555   15.8012   -7.2574 C   0  0  0  0  0  0  0  0  0  0  0  0
   43.3556   16.9056   -7.1842 C   0  0  0  0  0  0  0  0  0  0  0  0
   43.4445   17.7676   -6.0973 C   0  0  0  0  0  0  0  0  0  0  0  0
   44.3314   17.5450   -5.0661 C   0  0  0  0  0  0  0  0  0  0  0  0
   45.1551   16.4314   -5.1173 C   0  0  0  0  0  0  0  0  0  0  0  0
   45.0342   15.6122   -6.2028 C   0  0  0  0  0  0  0  0  0  0  0  0
   45.7365   14.4756   -6.4929 C   0  0  0  0  0  0  0  0  0  0  0  0
   46.7213   13.7249   -5.8677 C   0  0  0  0  0  0  0  0  0  0  0  0
   47.3817   13.9950   -4.5647 C   0  0  0  0  0  0  0  0  0  0  0  0
   48.3223   12.9229   -4.4015 N   0  0  0  0  0  0  0  0  0  0  0  0
   48.2505   12.0175   -5.5255 C   0  0  0  0  0  0  0  0  0  0  0  0
   48.9882   11.0210   -5.5545 O   0  0  0  0  0  0  0  0  0  0  0  0
   47.2477   12.5605   -6.3992 C   0  0  0  0  0  0  0  0  0  0  0  0
   46.7890   12.0968   -7.6222 C   0  0  0  0  0  0  0  0  0  0  0  0
   47.0860   11.0716   -8.4628 C   0  0  0  0  0  0  0  0  0  0  0  0
   47.9467   10.0189   -8.4014 C   0  0  0  0  0  0  0  0  0  0  0  0
   47.9717    9.1402   -9.4998 C   0  0  0  0  0  0  0  0  0  0  0  0
   47.1709    9.3118  -10.6040 C   0  0  0  0  0  0  0  0  0  0  0  0
   46.2980   10.3865  -10.6566 C   0  0  0  0  0  0  0  0  0  0  0  0
   46.2858   11.2406   -9.5695 C   0  0  0  0  0  0  0  0  0  0  0  0
   45.5231   12.3084   -9.4415 N   0  0  0  0  0  0  0  0  0  0  0  0
   45.8122   12.8560   -8.2266 C   0  0  0  0  0  0  0  0  0  0  0  0
   45.2803   14.0265   -7.6758 C   0  0  0  0  0  0  0  0  0  0  0  0
   48.9497   12.8505   -3.5723 H   0  0  0  0  0  0  0  0  0  0  0  0
   42.4985   13.6181  -13.8051 C   0  0  0  0  0  0  0  0  0  0  0  0
   42.3393   14.1619  -12.4734 N   0  0  0  0  0  0  0  0  0  0  0  0
   41.8980   15.0822  -12.5523 H   0  0  0  0  0  0  0  0  0  0  0  0
   44.5983   16.2059  -10.7438 O   0  0  0  0  0  0  0  0  0  0  0  0
   45.1167   16.3358  -12.0265 C   0  0  0  0  0  0  0  0  0  0  0  0
 33 34  1  0  0  0
 34  1  1  0  0  0
  1  2  1  0  0  0
  2  3  1  0  0  0
  3  4  1  0  0  0
  4  5  1  0  0  0
  5  6  1  0  0  0
  5  7  1  0  0  0
  7 36  1  0  0  0
 36 37  1  0  0  0
  5  8  1  0  0  0
  8  9  1  0  0  0
  9 10  2  0  0  0
 10 11  1  0  0  0
 11 12  2  0  0  0
 12 13  1  0  0  0
 13 14  2  0  0  0
 14 15  1  0  0  0
 15 16  2  0  0  0
 16 17  1  0  0  0
 17 18  1  0  0  0
 18 19  1  0  0  0
 19 20  2  0  0  0
 19 21  1  0  0  0
 21 22  2  0  0  0
 22 23  1  0  0  0
 23 24  2  0  0  0
 24 25  1  0  0  0
 25 26  2  0  0  0
 26 27  1  0  0  0
 27 28  2  0  0  0
 28 29  1  0  0  0
 29 30  1  0  0  0
 30 31  2  0  0  0
  7  1  1  0  0  0
 31  8  1  0  0  0
 29  3  1  0  0  0
 14  9  1  0  0  0
 31 15  1  0  0  0
 21 16  1  0  0  0
 30 22  1  0  0  0
 28 23  1  0  0  0
 34 35  1  0  0  0
 18 32  1  0  0  0
M  END
> <minimizedAffinity>
-5.69869

> <CNNscore>
0.1943226159

> <CNNaffinity>
5.1480360031

> <CNN_VS>
1.0003798008

> <CNNaffinity_variance>
0.0916389078

$$$$
[H]c1c([H])c([H])c2c(c1[H])c1c3c(c4c5c([H])c([H])c([H])c([H])c5n5c4c1n2[C@]1([H])O[C@]5(C([H])([H])[H])[C@@]([H])(OC([H])([H])[H])[C@]([H])(N([H])C([H])([H])[H])C1([H])[H])C([H])([H])N([H])C3=O


 37 44  0  0  0  0  0  0  0  0999 V2000
   41.2110   16.6776  -11.3127 C   0  0  0  0  0  0  0  0  0  0  0  0
   40.1933   15.6971  -11.9803 C   0  0  0  0  0  0  0  0  0  0  0  0
   41.0279   14.9403  -12.7696 C   0  0  0  0  0  0  0  0  0  0  0  0
   41.8873   14.3168  -11.8792 O   0  0  0  0  0  0  0  0  0  0  0  0
   43.1033   15.0679  -11.9477 C   0  0  0  0  0  0  0  0  0  0  0  0
   43.8727   14.4827  -10.7314 C   0  0  0  0  0  0  0  0  0  0  0  0
   42.6711   16.4270  -11.7374 C   0  0  0  0  0  0  0  0  0  0  0  0
   43.8081   14.6027  -13.1144 N   0  0  0  0  0  0  0  0  0  0  0  0
   45.1696   14.5942  -13.2742 C   0  0  0  0  0  0  0  0  0  0  0  0
   46.2034   15.1094  -12.5457 C   0  0  0  0  0  0  0  0  0  0  0  0
   47.5154   14.9488  -12.9756 C   0  0  0  0  0  0  0  0  0  0  0  0
   47.8200   14.2734  -14.1378 C   0  0  0  0  0  0  0  0  0  0  0  0
   46.7884   13.7417  -14.8957 C   0  0  0  0  0  0  0  0  0  0  0  0
   45.5156   13.9231  -14.4361 C   0  0  0  0  0  0  0  0  0  0  0  0
   44.3403   13.5164  -15.0039 C   0  0  0  0  0  0  0  0  0  0  0  0
   43.9745   12.7912  -16.1284 C   0  0  0  0  0  0  0  0  0  0  0  0
   44.8651   12.2071  -17.1639 C   0  0  0  0  0  0  0  0  0  0  0  0
   43.9761   11.5792  -18.1000 N   0  0  0  0  0  0  0  0  0  0  0  0
   42.6045   11.7404  -17.6744 C   0  0  0  0  0  0  0  0  0  0  0  0
   41.6920   11.2530  -18.3583 O   0  0  0  0  0  0  0  0  0  0  0  0
   42.6621   12.4957  -16.4537 C   0  0  0  0  0  0  0  0  0  0  0  0
   41.6363   12.9381  -15.6331 C   0  0  0  0  0  0  0  0  0  0  0  0
   40.2782   12.9023  -15.6453 C   0  0  0  0  0  0  0  0  0  0  0  0
   39.3556   12.3409  -16.4738 C   0  0  0  0  0  0  0  0  0  0  0  0
   37.9993   12.5239  -16.1484 C   0  0  0  0  0  0  0  0  0  0  0  0
   37.5918   13.2355  -15.0449 C   0  0  0  0  0  0  0  0  0  0  0  0
   38.5389   13.8027  -14.2077 C   0  0  0  0  0  0  0  0  0  0  0  0
   39.8672   13.6138  -14.5416 C   0  0  0  0  0  0  0  0  0  0  0  0
   40.9010   14.0743  -13.8653 N   0  0  0  0  0  0  0  0  0  0  0  0
   42.0201   13.6562  -14.5228 C   0  0  0  0  0  0  0  0  0  0  0  0
   43.3505   13.9411  -14.1984 C   0  0  0  0  0  0  0  0  0  0  0  0
   44.3181   11.0889  -18.9538 H   0  0  0  0  0  0  0  0  0  0  0  0
   39.8921   15.8991   -9.5538 C   0  0  0  0  0  0  0  0  0  0  0  0
   41.0139   16.7410   -9.9104 N   0  0  0  0  0  0  0  0  0  0  0  0
   40.8008   17.7000   -9.6228 H   0  0  0  0  0  0  0  0  0  0  0  0
   43.1398   17.4149  -12.6121 O   0  0  0  0  0  0  0  0  0  0  0  0
   44.2961   18.0472  -12.1714 C   0  0  0  0  0  0  0  0  0  0  0  0
 33 34  1  0  0  0
 34  1  1  0  0  0
  1  2  1  0  0  0
  2  3  1  0  0  0
  3  4  1  0  0  0
  4  5  1  0  0  0
  5  6  1  0  0  0
  5  7  1  0  0  0
  7 36  1  0  0  0
 36 37  1  0  0  0
  5  8  1  0  0  0
  8  9  1  0  0  0
  9 10  2  0  0  0
 10 11  1  0  0  0
 11 12  2  0  0  0
 12 13  1  0  0  0
 13 14  2  0  0  0
 14 15  1  0  0  0
 15 16  2  0  0  0
 16 17  1  0  0  0
 17 18  1  0  0  0
 18 19  1  0  0  0
 19 20  2  0  0  0
 19 21  1  0  0  0
 21 22  2  0  0  0
 22 23  1  0  0  0
 23 24  2  0  0  0
 24 25  1  0  0  0
 25 26  2  0  0  0
 26 27  1  0  0  0
 27 28  2  0  0  0
 28 29  1  0  0  0
 29 30  1  0  0  0
 30 31  2  0  0  0
  7  1  1  0  0  0
 31  8  1  0  0  0
 29  3  1  0  0  0
 14  9  1  0  0  0
 31 15  1  0  0  0
 21 16  1  0  0  0
 30 22  1  0  0  0
 28 23  1  0  0  0
 34 35  1  0  0  0
 18 32  1  0  0  0
M  END
> <minimizedAffinity>
-6.51139

> <CNNscore>
0.1754050553

> <CNNaffinity>
5.8964567184

> <CNN_VS>
1.0342682600

> <CNNaffinity_variance>
0.1039875895

$$$$
[H]c1c([H])c([H])c2c(c1[H])c1c3c(c4c5c([H])c([H])c([H])c([H])c5n5c4c1n2[C@@]1([H])O[C@]5(C([H])([H])[H])[C@@]([H])(OC([H])([H])[H])[C@@]([H])(N([H])C([H])([H])[H])C1([H])[H])C([H])([H])N([H])C3=O


 37 44  0  0  0  0  0  0  0  0999 V2000
   35.6505   16.1040  -11.7998 C   0  0  0  0  0  0  0  0  0  0  0  0
   35.0594   14.8460  -12.2870 C   0  0  0  0  0  0  0  0  0  0  0  0
   35.8146   13.6076  -11.9309 C   0  0  0  0  0  0  0  0  0  0  0  0
   36.7569   13.6630  -11.0286 O   0  0  0  0  0  0  0  0  0  0  0  0
   37.5631   14.7562  -10.8094 C   0  0  0  0  0  0  0  0  0  0  0  0
   38.0859   14.4493   -9.3907 C   0  0  0  0  0  0  0  0  0  0  0  0
   36.7397   15.9621  -10.7603 C   0  0  0  0  0  0  0  0  0  0  0  0
   38.6483   14.7281  -11.7756 N   0  0  0  0  0  0  0  0  0  0  0  0
   39.8696   15.2623  -11.6737 C   0  0  0  0  0  0  0  0  0  0  0  0
   40.4654   16.0044  -10.6983 C   0  0  0  0  0  0  0  0  0  0  0  0
   41.7724   16.4433  -10.8494 C   0  0  0  0  0  0  0  0  0  0  0  0
   42.5250   16.1629  -11.9636 C   0  0  0  0  0  0  0  0  0  0  0  0
   41.9268   15.4037  -12.9711 C   0  0  0  0  0  0  0  0  0  0  0  0
   40.6296   14.9824  -12.7933 C   0  0  0  0  0  0  0  0  0  0  0  0
   39.8233   14.2325  -13.6309 C   0  0  0  0  0  0  0  0  0  0  0  0
   40.0199   13.6555  -14.8779 C   0  0  0  0  0  0  0  0  0  0  0  0
   41.2350   13.6867  -15.7474 C   0  0  0  0  0  0  0  0  0  0  0  0
   40.8962   12.9153  -16.9088 N   0  0  0  0  0  0  0  0  0  0  0  0
   39.5537   12.4499  -16.7982 C   0  0  0  0  0  0  0  0  0  0  0  0
   39.0299   11.7733  -17.6866 O   0  0  0  0  0  0  0  0  0  0  0  0
   39.0433   12.9279  -15.5261 C   0  0  0  0  0  0  0  0  0  0  0  0
   37.8407   12.8025  -14.8624 C   0  0  0  0  0  0  0  0  0  0  0  0
   36.6463   12.1849  -15.1675 C   0  0  0  0  0  0  0  0  0  0  0  0
   36.2012   11.4534  -16.2317 C   0  0  0  0  0  0  0  0  0  0  0  0
   34.8958   10.9637  -16.2092 C   0  0  0  0  0  0  0  0  0  0  0  0
   34.0342   11.1867  -15.1575 C   0  0  0  0  0  0  0  0  0  0  0  0
   34.4858   11.9259  -14.0839 C   0  0  0  0  0  0  0  0  0  0  0  0
   35.7572   12.4033  -14.1050 C   0  0  0  0  0  0  0  0  0  0  0  0
   36.4060   13.1305  -13.1934 N   0  0  0  0  0  0  0  0  0  0  0  0
   37.6474   13.3792  -13.6197 C   0  0  0  0  0  0  0  0  0  0  0  0
   38.6463   14.1001  -12.9937 C   0  0  0  0  0  0  0  0  0  0  0  0
   41.5573   12.7290  -17.7192 H   0  0  0  0  0  0  0  0  0  0  0  0
   36.1307   16.1101  -14.0885 C   0  0  0  0  0  0  0  0  0  0  0  0
   36.1700   16.9317  -12.8965 N   0  0  0  0  0  0  0  0  0  0  0  0
   35.6006   17.7641  -13.0738 H   0  0  0  0  0  0  0  0  0  0  0  0
   37.3810   17.1909  -10.7704 O   0  0  0  0  0  0  0  0  0  0  0  0
   37.3355   17.8929   -9.5986 C   0  0  0  0  0  0  0  0  0  0  0  0
 33 34  1  0  0  0
 34  1  1  0  0  0
  1  2  1  0  0  0
  2  3  1  0  0  0
  3  4  1  0  0  0
  4  5  1  0  0  0
  5  6  1  0  0  0
  5  7  1  0  0  0
  7 36  1  0  0  0
 36 37  1  0  0  0
  5  8  1  0  0  0
  8  9  1  0  0  0
  9 10  2  0  0  0
 10 11  1  0  0  0
 11 12  2  0  0  0
 12 13  1  0  0  0
 13 14  2  0  0  0
 14 15  1  0  0  0
 15 16  2  0  0  0
 16 17  1  0  0  0
 17 18  1  0  0  0
 18 19  1  0  0  0
 19 20  2  0  0  0
 19 21  1  0  0  0
 21 22  2  0  0  0
 22 23  1  0  0  0
 23 24  2  0  0  0
 24 25  1  0  0  0
 25 26  2  0  0  0
 26 27  1  0  0  0
 27 28  2  0  0  0
 28 29  1  0  0  0
 29 30  1  0  0  0
 30 31  2  0  0  0
  7  1  1  0  0  0
 31  8  1  0  0  0
 29  3  1  0  0  0
 14  9  1  0  0  0
 31 15  1  0  0  0
 21 16  1  0  0  0
 30 22  1  0  0  0
 28 23  1  0  0  0
 34 35  1  0  0  0
 18 32  1  0  0  0
M  END
> <minimizedAffinity>
-6.62548

> <CNNscore>
0.3859580159

> <CNNaffinity>
6.7399072647

> <CNN_VS>
2.6013212204

> <CNNaffinity_variance>
0.0958606526

$$$$
[H]c1c([H])c([H])c2c(c1[H])c1c3c(c4c5c([H])c([H])c([H])c([H])c5n5c4c1n2[C@@]1([H])O[C@]5(C([H])([H])[H])[C@@]([H])(OC([H])([H])[H])[C@@]([H])(N([H])C([H])([H])[H])C1([H])[H])C([H])([H])N([H])C3=O


 37 44  0  0  0  0  0  0  0  0999 V2000
   45.0159   14.1107   -6.8944 C   0  0  0  0  0  0  0  0  0  0  0  0
   45.5183   14.9409   -8.0025 C   0  0  0  0  0  0  0  0  0  0  0  0
   44.9726   16.3302   -8.0555 C   0  0  0  0  0  0  0  0  0  0  0  0
   44.3257   16.8096   -7.0275 O   0  0  0  0  0  0  0  0  0  0  0  0
   43.5511   16.0579   -6.1743 C   0  0  0  0  0  0  0  0  0  0  0  0
   43.4748   16.9959   -4.9518 C   0  0  0  0  0  0  0  0  0  0  0  0
   44.2796   14.8484   -5.7986 C   0  0  0  0  0  0  0  0  0  0  0  0
   42.2388   15.8868   -6.7751 N   0  0  0  0  0  0  0  0  0  0  0  0
   41.0676   15.6638   -6.1706 C   0  0  0  0  0  0  0  0  0  0  0  0
   40.7313   15.4941   -4.8609 C   0  0  0  0  0  0  0  0  0  0  0  0
   39.4115   15.2702   -4.4980 C   0  0  0  0  0  0  0  0  0  0  0  0
   38.3904   15.2076   -5.4146 C   0  0  0  0  0  0  0  0  0  0  0  0
   38.7209   15.3794   -6.7602 C   0  0  0  0  0  0  0  0  0  0  0  0
   40.0379   15.5999   -7.0899 C   0  0  0  0  0  0  0  0  0  0  0  0
   40.6152   15.7947   -8.3320 C   0  0  0  0  0  0  0  0  0  0  0  0
   40.1061   15.8470   -9.6221 C   0  0  0  0  0  0  0  0  0  0  0  0
   38.6937   15.6846  -10.0830 C   0  0  0  0  0  0  0  0  0  0  0  0
   38.7327   15.8513  -11.5075 N   0  0  0  0  0  0  0  0  0  0  0  0
   40.0766   16.0765  -11.9254 C   0  0  0  0  0  0  0  0  0  0  0  0
   40.3648   16.2350  -13.1142 O   0  0  0  0  0  0  0  0  0  0  0  0
   40.8990   16.0678  -10.7293 C   0  0  0  0  0  0  0  0  0  0  0  0
   42.2464   16.2344  -10.4856 C   0  0  0  0  0  0  0  0  0  0  0  0
   43.3391   16.4555  -11.2970 C   0  0  0  0  0  0  0  0  0  0  0  0
   43.5052   16.6067  -12.6443 C   0  0  0  0  0  0  0  0  0  0  0  0
   44.7898   16.8249  -13.1409 C   0  0  0  0  0  0  0  0  0  0  0  0
   45.9007   16.8946  -12.3289 C   0  0  0  0  0  0  0  0  0  0  0  0
   45.7306   16.7415  -10.9686 C   0  0  0  0  0  0  0  0  0  0  0  0
   44.4796   16.5289  -10.4841 C   0  0  0  0  0  0  0  0  0  0  0  0
   44.0754   16.3564   -9.2241 N   0  0  0  0  0  0  0  0  0  0  0  0
   42.7512   16.1812   -9.1986 C   0  0  0  0  0  0  0  0  0  0  0  0
   41.9310   15.9615   -8.1085 C   0  0  0  0  0  0  0  0  0  0  0  0
   37.8803   15.8101  -12.1400 H   0  0  0  0  0  0  0  0  0  0  0  0
   44.4738   12.8190   -8.7670 C   0  0  0  0  0  0  0  0  0  0  0  0
   44.1557   13.0184   -7.3682 N   0  0  0  0  0  0  0  0  0  0  0  0
   44.3274   12.1341   -6.8813 H   0  0  0  0  0  0  0  0  0  0  0  0
   43.5889   13.8536   -5.1243 O   0  0  0  0  0  0  0  0  0  0  0  0
   44.1170   13.4764   -3.9216 C   0  0  0  0  0  0  0  0  0  0  0  0
 33 34  1  0  0  0
 34  1  1  0  0  0
  1  2  1  0  0  0
  2  3  1  0  0  0
  3  4  1  0  0  0
  4  5  1  0  0  0
  5  6  1  0  0  0
  5  7  1  0  0  0
  7 36  1  0  0  0
 36 37  1  0  0  0
  5  8  1  0  0  0
  8  9  1  0  0  0
  9 10  2  0  0  0
 10 11  1  0  0  0
 11 12  2  0  0  0
 12 13  1  0  0  0
 13 14  2  0  0  0
 14 15  1  0  0  0
 15 16  2  0  0  0
 16 17  1  0  0  0
 17 18  1  0  0  0
 18 19  1  0  0  0
 19 20  2  0  0  0
 19 21  1  0  0  0
 21 22  2  0  0  0
 22 23  1  0  0  0
 23 24  2  0  0  0
 24 25  1  0  0  0
 25 26  2  0  0  0
 26 27  1  0  0  0
 27 28  2  0  0  0
 28 29  1  0  0  0
 29 30  1  0  0  0
 30 31  2  0  0  0
  7  1  1  0  0  0
 31  8  1  0  0  0
 29  3  1  0  0  0
 14  9  1  0  0  0
 31 15  1  0  0  0
 21 16  1  0  0  0
 30 22  1  0  0  0
 28 23  1  0  0  0
 34 35  1  0  0  0
 18 32  1  0  0  0
M  END
> <minimizedAffinity>
-6.69017

> <CNNscore>
0.2409806848

> <CNNaffinity>
5.2634239197

> <CNN_VS>
1.2683835030

> <CNNaffinity_variance>
0.2970147729

$$$$
[H]c1c([H])c([H])c2c(c1[H])c1c3c(c4c5c([H])c([H])c([H])c([H])c5n5c4c1n2[C@@]1([H])O[C@]5(C([H])([H])[H])[C@@]([H])(OC([H])([H])[H])[C@@]([H])(N([H])C([H])([H])[H])C1([H])[H])C([H])([H])N([H])C3=O


 37 44  0  0  0  0  0  0  0  0999 V2000
   38.5731   14.2942   -8.1160 C   0  0  0  0  0  0  0  0  0  0  0  0
   39.7374   13.4568   -7.7803 C   0  0  0  0  0  0  0  0  0  0  0  0
   39.8829   13.1195   -6.3326 C   0  0  0  0  0  0  0  0  0  0  0  0
   38.8874   13.3362   -5.5158 O   0  0  0  0  0  0  0  0  0  0  0  0
   37.9817   14.3637   -5.6460 C   0  0  0  0  0  0  0  0  0  0  0  0
   36.8258   13.8426   -4.7670 C   0  0  0  0  0  0  0  0  0  0  0  0
   37.5273   14.4349   -7.0327 C   0  0  0  0  0  0  0  0  0  0  0  0
   38.5641   15.5652   -5.0721 N   0  0  0  0  0  0  0  0  0  0  0  0
   37.9410   16.6295   -4.5562 C   0  0  0  0  0  0  0  0  0  0  0  0
   36.6213   16.9470   -4.4336 C   0  0  0  0  0  0  0  0  0  0  0  0
   36.2386   18.1441   -3.8470 C   0  0  0  0  0  0  0  0  0  0  0  0
   37.1446   19.0580   -3.3668 C   0  0  0  0  0  0  0  0  0  0  0  0
   38.5001   18.7456   -3.4863 C   0  0  0  0  0  0  0  0  0  0  0  0
   38.8495   17.5513   -4.0723 C   0  0  0  0  0  0  0  0  0  0  0  0
   40.1043   17.0184   -4.3078 C   0  0  0  0  0  0  0  0  0  0  0  0
   41.3929   17.4619   -4.0446 C   0  0  0  0  0  0  0  0  0  0  0  0
   41.8358   18.7350   -3.3992 C   0  0  0  0  0  0  0  0  0  0  0  0
   43.2685   18.6685   -3.3613 N   0  0  0  0  0  0  0  0  0  0  0  0
   43.7064   17.4532   -3.9635 C   0  0  0  0  0  0  0  0  0  0  0  0
   44.9044   17.1764   -4.0614 O   0  0  0  0  0  0  0  0  0  0  0  0
   42.5158   16.7313   -4.3742 C   0  0  0  0  0  0  0  0  0  0  0  0
   42.2896   15.5184   -4.9909 C   0  0  0  0  0  0  0  0  0  0  0  0
   43.1187   14.5287   -5.4748 C   0  0  0  0  0  0  0  0  0  0  0  0
   44.4739   14.3632   -5.5178 C   0  0  0  0  0  0  0  0  0  0  0  0
   44.9894   13.2039   -6.0963 C   0  0  0  0  0  0  0  0  0  0  0  0
   44.1887   12.2164   -6.6274 C   0  0  0  0  0  0  0  0  0  0  0  0
   42.8203   12.3858   -6.5831 C   0  0  0  0  0  0  0  0  0  0  0  0
   42.3174   13.5147   -6.0197 C   0  0  0  0  0  0  0  0  0  0  0  0
   41.0469   13.8919   -5.8635 N   0  0  0  0  0  0  0  0  0  0  0  0
   41.0040   15.0792   -5.2525 C   0  0  0  0  0  0  0  0  0  0  0  0
   39.8981   15.8323   -4.9075 C   0  0  0  0  0  0  0  0  0  0  0  0
   43.8933   19.4196   -2.9442 H   0  0  0  0  0  0  0  0  0  0  0  0
   40.3600   15.5588   -8.9388 C   0  0  0  0  0  0  0  0  0  0  0  0
   38.9678   15.6414   -8.5485 N   0  0  0  0  0  0  0  0  0  0  0  0
   38.4369   15.9729   -9.3590 H   0  0  0  0  0  0  0  0  0  0  0  0
   36.7838   15.5389   -7.4198 O   0  0  0  0  0  0  0  0  0  0  0  0
   35.6249   15.2671   -8.0912 C   0  0  0  0  0  0  0  0  0  0  0  0
 33 34  1  0  0  0
 34  1  1  0  0  0
  1  2  1  0  0  0
  2  3  1  0  0  0
  3  4  1  0  0  0
  4  5  1  0  0  0
  5  6  1  0  0  0
  5  7  1  0  0  0
  7 36  1  0  0  0
 36 37  1  0  0  0
  5  8  1  0  0  0
  8  9  1  0  0  0
  9 10  2  0  0  0
 10 11  1  0  0  0
 11 12  2  0  0  0
 12 13  1  0  0  0
 13 14  2  0  0  0
 14 15  1  0  0  0
 15 16  2  0  0  0
 16 17  1  0  0  0
 17 18  1  0  0  0
 18 19  1  0  0  0
 19 20  2  0  0  0
 19 21  1  0  0  0
 21 22  2  0  0  0
 22 23  1  0  0  0
 23 24  2  0  0  0
 24 25  1  0  0  0
 25 26  2  0  0  0
 26 27  1  0  0  0
 27 28  2  0  0  0
 28 29  1  0  0  0
 29 30  1  0  0  0
 30 31  2  0  0  0
  7  1  1  0  0  0
 31  8  1  0  0  0
 29  3  1  0  0  0
 14  9  1  0  0  0
 31 15  1  0  0  0
 21 16  1  0  0  0
 30 22  1  0  0  0
 28 23  1  0  0  0
 34 35  1  0  0  0
 18 32  1  0  0  0
M  END
> <minimizedAffinity>
-5.23573

> <CNNscore>
0.2210020125

> <CNNaffinity>
5.1773538589

> <CNN_VS>
1.1442055702

> <CNNaffinity_variance>
0.2508328259

$$$$
[H]c1c([H])c([H])c2c(c1[H])c1c3c(c4c5c([H])c([H])c([H])c([H])c5n5c4c1n2[C@@]1([H])O[C@]5(C([H])([H])[H])[C@@]([H])(OC([H])([H])[H])[C@@]([H])(N([H])C([H])([H])[H])C1([H])[H])C([H])([H])N([H])C3=O


 37 44  0  0  0  0  0  0  0  0999 V2000
   36.2720   13.1833   -5.9841 C   0  0  0  0  0  0  0  0  0  0  0  0
   34.9346   13.6318   -6.4078 C   0  0  0  0  0  0  0  0  0  0  0  0
   34.9210   14.7778   -7.3655 C   0  0  0  0  0  0  0  0  0  0  0  0
   36.0267   15.1339   -7.9620 O   0  0  0  0  0  0  0  0  0  0  0  0
   37.2806   15.0325   -7.4049 C   0  0  0  0  0  0  0  0  0  0  0  0
   38.1641   15.1046   -8.6675 C   0  0  0  0  0  0  0  0  0  0  0  0
   37.4333   13.7138   -6.7946 C   0  0  0  0  0  0  0  0  0  0  0  0
   37.5010   16.1906   -6.5550 N   0  0  0  0  0  0  0  0  0  0  0  0
   38.6590   16.7581   -6.2026 C   0  0  0  0  0  0  0  0  0  0  0  0
   39.9553   16.4387   -6.4761 C   0  0  0  0  0  0  0  0  0  0  0  0
   40.9905   17.2121   -5.9723 C   0  0  0  0  0  0  0  0  0  0  0  0
   40.7758   18.3185   -5.1872 C   0  0  0  0  0  0  0  0  0  0  0  0
   39.4524   18.6570   -4.8987 C   0  0  0  0  0  0  0  0  0  0  0  0
   38.4468   17.8715   -5.4122 C   0  0  0  0  0  0  0  0  0  0  0  0
   37.0756   17.9911   -5.2722 C   0  0  0  0  0  0  0  0  0  0  0  0
   36.2607   18.8996   -4.6111 C   0  0  0  0  0  0  0  0  0  0  0  0
   36.6485   20.0869   -3.7904 C   0  0  0  0  0  0  0  0  0  0  0  0
   35.4133   20.6787   -3.3633 N   0  0  0  0  0  0  0  0  0  0  0  0
   34.3194   19.9081   -3.8541 C   0  0  0  0  0  0  0  0  0  0  0  0
   33.1509   20.2135   -3.6037 O   0  0  0  0  0  0  0  0  0  0  0  0
   34.8838   18.8141   -4.6236 C   0  0  0  0  0  0  0  0  0  0  0  0
   34.3489   17.7614   -5.3363 C   0  0  0  0  0  0  0  0  0  0  0  0
   33.0606   17.3320   -5.5750 C   0  0  0  0  0  0  0  0  0  0  0  0
   31.8256   17.7883   -5.2108 C   0  0  0  0  0  0  0  0  0  0  0  0
   30.6988   17.0897   -5.6429 C   0  0  0  0  0  0  0  0  0  0  0  0
   30.7781   15.9567   -6.4229 C   0  0  0  0  0  0  0  0  0  0  0  0
   32.0263   15.4976   -6.7893 C   0  0  0  0  0  0  0  0  0  0  0  0
   33.1244   16.1776   -6.3689 C   0  0  0  0  0  0  0  0  0  0  0  0
   34.4156   15.9281   -6.5958 N   0  0  0  0  0  0  0  0  0  0  0  0
   35.1637   16.8570   -5.9938 C   0  0  0  0  0  0  0  0  0  0  0  0
   36.5405   16.9705   -5.9657 C   0  0  0  0  0  0  0  0  0  0  0  0
   35.3423   21.5579   -2.7712 H   0  0  0  0  0  0  0  0  0  0  0  0
   35.2548   13.8291   -3.9797 C   0  0  0  0  0  0  0  0  0  0  0  0
   36.5304   13.4768   -4.5682 N   0  0  0  0  0  0  0  0  0  0  0  0
   36.8985   12.6718   -4.0534 H   0  0  0  0  0  0  0  0  0  0  0  0
   38.5392   13.4918   -5.9889 O   0  0  0  0  0  0  0  0  0  0  0  0
   39.5702   12.8102   -6.5723 C   0  0  0  0  0  0  0  0  0  0  0  0
 33 34  1  0  0  0
 34  1  1  0  0  0
  1  2  1  0  0  0
  2  3  1  0  0  0
  3  4  1  0  0  0
  4  5  1  0  0  0
  5  6  1  0  0  0
  5  7  1  0  0  0
  7 36  1  0  0  0
 36 37  1  0  0  0
  5  8  1  0  0  0
  8  9  1  0  0  0
  9 10  2  0  0  0
 10 11  1  0  0  0
 11 12  2  0  0  0
 12 13  1  0  0  0
 13 14  2  0  0  0
 14 15  1  0  0  0
 15 16  2  0  0  0
 16 17  1  0  0  0
 17 18  1  0  0  0
 18 19  1  0  0  0
 19 20  2  0  0  0
 19 21  1  0  0  0
 21 22  2  0  0  0
 22 23  1  0  0  0
 23 24  2  0  0  0
 24 25  1  0  0  0
 25 26  2  0  0  0
 26 27  1  0  0  0
 27 28  2  0  0  0
 28 29  1  0  0  0
 29 30  1  0  0  0
 30 31  2  0  0  0
  7  1  1  0  0  0
 31  8  1  0  0  0
 29  3  1  0  0  0
 14  9  1  0  0  0
 31 15  1  0  0  0
 21 16  1  0  0  0
 30 22  1  0  0  0
 28 23  1  0  0  0
 34 35  1  0  0  0
 18 32  1  0  0  0
M  END
> <minimizedAffinity>
-5.96567

> <CNNscore>
0.1870667636

> <CNNaffinity>
5.4268441200

> <CNN_VS>
1.0151821375

> <CNNaffinity_variance>
0.1040936261

$$$$
[H]c1c([H])c([H])c2c(c1[H])c1c3c(c4c5c([H])c([H])c([H])c([H])c5n5c4c1n2[C@@]1([H])O[C@]5(C([H])([H])[H])[C@@]([H])(OC([H])([H])[H])[C@@]([H])(N([H])C([H])([H])[H])C1([H])[H])C([H])([H])N([H])C3=O


 37 44  0  0  0  0  0  0  0  0999 V2000
   43.7746   15.8028  -11.3800 C   0  0  0  0  0  0  0  0  0  0  0  0
   43.9926   16.6764  -10.2144 C   0  0  0  0  0  0  0  0  0  0  0  0
   45.3366   16.5593   -9.5733 C   0  0  0  0  0  0  0  0  0  0  0  0
   46.2966   15.9303  -10.1962 O   0  0  0  0  0  0  0  0  0  0  0  0
   46.1084   14.8583  -11.0378 C   0  0  0  0  0  0  0  0  0  0  0  0
   47.4364   14.8711  -11.8228 C   0  0  0  0  0  0  0  0  0  0  0  0
   45.0117   15.1521  -11.9573 C   0  0  0  0  0  0  0  0  0  0  0  0
   45.9984   13.6543  -10.2311 N   0  0  0  0  0  0  0  0  0  0  0  0
   46.2735   12.3922  -10.5750 C   0  0  0  0  0  0  0  0  0  0  0  0
   46.6924   11.8329  -11.7451 C   0  0  0  0  0  0  0  0  0  0  0  0
   46.9053   10.4653  -11.8331 C   0  0  0  0  0  0  0  0  0  0  0  0
   46.7113    9.6144  -10.7725 C   0  0  0  0  0  0  0  0  0  0  0  0
   46.2818   10.1739   -9.5676 C   0  0  0  0  0  0  0  0  0  0  0  0
   46.0791   11.5332   -9.5102 C   0  0  0  0  0  0  0  0  0  0  0  0
   45.6584   12.3181   -8.4515 C   0  0  0  0  0  0  0  0  0  0  0  0
   45.3180   12.0399   -7.1350 C   0  0  0  0  0  0  0  0  0  0  0  0
   45.2902   10.7229   -6.4291 C   0  0  0  0  0  0  0  0  0  0  0  0
   44.8868   11.0164   -5.0839 N   0  0  0  0  0  0  0  0  0  0  0  0
   44.6490   12.4153   -4.9509 C   0  0  0  0  0  0  0  0  0  0  0  0
   44.2764   12.9081   -3.8833 O   0  0  0  0  0  0  0  0  0  0  0  0
   44.9273   13.0167   -6.2425 C   0  0  0  0  0  0  0  0  0  0  0  0
   44.8893   14.3052   -6.7333 C   0  0  0  0  0  0  0  0  0  0  0  0
   44.5496   15.5227   -6.1825 C   0  0  0  0  0  0  0  0  0  0  0  0
   44.1352   15.9209   -4.9434 C   0  0  0  0  0  0  0  0  0  0  0  0
   43.8733   17.2733   -4.7268 C   0  0  0  0  0  0  0  0  0  0  0  0
   44.0150   18.2268   -5.7113 C   0  0  0  0  0  0  0  0  0  0  0  0
   44.4334   17.8223   -6.9620 C   0  0  0  0  0  0  0  0  0  0  0  0
   44.6887   16.5051   -7.1737 C   0  0  0  0  0  0  0  0  0  0  0  0
   45.1001   15.8879   -8.2831 N   0  0  0  0  0  0  0  0  0  0  0  0
   45.2286   14.5794   -8.0462 C   0  0  0  0  0  0  0  0  0  0  0  0
   45.6194   13.5796   -8.9162 C   0  0  0  0  0  0  0  0  0  0  0  0
   44.7855   10.2896   -4.3157 H   0  0  0  0  0  0  0  0  0  0  0  0
   41.9961   15.2079   -9.9829 C   0  0  0  0  0  0  0  0  0  0  0  0
   42.7898   14.7486  -11.1038 N   0  0  0  0  0  0  0  0  0  0  0  0
   42.1527   14.5810  -11.8878 H   0  0  0  0  0  0  0  0  0  0  0  0
   44.5187   14.1172  -12.7367 O   0  0  0  0  0  0  0  0  0  0  0  0
   44.6225   14.2918  -14.0882 C   0  0  0  0  0  0  0  0  0  0  0  0
 33 34  1  0  0  0
 34  1  1  0  0  0
  1  2  1  0  0  0
  2  3  1  0  0  0
  3  4  1  0  0  0
  4  5  1  0  0  0
  5  6  1  0  0  0
  5  7  1  0  0  0
  7 36  1  0  0  0
 36 37  1  0  0  0
  5  8  1  0  0  0
  8  9  1  0  0  0
  9 10  2  0  0  0
 10 11  1  0  0  0
 11 12  2  0  0  0
 12 13  1  0  0  0
 13 14  2  0  0  0
 14 15  1  0  0  0
 15 16  2  0  0  0
 16 17  1  0  0  0
 17 18  1  0  0  0
 18 19  1  0  0  0
 19 20  2  0  0  0
 19 21  1  0  0  0
 21 22  2  0  0  0
 22 23  1  0  0  0
 23 24  2  0  0  0
 24 25  1  0  0  0
 25 26  2  0  0  0
 26 27  1  0  0  0
 27 28  2  0  0  0
 28 29  1  0  0  0
 29 30  1  0  0  0
 30 31  2  0  0  0
  7  1  1  0  0  0
 31  8  1  0  0  0
 29  3  1  0  0  0
 14  9  1  0  0  0
 31 15  1  0  0  0
 21 16  1  0  0  0
 30 22  1  0  0  0
 28 23  1  0  0  0
 34 35  1  0  0  0
 18 32  1  0  0  0
M  END
> <minimizedAffinity>
-5.20056

> <CNNscore>
0.1782598794

> <CNNaffinity>
5.1227355003

> <CNN_VS>
0.9131782055

> <CNNaffinity_variance>
0.1751436889

$$$$
[H]c1c([H])c([H])c2c(c1[H])c1c3c(c4c5c([H])c([H])c([H])c([H])c5n5c4c1n2[C@@]1([H])O[C@]5(C([H])([H])[H])[C@@]([H])(OC([H])([H])[H])[C@@]([H])(N([H])C([H])([H])[H])C1([H])[H])C([H])([H])N([H])C3=O


 37 44  0  0  0  0  0  0  0  0999 V2000
   38.0621   18.0096   -8.0582 C   0  0  0  0  0  0  0  0  0  0  0  0
   37.1010   17.7233   -6.9795 C   0  0  0  0  0  0  0  0  0  0  0  0
   36.6761   16.2958   -6.8674 C   0  0  0  0  0  0  0  0  0  0  0  0
   37.3386   15.3725   -7.5106 O   0  0  0  0  0  0  0  0  0  0  0  0
   37.9576   15.5601   -8.7249 C   0  0  0  0  0  0  0  0  0  0  0  0
   38.9397   14.3703   -8.7351 C   0  0  0  0  0  0  0  0  0  0  0  0
   38.7218   16.8049   -8.6909 C   0  0  0  0  0  0  0  0  0  0  0  0
   36.9631   15.4162   -9.7749 N   0  0  0  0  0  0  0  0  0  0  0  0
   37.1423   15.0547  -11.0494 C   0  0  0  0  0  0  0  0  0  0  0  0
   38.2610   14.7507  -11.7658 C   0  0  0  0  0  0  0  0  0  0  0  0
   38.1643   14.4014  -13.1045 C   0  0  0  0  0  0  0  0  0  0  0  0
   36.9648   14.3426  -13.7711 C   0  0  0  0  0  0  0  0  0  0  0  0
   35.8104   14.6520  -13.0492 C   0  0  0  0  0  0  0  0  0  0  0  0
   35.9374   14.9948  -11.7233 C   0  0  0  0  0  0  0  0  0  0  0  0
   34.9626   15.3420  -10.8049 C   0  0  0  0  0  0  0  0  0  0  0  0
   33.5811   15.4539  -10.8778 C   0  0  0  0  0  0  0  0  0  0  0  0
   32.6801   15.2312  -12.0492 C   0  0  0  0  0  0  0  0  0  0  0  0
   31.3511   15.4647  -11.5616 N   0  0  0  0  0  0  0  0  0  0  0  0
   31.4051   15.8356  -10.1865 C   0  0  0  0  0  0  0  0  0  0  0  0
   30.3831   16.1015   -9.5492 O   0  0  0  0  0  0  0  0  0  0  0  0
   32.8036   15.8172   -9.7977 C   0  0  0  0  0  0  0  0  0  0  0  0
   33.4799   16.0701   -8.6224 C   0  0  0  0  0  0  0  0  0  0  0  0
   33.0816   16.4600   -7.3613 C   0  0  0  0  0  0  0  0  0  0  0  0
   31.8708   16.7315   -6.7904 C   0  0  0  0  0  0  0  0  0  0  0  0
   31.8320   17.1086   -5.4485 C   0  0  0  0  0  0  0  0  0  0  0  0
   32.9651   17.2192   -4.6725 C   0  0  0  0  0  0  0  0  0  0  0  0
   34.1869   16.9448   -5.2512 C   0  0  0  0  0  0  0  0  0  0  0  0
   34.2254   16.5774   -6.5583 C   0  0  0  0  0  0  0  0  0  0  0  0
   35.2746   16.2654   -7.3216 N   0  0  0  0  0  0  0  0  0  0  0  0
   34.8571   15.9583   -8.5529 C   0  0  0  0  0  0  0  0  0  0  0  0
   35.6092   15.5890   -9.6517 C   0  0  0  0  0  0  0  0  0  0  0  0
   30.4712   15.3713  -12.1494 H   0  0  0  0  0  0  0  0  0  0  0  0
   37.3711   20.1721   -8.6195 C   0  0  0  0  0  0  0  0  0  0  0  0
   37.4661   18.8197   -9.1287 N   0  0  0  0  0  0  0  0  0  0  0  0
   38.0395   18.8464   -9.9767 H   0  0  0  0  0  0  0  0  0  0  0  0
   39.2366   17.2873   -9.8842 O   0  0  0  0  0  0  0  0  0  0  0  0
   40.4204   16.7345  -10.2853 C   0  0  0  0  0  0  0  0  0  0  0  0
 33 34  1  0  0  0
 34  1  1  0  0  0
  1  2  1  0  0  0
  2  3  1  0  0  0
  3  4  1  0  0  0
  4  5  1  0  0  0
  5  6  1  0  0  0
  5  7  1  0  0  0
  7 36  1  0  0  0
 36 37  1  0  0  0
  5  8  1  0  0  0
  8  9  1  0  0  0
  9 10  2  0  0  0
 10 11  1  0  0  0
 11 12  2  0  0  0
 12 13  1  0  0  0
 13 14  2  0  0  0
 14 15  1  0  0  0
 15 16  2  0  0  0
 16 17  1  0  0  0
 17 18  1  0  0  0
 18 19  1  0  0  0
 19 20  2  0  0  0
 19 21  1  0  0  0
 21 22  2  0  0  0
 22 23  1  0  0  0
 23 24  2  0  0  0
 24 25  1  0  0  0
 25 26  2  0  0  0
 26 27  1  0  0  0
 27 28  2  0  0  0
 28 29  1  0  0  0
 29 30  1  0  0  0
 30 31  2  0  0  0
  7  1  1  0  0  0
 31  8  1  0  0  0
 29  3  1  0  0  0
 14  9  1  0  0  0
 31 15  1  0  0  0
 21 16  1  0  0  0
 30 22  1  0  0  0
 28 23  1  0  0  0
 34 35  1  0  0  0
 18 32  1  0  0  0
M  END
> <minimizedAffinity>
-7.99989

> <CNNscore>
0.1107884794

> <CNNaffinity>
5.6466355324

> <CNN_VS>
0.6255821586

> <CNNaffinity_variance>
0.3702708483

$$$$
[H]c1c([H])c([H])c2c(c1[H])c1c3c(c4c5c([H])c([H])c([H])c([H])c5n5c4c1n2[C@@]1([H])O[C@]5(C([H])([H])[H])[C@@]([H])(OC([H])([H])[H])[C@@]([H])(N([H])C([H])([H])[H])C1([H])[H])C([H])([H])N([H])C3=O


 37 44  0  0  0  0  0  0  0  0999 V2000
   35.4991   16.7954   -7.3422 C   0  0  0  0  0  0  0  0  0  0  0  0
   35.1874   16.0251   -8.5583 C   0  0  0  0  0  0  0  0  0  0  0  0
   35.9063   14.7224   -8.6886 C   0  0  0  0  0  0  0  0  0  0  0  0
   36.5320   14.2240   -7.6565 O   0  0  0  0  0  0  0  0  0  0  0  0
   37.1414   14.9743   -6.6774 C   0  0  0  0  0  0  0  0  0  0  0  0
   37.2462   13.9358   -5.5413 C   0  0  0  0  0  0  0  0  0  0  0  0
   36.2408   16.0456   -6.2583 C   0  0  0  0  0  0  0  0  0  0  0  0
   38.4619   15.3584   -7.1477 N   0  0  0  0  0  0  0  0  0  0  0  0
   39.5485   15.6580   -6.4291 C   0  0  0  0  0  0  0  0  0  0  0  0
   39.7644   15.7361   -5.0857 C   0  0  0  0  0  0  0  0  0  0  0  0
   41.0155   16.0781   -4.5943 C   0  0  0  0  0  0  0  0  0  0  0  0
   42.0845   16.3517   -5.4121 C   0  0  0  0  0  0  0  0  0  0  0  0
   41.8772   16.2758   -6.7908 C   0  0  0  0  0  0  0  0  0  0  0  0
   40.6261   15.9341   -7.2488 C   0  0  0  0  0  0  0  0  0  0  0  0
   40.1699   15.7959   -8.5476 C   0  0  0  0  0  0  0  0  0  0  0  0
   40.7742   15.9321   -9.7896 C   0  0  0  0  0  0  0  0  0  0  0  0
   42.1846   16.3057  -10.1133 C   0  0  0  0  0  0  0  0  0  0  0  0
   42.2707   16.2771  -11.5452 N   0  0  0  0  0  0  0  0  0  0  0  0
   41.0000   15.9364  -12.0935 C   0  0  0  0  0  0  0  0  0  0  0  0
   40.8214   15.8631  -13.3117 O   0  0  0  0  0  0  0  0  0  0  0  0
   40.0981   15.7293  -10.9750 C   0  0  0  0  0  0  0  0  0  0  0  0
   38.7684   15.3807  -10.8618 C   0  0  0  0  0  0  0  0  0  0  0  0
   37.7743   15.1127  -11.7789 C   0  0  0  0  0  0  0  0  0  0  0  0
   37.7272   15.0767  -13.1436 C   0  0  0  0  0  0  0  0  0  0  0  0
   36.5199   14.7578  -13.7642 C   0  0  0  0  0  0  0  0  0  0  0  0
   35.3705   14.4768  -13.0584 C   0  0  0  0  0  0  0  0  0  0  0  0
   35.4204   14.5139  -11.6803 C   0  0  0  0  0  0  0  0  0  0  0  0
   36.5960   14.8245  -11.0750 C   0  0  0  0  0  0  0  0  0  0  0  0
   36.8824   14.9185   -9.7750 N   0  0  0  0  0  0  0  0  0  0  0  0
   38.1685   15.2462   -9.6223 C   0  0  0  0  0  0  0  0  0  0  0  0
   38.8729   15.4529   -8.4516 C   0  0  0  0  0  0  0  0  0  0  0  0
   43.1549   16.4815  -12.0973 H   0  0  0  0  0  0  0  0  0  0  0  0
   35.3408   19.1278   -7.4038 C   0  0  0  0  0  0  0  0  0  0  0  0
   36.2469   18.0235   -7.6425 N   0  0  0  0  0  0  0  0  0  0  0  0
   37.0621   18.1538   -7.0367 H   0  0  0  0  0  0  0  0  0  0  0  0
   36.7496   17.0439   -5.4422 O   0  0  0  0  0  0  0  0  0  0  0  0
   36.1911   17.1344   -4.1981 C   0  0  0  0  0  0  0  0  0  0  0  0
 33 34  1  0  0  0
 34  1  1  0  0  0
  1  2  1  0  0  0
  2  3  1  0  0  0
  3  4  1  0  0  0
  4  5  1  0  0  0
  5  6  1  0  0  0
  5  7  1  0  0  0
  7 36  1  0  0  0
 36 37  1  0  0  0
  5  8  1  0  0  0
  8  9  1  0  0  0
  9 10  2  0  0  0
 10 11  1  0  0  0
 11 12  2  0  0  0
 12 13  1  0  0  0
 13 14  2  0  0  0
 14 15  1  0  0  0
 15 16  2  0  0  0
 16 17  1  0  0  0
 17 18  1  0  0  0
 18 19  1  0  0  0
 19 20  2  0  0  0
 19 21  1  0  0  0
 21 22  2  0  0  0
 22 23  1  0  0  0
 23 24  2  0  0  0
 24 25  1  0  0  0
 25 26  2  0  0  0
 26 27  1  0  0  0
 27 28  2  0  0  0
 28 29  1  0  0  0
 29 30  1  0  0  0
 30 31  2  0  0  0
  7  1  1  0  0  0
 31  8  1  0  0  0
 29  3  1  0  0  0
 14  9  1  0  0  0
 31 15  1  0  0  0
 21 16  1  0  0  0
 30 22  1  0  0  0
 28 23  1  0  0  0
 34 35  1  0  0  0
 18 32  1  0  0  0
M  END
> <minimizedAffinity>
-7.78937

> <CNNscore>
0.1081272513

> <CNNaffinity>
5.3503274918

> <CNN_VS>
0.5785161853

> <CNNaffinity_variance>
0.3872374892

$$$$
[H]c1c([H])c([H])c2c(c1[H])c1c3c(c4c5c([H])c([H])c([H])c([H])c5n5c4c1n2[C@@]1([H])O[C@]5(C([H])([H])[H])[C@@]([H])(OC([H])([H])[H])[C@@]([H])(N([H])C([H])([H])[H])C1([H])[H])C([H])([H])N([H])C3=O


 37 44  0  0  0  0  0  0  0  0999 V2000
   35.2663   19.1158   -4.0604 C   0  0  0  0  0  0  0  0  0  0  0  0
   33.8342   18.7781   -3.9918 C   0  0  0  0  0  0  0  0  0  0  0  0
   33.5222   17.3178   -4.0222 C   0  0  0  0  0  0  0  0  0  0  0  0
   34.4802   16.4489   -3.8428 O   0  0  0  0  0  0  0  0  0  0  0  0
   35.7852   16.6349   -4.2371 C   0  0  0  0  0  0  0  0  0  0  0  0
   36.5033   15.5867   -3.3620 C   0  0  0  0  0  0  0  0  0  0  0  0
   36.2260   17.9689   -3.8361 C   0  0  0  0  0  0  0  0  0  0  0  0
   35.8933   16.2916   -5.6452 N   0  0  0  0  0  0  0  0  0  0  0  0
   36.9677   15.8726   -6.3213 C   0  0  0  0  0  0  0  0  0  0  0  0
   38.2628   15.6713   -5.9479 C   0  0  0  0  0  0  0  0  0  0  0  0
   39.1979   15.2238   -6.8693 C   0  0  0  0  0  0  0  0  0  0  0  0
   38.8817   14.9633   -8.1804 C   0  0  0  0  0  0  0  0  0  0  0  0
   37.5583   15.1655   -8.5767 C   0  0  0  0  0  0  0  0  0  0  0  0
   36.6534   15.6098   -7.6410 C   0  0  0  0  0  0  0  0  0  0  0  0
   35.3049   15.8862   -7.7801 C   0  0  0  0  0  0  0  0  0  0  0  0
   34.4217   15.8102   -8.8481 C   0  0  0  0  0  0  0  0  0  0  0  0
   34.6855   15.3932  -10.2588 C   0  0  0  0  0  0  0  0  0  0  0  0
   33.4199   15.4819  -10.9287 N   0  0  0  0  0  0  0  0  0  0  0  0
   32.4283   15.9475  -10.0169 C   0  0  0  0  0  0  0  0  0  0  0  0
   31.2583   16.1186  -10.3679 O   0  0  0  0  0  0  0  0  0  0  0  0
   33.0865   16.1394   -8.7374 C   0  0  0  0  0  0  0  0  0  0  0  0
   32.6669   16.5569   -7.4915 C   0  0  0  0  0  0  0  0  0  0  0  0
   31.4533   16.9742   -6.9875 C   0  0  0  0  0  0  0  0  0  0  0  0
   30.2045   17.1215   -7.5210 C   0  0  0  0  0  0  0  0  0  0  0  0
   29.1746   17.5789   -6.6998 C   0  0  0  0  0  0  0  0  0  0  0  0
   29.3632   17.8893   -5.3707 C   0  0  0  0  0  0  0  0  0  0  0  0
   30.6252   17.7399   -4.8341 C   0  0  0  0  0  0  0  0  0  0  0  0
   31.6290   17.2944   -5.6334 C   0  0  0  0  0  0  0  0  0  0  0  0
   32.9121   17.0730   -5.3410 N   0  0  0  0  0  0  0  0  0  0  0  0
   33.5498   16.6322   -6.4290 C   0  0  0  0  0  0  0  0  0  0  0  0
   34.8818   16.2925   -6.5698 C   0  0  0  0  0  0  0  0  0  0  0  0
   33.2628   15.2344  -11.9498 H   0  0  0  0  0  0  0  0  0  0  0  0
   34.4305   20.4545   -5.7863 C   0  0  0  0  0  0  0  0  0  0  0  0
   35.6202   19.7671   -5.3285 N   0  0  0  0  0  0  0  0  0  0  0  0
   36.3625   20.4651   -5.2262 H   0  0  0  0  0  0  0  0  0  0  0  0
   37.4333   18.4341   -4.3337 O   0  0  0  0  0  0  0  0  0  0  0  0
   38.4204   18.6278   -3.4085 C   0  0  0  0  0  0  0  0  0  0  0  0
 33 34  1  0  0  0
 34  1  1  0  0  0
  1  2  1  0  0  0
  2  3  1  0  0  0
  3  4  1  0  0  0
  4  5  1  0  0  0
  5  6  1  0  0  0
  5  7  1  0  0  0
  7 36  1  0  0  0
 36 37  1  0  0  0
  5  8  1  0  0  0
  8  9  1  0  0  0
  9 10  2  0  0  0
 10 11  1  0  0  0
 11 12  2  0  0  0
 12 13  1  0  0  0
 13 14  2  0  0  0
 14 15  1  0  0  0
 15 16  2  0  0  0
 16 17  1  0  0  0
 17 18  1  0  0  0
 18 19  1  0  0  0
 19 20  2  0  0  0
 19 21  1  0  0  0
 21 22  2  0  0  0
 22 23  1  0  0  0
 23 24  2  0  0  0
 24 25  1  0  0  0
 25 26  2  0  0  0
 26 27  1  0  0  0
 27 28  2  0  0  0
 28 29  1  0  0  0
 29 30  1  0  0  0
 30 31  2  0  0  0
  7  1  1  0  0  0
 31  8  1  0  0  0
 29  3  1  0  0  0
 14  9  1  0  0  0
 31 15  1  0  0  0
 21 16  1  0  0  0
 30 22  1  0  0  0
 28 23  1  0  0  0
 34 35  1  0  0  0
 18 32  1  0  0  0
M  END
> <minimizedAffinity>
-6.88287

> <CNNscore>
0.1048738211

> <CNNaffinity>
5.2927417755

> <CNN_VS>
0.5550700426

> <CNNaffinity_variance>
0.3462100923

$$$$
[H]c1c([H])c([H])c2c(c1[H])c1c3c(c4c5c([H])c([H])c([H])c([H])c5n5c4c1n2[C@@]1([H])O[C@]5(C([H])([H])[H])[C@@]([H])(OC([H])([H])[H])[C@@]([H])(N([H])C([H])([H])[H])C1([H])[H])C([H])([H])N([H])C3=O


 37 44  0  0  0  0  0  0  0  0999 V2000
   35.2591   18.8938   -6.1989 C   0  0  0  0  0  0  0  0  0  0  0  0
   33.9922   18.2936   -5.7473 C   0  0  0  0  0  0  0  0  0  0  0  0
   33.9492   16.8008   -5.7752 C   0  0  0  0  0  0  0  0  0  0  0  0
   35.0565   16.1256   -5.9273 O   0  0  0  0  0  0  0  0  0  0  0  0
   36.1365   16.5551   -6.6637 C   0  0  0  0  0  0  0  0  0  0  0  0
   37.2515   15.6547   -6.0926 C   0  0  0  0  0  0  0  0  0  0  0  0
   36.4304   17.9456   -6.3252 C   0  0  0  0  0  0  0  0  0  0  0  0
   35.8909   16.2465   -8.0625 N   0  0  0  0  0  0  0  0  0  0  0  0
   36.7798   16.0400   -9.0394 C   0  0  0  0  0  0  0  0  0  0  0  0
   38.1418   16.0827   -9.0615 C   0  0  0  0  0  0  0  0  0  0  0  0
   38.8336   15.8236  -10.2353 C   0  0  0  0  0  0  0  0  0  0  0  0
   38.2025   15.5163  -11.4160 C   0  0  0  0  0  0  0  0  0  0  0  0
   36.8072   15.4695  -11.4078 C   0  0  0  0  0  0  0  0  0  0  0  0
   36.1484   15.7309  -10.2290 C   0  0  0  0  0  0  0  0  0  0  0  0
   34.7908   15.7506   -9.9631 C   0  0  0  0  0  0  0  0  0  0  0  0
   33.6641   15.5169  -10.7392 C   0  0  0  0  0  0  0  0  0  0  0  0
   33.5774   15.1650  -12.1891 C   0  0  0  0  0  0  0  0  0  0  0  0
   32.1772   15.0191  -12.4660 N   0  0  0  0  0  0  0  0  0  0  0  0
   31.4263   15.2854  -11.2842 C   0  0  0  0  0  0  0  0  0  0  0  0
   30.1938   15.2364  -11.2780 O   0  0  0  0  0  0  0  0  0  0  0  0
   32.3821   15.5895  -10.2349 C   0  0  0  0  0  0  0  0  0  0  0  0
   32.2744   15.9137   -8.8985 C   0  0  0  0  0  0  0  0  0  0  0  0
   31.2051   16.0934   -8.0469 C   0  0  0  0  0  0  0  0  0  0  0  0
   29.8499   16.0074   -8.1945 C   0  0  0  0  0  0  0  0  0  0  0  0
   29.0381   16.2590   -7.0890 C   0  0  0  0  0  0  0  0  0  0  0  0
   29.5456   16.5913   -5.8519 C   0  0  0  0  0  0  0  0  0  0  0  0
   30.9145   16.6778   -5.7052 C   0  0  0  0  0  0  0  0  0  0  0  0
   31.7060   16.4328   -6.7816 C   0  0  0  0  0  0  0  0  0  0  0  0
   33.0367   16.4539   -6.8789 N   0  0  0  0  0  0  0  0  0  0  0  0
   33.3994   16.1467   -8.1275 C   0  0  0  0  0  0  0  0  0  0  0  0
   34.6715   16.0634   -8.6605 C   0  0  0  0  0  0  0  0  0  0  0  0
   31.7775   14.7526  -13.4135 H   0  0  0  0  0  0  0  0  0  0  0  0
   34.2372   20.7349   -7.2163 C   0  0  0  0  0  0  0  0  0  0  0  0
   35.1088   19.6074   -7.4740 N   0  0  0  0  0  0  0  0  0  0  0  0
   35.9944   19.9750   -7.8335 H   0  0  0  0  0  0  0  0  0  0  0  0
   37.3390   18.6316   -7.1160 O   0  0  0  0  0  0  0  0  0  0  0  0
   38.5242   18.9517   -6.5154 C   0  0  0  0  0  0  0  0  0  0  0  0
 33 34  1  0  0  0
 34  1  1  0  0  0
  1  2  1  0  0  0
  2  3  1  0  0  0
  3  4  1  0  0  0
  4  5  1  0  0  0
  5  6  1  0  0  0
  5  7  1  0  0  0
  7 36  1  0  0  0
 36 37  1  0  0  0
  5  8  1  0  0  0
  8  9  1  0  0  0
  9 10  2  0  0  0
 10 11  1  0  0  0
 11 12  2  0  0  0
 12 13  1  0  0  0
 13 14  2  0  0  0
 14 15  1  0  0  0
 15 16  2  0  0  0
 16 17  1  0  0  0
 17 18  1  0  0  0
 18 19  1  0  0  0
 19 20  2  0  0  0
 19 21  1  0  0  0
 21 22  2  0  0  0
 22 23  1  0  0  0
 23 24  2  0  0  0
 24 25  1  0  0  0
 25 26  2  0  0  0
 26 27  1  0  0  0
 27 28  2  0  0  0
 28 29  1  0  0  0
 29 30  1  0  0  0
 30 31  2  0  0  0
  7  1  1  0  0  0
 31  8  1  0  0  0
 29  3  1  0  0  0
 14  9  1  0  0  0
 31 15  1  0  0  0
 21 16  1  0  0  0
 30 22  1  0  0  0
 28 23  1  0  0  0
 34 35  1  0  0  0
 18 32  1  0  0  0
M  END
> <minimizedAffinity>
-8.04579

> <CNNscore>
0.1015981957

> <CNNaffinity>
5.5168638229

> <CNN_VS>
0.5605034232

> <CNNaffinity_variance>
0.6188042760

$$$$
[H]c1nc(N([H])c2c([H])c([H])c(N3C([H])([H])C([H])([H])C([H])(N4C([H])([H])C([H])([H])N(C([H])([H])[H])C([H])([H])C4([H])[H])C([H])([H])C3([H])[H])c([H])c2OC([H])([H])[H])nc(N([H])c2c([H])c([H])c([H])c([H])c2S(=O)(=O)C([H])(C([H])([H])[H])C([H])([H])[H])c1Cl


 44 48  0  0  0  0  0  0  0  0999 V2000
   34.2723   14.7094  -13.6459 N   0  0  0  0  0  0  0  0  0  0  0  0
   33.4582   15.3465  -13.9660 H   0  0  0  0  0  0  0  0  0  0  0  0
   34.5159   13.5585  -14.4413 C   0  0  0  0  0  0  0  0  0  0  0  0
   33.6022   12.8621  -15.1221 N   0  0  0  0  0  0  0  0  0  0  0  0
   33.9017   11.7833  -15.8561 C   0  0  0  0  0  0  0  0  0  0  0  0
   35.2035   11.3467  -15.9326 C   0  0  0  0  0  0  0  0  0  0  0  0
   35.6163    9.9299  -16.8933 Cl  0  0  0  0  0  0  0  0  0  0  0  0
   36.1880   12.0648  -15.2227 C   0  0  0  0  0  0  0  0  0  0  0  0
   35.7893   13.1267  -14.5196 N   0  0  0  0  0  0  0  0  0  0  0  0
   37.5085   11.5998  -15.3191 N   0  0  0  0  0  0  0  0  0  0  0  0
   37.8218   10.9823  -14.4996 H   0  0  0  0  0  0  0  0  0  0  0  0
   38.4965   11.7960  -16.2958 C   0  0  0  0  0  0  0  0  0  0  0  0
   38.4570   11.0764  -17.4713 C   0  0  0  0  0  0  0  0  0  0  0  0
   39.4370   11.2594  -18.4555 C   0  0  0  0  0  0  0  0  0  0  0  0
   40.4347   12.1612  -18.2365 C   0  0  0  0  0  0  0  0  0  0  0  0
   40.4713   12.8782  -17.0620 C   0  0  0  0  0  0  0  0  0  0  0  0
   39.5259   12.7194  -16.0827 C   0  0  0  0  0  0  0  0  0  0  0  0
   39.5851   13.6212  -14.6255 S   0  0  0  0  0  0  0  0  0  0  0  0
   38.7670   12.9326  -13.5622 O   0  0  0  0  0  0  0  0  0  0  0  0
   39.0906   15.0359  -14.7422 O   0  0  0  0  0  0  0  0  0  0  0  0
   41.2356   13.7406  -13.9622 C   0  0  0  0  0  0  0  0  0  0  0  0
   42.2464   13.2904  -14.9664 C   0  0  0  0  0  0  0  0  0  0  0  0
   41.5209   15.0520  -13.3098 C   0  0  0  0  0  0  0  0  0  0  0  0
   34.1775   15.3806  -11.3410 C   0  0  0  0  0  0  0  0  0  0  0  0
   34.7643   15.8055  -10.1631 C   0  0  0  0  0  0  0  0  0  0  0  0
   36.1222   16.0106  -10.0606 C   0  0  0  0  0  0  0  0  0  0  0  0
   36.8608   15.7693  -11.1935 C   0  0  0  0  0  0  0  0  0  0  0  0
   36.2996   15.3394  -12.4000 C   0  0  0  0  0  0  0  0  0  0  0  0
   34.9458   15.1369  -12.4961 C   0  0  0  0  0  0  0  0  0  0  0  0
   36.7155   16.4431   -8.8333 N   0  0  0  0  0  0  0  0  0  0  0  0
   35.9625   16.3083   -7.6337 C   0  0  0  0  0  0  0  0  0  0  0  0
   36.7366   16.4386   -6.3520 C   0  0  0  0  0  0  0  0  0  0  0  0
   37.7381   17.5440   -6.3459 C   0  0  0  0  0  0  0  0  0  0  0  0
   38.0491   18.0689   -7.7333 C   0  0  0  0  0  0  0  0  0  0  0  0
   38.0413   17.0113   -8.7843 C   0  0  0  0  0  0  0  0  0  0  0  0
   38.9457   17.3247   -5.6550 N   0  0  0  0  0  0  0  0  0  0  0  0
   39.2981   16.0204   -5.2758 C   0  0  0  0  0  0  0  0  0  0  0  0
   40.4145   16.0740   -4.2291 C   0  0  0  0  0  0  0  0  0  0  0  0
   41.3938   17.0451   -4.6769 N   0  0  0  0  0  0  0  0  0  0  0  0
   42.1642   16.6248   -5.8034 C   0  0  0  0  0  0  0  0  0  0  0  0
   40.8822   18.3761   -4.7395 C   0  0  0  0  0  0  0  0  0  0  0  0
   39.3559   18.3233   -4.7207 C   0  0  0  0  0  0  0  0  0  0  0  0
   32.0015   15.8692  -10.4331 C   0  0  0  0  0  0  0  0  0  0  0  0
   32.8042   15.1941  -11.3744 O   0  0  0  0  0  0  0  0  0  0  0  0
 43 44  1  0  0  0
 44 24  1  0  0  0
 24 25  2  0  0  0
 25 26  1  0  0  0
 26 27  2  0  0  0
 27 28  1  0  0  0
 28 29  2  0  0  0
 29  1  1  0  0  0
  1  3  1  0  0  0
  3  4  2  0  0  0
  4  5  1  0  0  0
  5  6  2  0  0  0
  6  7  1  0  0  0
  6  8  1  0  0  0
  8 10  1  0  0  0
 10 12  1  0  0  0
 12 13  2  0  0  0
 13 14  1  0  0  0
 14 15  2  0  0  0
 15 16  1  0  0  0
 16 17  2  0  0  0
 17 18  1  0  0  0
 18 19  2  0  0  0
 18 20  2  0  0  0
 18 21  1  0  0  0
 21 22  1  0  0  0
 21 23  1  0  0  0
  8  9  2  0  0  0
 26 30  1  0  0  0
 30 31  1  0  0  0
 31 32  1  0  0  0
 32 33  1  0  0  0
 33 34  1  0  0  0
 34 35  1  0  0  0
 33 36  1  0  0  0
 36 37  1  0  0  0
 37 38  1  0  0  0
 38 39  1  0  0  0
 39 40  1  0  0  0
 39 41  1  0  0  0
 41 42  1  0  0  0
 29 24  1  0  0  0
  9  3  1  0  0  0
 35 30  1  0  0  0
 42 36  1  0  0  0
 17 12  1  0  0  0
  1  2  1  0  0  0
 10 11  1  0  0  0
M  END
> <minimizedAffinity>
-8.79163

> <CNNscore>
0.3268491030

> <CNNaffinity>
7.5633416176

> <CNN_VS>
2.4720714092

> <CNNaffinity_variance>
0.2782112062

$$$$
[H]c1nc(N([H])c2c([H])c([H])c(N3C([H])([H])C([H])([H])C([H])(N4C([H])([H])C([H])([H])N(C([H])([H])[H])C([H])([H])C4([H])[H])C([H])([H])C3([H])[H])c([H])c2OC([H])([H])[H])nc(N([H])c2c([H])c([H])c([H])c([H])c2S(=O)(=O)C([H])(C([H])([H])[H])C([H])([H])[H])c1Cl


 44 48  0  0  0  0  0  0  0  0999 V2000
   33.9668   14.2228  -13.6945 N   0  0  0  0  0  0  0  0  0  0  0  0
   33.1768   14.8732  -14.0466 H   0  0  0  0  0  0  0  0  0  0  0  0
   34.3169   13.1445  -14.5496 C   0  0  0  0  0  0  0  0  0  0  0  0
   33.4794   12.4411  -15.3158 N   0  0  0  0  0  0  0  0  0  0  0  0
   33.8782   11.4338  -16.1025 C   0  0  0  0  0  0  0  0  0  0  0  0
   35.2072   11.0830  -16.1455 C   0  0  0  0  0  0  0  0  0  0  0  0
   35.7501    9.7612  -17.1744 Cl  0  0  0  0  0  0  0  0  0  0  0  0
   36.1126   11.8105  -15.3456 C   0  0  0  0  0  0  0  0  0  0  0  0
   35.6174   12.7969  -14.5954 N   0  0  0  0  0  0  0  0  0  0  0  0
   37.4629   11.4338  -15.4093 N   0  0  0  0  0  0  0  0  0  0  0  0
   37.7672   10.7444  -14.6456 H   0  0  0  0  0  0  0  0  0  0  0  0
   38.4905   11.7958  -16.2933 C   0  0  0  0  0  0  0  0  0  0  0  0
   38.6627   11.1019  -17.4723 C   0  0  0  0  0  0  0  0  0  0  0  0
   39.6850   11.4498  -18.3646 C   0  0  0  0  0  0  0  0  0  0  0  0
   40.5115   12.4872  -18.0523 C   0  0  0  0  0  0  0  0  0  0  0  0
   40.3370   13.1782  -16.8746 C   0  0  0  0  0  0  0  0  0  0  0  0
   39.3455   12.8594  -15.9840 C   0  0  0  0  0  0  0  0  0  0  0  0
   39.1406   13.7309  -14.5216 S   0  0  0  0  0  0  0  0  0  0  0  0
   38.8245   12.7780  -13.3962 O   0  0  0  0  0  0  0  0  0  0  0  0
   38.0590   14.7740  -14.5586 O   0  0  0  0  0  0  0  0  0  0  0  0
   40.6218   14.5896  -14.0245 C   0  0  0  0  0  0  0  0  0  0  0  0
   40.3404   15.5250  -12.8939 C   0  0  0  0  0  0  0  0  0  0  0  0
   41.7958   13.6885  -13.8333 C   0  0  0  0  0  0  0  0  0  0  0  0
   33.7219   15.3568  -11.5906 C   0  0  0  0  0  0  0  0  0  0  0  0
   34.1809   15.7379  -10.3431 C   0  0  0  0  0  0  0  0  0  0  0  0
   35.4221   15.3624   -9.8797 C   0  0  0  0  0  0  0  0  0  0  0  0
   36.1784   14.5883  -10.7258 C   0  0  0  0  0  0  0  0  0  0  0  0
   35.7451   14.1857  -11.9929 C   0  0  0  0  0  0  0  0  0  0  0  0
   34.5072   14.5631  -12.4493 C   0  0  0  0  0  0  0  0  0  0  0  0
   35.8800   15.7582   -8.5839 N   0  0  0  0  0  0  0  0  0  0  0  0
   35.5144   17.0458   -8.1015 C   0  0  0  0  0  0  0  0  0  0  0  0
   35.7096   17.2775   -6.6294 C   0  0  0  0  0  0  0  0  0  0  0  0
   36.9910   16.7417   -6.0852 C   0  0  0  0  0  0  0  0  0  0  0  0
   37.6616   15.7515   -7.0162 C   0  0  0  0  0  0  0  0  0  0  0  0
   36.6987   14.8953   -7.7665 C   0  0  0  0  0  0  0  0  0  0  0  0
   36.9724   16.2085   -4.7817 N   0  0  0  0  0  0  0  0  0  0  0  0
   36.1177   16.7665   -3.8188 C   0  0  0  0  0  0  0  0  0  0  0  0
   36.5424   16.3001   -2.4234 C   0  0  0  0  0  0  0  0  0  0  0  0
   36.8089   14.8766   -2.4953 N   0  0  0  0  0  0  0  0  0  0  0  0
   35.6423   14.0687   -2.6551 C   0  0  0  0  0  0  0  0  0  0  0  0
   37.9086   14.5498   -3.3445 C   0  0  0  0  0  0  0  0  0  0  0  0
   38.2121   15.7440   -4.2468 C   0  0  0  0  0  0  0  0  0  0  0  0
   31.3294   15.2350  -11.3484 C   0  0  0  0  0  0  0  0  0  0  0  0
   32.4618   15.7702  -11.9944 O   0  0  0  0  0  0  0  0  0  0  0  0
 43 44  1  0  0  0
 44 24  1  0  0  0
 24 25  2  0  0  0
 25 26  1  0  0  0
 26 27  2  0  0  0
 27 28  1  0  0  0
 28 29  2  0  0  0
 29  1  1  0  0  0
  1  3  1  0  0  0
  3  4  2  0  0  0
  4  5  1  0  0  0
  5  6  2  0  0  0
  6  7  1  0  0  0
  6  8  1  0  0  0
  8 10  1  0  0  0
 10 12  1  0  0  0
 12 13  2  0  0  0
 13 14  1  0  0  0
 14 15  2  0  0  0
 15 16  1  0  0  0
 16 17  2  0  0  0
 17 18  1  0  0  0
 18 19  2  0  0  0
 18 20  2  0  0  0
 18 21  1  0  0  0
 21 22  1  0  0  0
 21 23  1  0  0  0
  8  9  2  0  0  0
 26 30  1  0  0  0
 30 31  1  0  0  0
 31 32  1  0  0  0
 32 33  1  0  0  0
 33 34  1  0  0  0
 34 35  1  0  0  0
 33 36  1  0  0  0
 36 37  1  0  0  0
 37 38  1  0  0  0
 38 39  1  0  0  0
 39 40  1  0  0  0
 39 41  1  0  0  0
 41 42  1  0  0  0
 29 24  1  0  0  0
  9  3  1  0  0  0
 35 30  1  0  0  0
 42 36  1  0  0  0
 17 12  1  0  0  0
  1  2  1  0  0  0
 10 11  1  0  0  0
M  END
> <minimizedAffinity>
-8.79259

> <CNNscore>
0.2879383564

> <CNNaffinity>
7.4586319923

> <CNN_VS>
2.1476261616

> <CNNaffinity_variance>
0.1995829791

$$$$
[H]c1nc(N([H])c2c([H])c([H])c(N3C([H])([H])C([H])([H])C([H])(N4C([H])([H])C([H])([H])N(C([H])([H])[H])C([H])([H])C4([H])[H])C([H])([H])C3([H])[H])c([H])c2OC([H])([H])[H])nc(N([H])c2c([H])c([H])c([H])c([H])c2S(=O)(=O)C([H])(C([H])([H])[H])C([H])([H])[H])c1Cl


 44 48  0  0  0  0  0  0  0  0999 V2000
   34.1341   14.9393  -13.8405 N   0  0  0  0  0  0  0  0  0  0  0  0
   34.2674   15.8298  -14.4409 H   0  0  0  0  0  0  0  0  0  0  0  0
   34.3319   13.7007  -14.5062 C   0  0  0  0  0  0  0  0  0  0  0  0
   33.3839   12.9480  -15.0702 N   0  0  0  0  0  0  0  0  0  0  0  0
   33.6409   11.7869  -15.6853 C   0  0  0  0  0  0  0  0  0  0  0  0
   34.9326   11.3205  -15.7563 C   0  0  0  0  0  0  0  0  0  0  0  0
   35.2896    9.7957  -16.5615 Cl  0  0  0  0  0  0  0  0  0  0  0  0
   35.9526   12.0969  -15.1684 C   0  0  0  0  0  0  0  0  0  0  0  0
   35.5952   13.2394  -14.5786 N   0  0  0  0  0  0  0  0  0  0  0  0
   37.2619   11.5996  -15.2566 N   0  0  0  0  0  0  0  0  0  0  0  0
   37.5314   10.9193  -14.4720 H   0  0  0  0  0  0  0  0  0  0  0  0
   38.2857   11.8310  -16.1876 C   0  0  0  0  0  0  0  0  0  0  0  0
   38.3421   11.0905  -17.3494 C   0  0  0  0  0  0  0  0  0  0  0  0
   39.3590   11.3082  -18.2880 C   0  0  0  0  0  0  0  0  0  0  0  0
   40.2965   12.2649  -18.0383 C   0  0  0  0  0  0  0  0  0  0  0  0
   40.2375   13.0027  -16.8776 C   0  0  0  0  0  0  0  0  0  0  0  0
   39.2541   12.8108  -15.9427 C   0  0  0  0  0  0  0  0  0  0  0  0
   39.1940   13.7392  -14.5023 S   0  0  0  0  0  0  0  0  0  0  0  0
   38.8447   12.8519  -13.3340 O   0  0  0  0  0  0  0  0  0  0  0  0
   38.2095   14.8747  -14.5278 O   0  0  0  0  0  0  0  0  0  0  0  0
   40.7669   14.4738  -14.0965 C   0  0  0  0  0  0  0  0  0  0  0  0
   40.6411   15.3827  -12.9172 C   0  0  0  0  0  0  0  0  0  0  0  0
   41.8842   13.4869  -14.0283 C   0  0  0  0  0  0  0  0  0  0  0  0
   34.8338   15.3984  -11.5884 C   0  0  0  0  0  0  0  0  0  0  0  0
   34.5789   15.6334  -10.2497 C   0  0  0  0  0  0  0  0  0  0  0  0
   33.2970   15.6548   -9.7470 C   0  0  0  0  0  0  0  0  0  0  0  0
   32.2861   15.4300  -10.6496 C   0  0  0  0  0  0  0  0  0  0  0  0
   32.5087   15.1892  -12.0090 C   0  0  0  0  0  0  0  0  0  0  0  0
   33.7884   15.1689  -12.5040 C   0  0  0  0  0  0  0  0  0  0  0  0
   33.0489   15.9066   -8.3612 N   0  0  0  0  0  0  0  0  0  0  0  0
   32.0384   15.1486   -7.7064 C   0  0  0  0  0  0  0  0  0  0  0  0
   32.0532   15.1901   -6.2042 C   0  0  0  0  0  0  0  0  0  0  0  0
   32.2987   16.5435   -5.6269 C   0  0  0  0  0  0  0  0  0  0  0  0
   32.8557   17.5262   -6.6374 C   0  0  0  0  0  0  0  0  0  0  0  0
   33.7861   16.9029   -7.6218 C   0  0  0  0  0  0  0  0  0  0  0  0
   33.0593   16.6186   -4.4439 N   0  0  0  0  0  0  0  0  0  0  0  0
   33.6144   15.4485   -3.9036 C   0  0  0  0  0  0  0  0  0  0  0  0
   34.0480   15.7062   -2.4577 C   0  0  0  0  0  0  0  0  0  0  0  0
   34.7370   16.9815   -2.4235 N   0  0  0  0  0  0  0  0  0  0  0  0
   36.0234   16.9701   -3.0435 C   0  0  0  0  0  0  0  0  0  0  0  0
   33.8982   18.0863   -2.7599 C   0  0  0  0  0  0  0  0  0  0  0  0
   32.6440   17.5638   -3.4576 C   0  0  0  0  0  0  0  0  0  0  0  0
   37.1849   15.3212  -11.0746 C   0  0  0  0  0  0  0  0  0  0  0  0
   36.1487   15.3907  -12.0273 O   0  0  0  0  0  0  0  0  0  0  0  0
 43 44  1  0  0  0
 44 24  1  0  0  0
 24 25  2  0  0  0
 25 26  1  0  0  0
 26 27  2  0  0  0
 27 28  1  0  0  0
 28 29  2  0  0  0
 29  1  1  0  0  0
  1  3  1  0  0  0
  3  4  2  0  0  0
  4  5  1  0  0  0
  5  6  2  0  0  0
  6  7  1  0  0  0
  6  8  1  0  0  0
  8 10  1  0  0  0
 10 12  1  0  0  0
 12 13  2  0  0  0
 13 14  1  0  0  0
 14 15  2  0  0  0
 15 16  1  0  0  0
 16 17  2  0  0  0
 17 18  1  0  0  0
 18 19  2  0  0  0
 18 20  2  0  0  0
 18 21  1  0  0  0
 21 22  1  0  0  0
 21 23  1  0  0  0
  8  9  2  0  0  0
 26 30  1  0  0  0
 30 31  1  0  0  0
 31 32  1  0  0  0
 32 33  1  0  0  0
 33 34  1  0  0  0
 34 35  1  0  0  0
 33 36  1  0  0  0
 36 37  1  0  0  0
 37 38  1  0  0  0
 38 39  1  0  0  0
 39 40  1  0  0  0
 39 41  1  0  0  0
 41 42  1  0  0  0
 29 24  1  0  0  0
  9  3  1  0  0  0
 35 30  1  0  0  0
 42 36  1  0  0  0
 17 12  1  0  0  0
  1  2  1  0  0  0
 10 11  1  0  0  0
M  END
> <minimizedAffinity>
-8.51894

> <CNNscore>
0.2862206101

> <CNNaffinity>
7.2870736122

> <CNN_VS>
2.0857107639

> <CNNaffinity_variance>
0.1007100344

$$$$
[H]c1nc(N([H])c2c([H])c([H])c(N3C([H])([H])C([H])([H])C([H])(N4C([H])([H])C([H])([H])N(C([H])([H])[H])C([H])([H])C4([H])[H])C([H])([H])C3([H])[H])c([H])c2OC([H])([H])[H])nc(N([H])c2c([H])c([H])c([H])c([H])c2S(=O)(=O)C([H])(C([H])([H])[H])C([H])([H])[H])c1Cl


 44 48  0  0  0  0  0  0  0  0999 V2000
   34.2872   14.9320  -13.4951 N   0  0  0  0  0  0  0  0  0  0  0  0
   33.9951   15.8226  -14.0361 H   0  0  0  0  0  0  0  0  0  0  0  0
   34.4501   13.7540  -14.2712 C   0  0  0  0  0  0  0  0  0  0  0  0
   33.4835   13.0907  -14.9109 N   0  0  0  0  0  0  0  0  0  0  0  0
   33.7076   11.9830  -15.6288 C   0  0  0  0  0  0  0  0  0  0  0  0
   34.9833   11.4797  -15.7315 C   0  0  0  0  0  0  0  0  0  0  0  0
   35.2970   10.0242  -16.6716 Cl  0  0  0  0  0  0  0  0  0  0  0  0
   36.0223   12.1618  -15.0652 C   0  0  0  0  0  0  0  0  0  0  0  0
   35.6975   13.2568  -14.3751 N   0  0  0  0  0  0  0  0  0  0  0  0
   37.3147   11.6286  -15.1877 N   0  0  0  0  0  0  0  0  0  0  0  0
   37.5676   10.9031  -14.4389 H   0  0  0  0  0  0  0  0  0  0  0  0
   38.3392   11.8726  -16.1147 C   0  0  0  0  0  0  0  0  0  0  0  0
   38.4125   11.1290  -17.2736 C   0  0  0  0  0  0  0  0  0  0  0  0
   39.4303   11.3591  -18.2082 C   0  0  0  0  0  0  0  0  0  0  0  0
   40.3518   12.3310  -17.9575 C   0  0  0  0  0  0  0  0  0  0  0  0
   40.2758   13.0718  -16.7998 C   0  0  0  0  0  0  0  0  0  0  0  0
   39.2912   12.8681  -15.8687 C   0  0  0  0  0  0  0  0  0  0  0  0
   39.2099   13.8004  -14.4320 S   0  0  0  0  0  0  0  0  0  0  0  0
   38.9011   12.9068  -13.2571 O   0  0  0  0  0  0  0  0  0  0  0  0
   38.1861   14.9007  -14.4545 O   0  0  0  0  0  0  0  0  0  0  0  0
   40.7592   14.5914  -14.0420 C   0  0  0  0  0  0  0  0  0  0  0  0
   40.5899   15.5730  -12.9282 C   0  0  0  0  0  0  0  0  0  0  0  0
   41.8930   13.6338  -13.8851 C   0  0  0  0  0  0  0  0  0  0  0  0
   33.3099   15.3987  -11.3506 C   0  0  0  0  0  0  0  0  0  0  0  0
   33.3874   15.5814   -9.9821 C   0  0  0  0  0  0  0  0  0  0  0  0
   34.5810   15.4823   -9.3023 C   0  0  0  0  0  0  0  0  0  0  0  0
   35.6897   15.1916  -10.0595 C   0  0  0  0  0  0  0  0  0  0  0  0
   35.6465   15.0011  -11.4442 C   0  0  0  0  0  0  0  0  0  0  0  0
   34.4542   15.1013  -12.1161 C   0  0  0  0  0  0  0  0  0  0  0  0
   34.6440   15.6666   -7.8854 N   0  0  0  0  0  0  0  0  0  0  0  0
   35.1350   14.5973   -7.0855 C   0  0  0  0  0  0  0  0  0  0  0  0
   35.5120   14.9500   -5.6740 C   0  0  0  0  0  0  0  0  0  0  0  0
   34.5496   15.8596   -4.9874 C   0  0  0  0  0  0  0  0  0  0  0  0
   33.5981   16.5474   -5.9458 C   0  0  0  0  0  0  0  0  0  0  0  0
   34.2214   16.8943   -7.2552 C   0  0  0  0  0  0  0  0  0  0  0  0
   35.0782   16.8153   -4.0980 N   0  0  0  0  0  0  0  0  0  0  0  0
   36.4695   16.9609   -3.9868 C   0  0  0  0  0  0  0  0  0  0  0  0
   36.8032   17.7508   -2.7181 C   0  0  0  0  0  0  0  0  0  0  0  0
   35.8950   18.8791   -2.6483 N   0  0  0  0  0  0  0  0  0  0  0  0
   36.1481   19.8967   -3.6176 C   0  0  0  0  0  0  0  0  0  0  0  0
   34.5285   18.4961   -2.4961 C   0  0  0  0  0  0  0  0  0  0  0  0
   34.3807   17.0226   -2.8696 C   0  0  0  0  0  0  0  0  0  0  0  0
   30.9172   15.1453  -11.2581 C   0  0  0  0  0  0  0  0  0  0  0  0
   32.0757   15.5129  -11.9715 O   0  0  0  0  0  0  0  0  0  0  0  0
 43 44  1  0  0  0
 44 24  1  0  0  0
 24 25  2  0  0  0
 25 26  1  0  0  0
 26 27  2  0  0  0
 27 28  1  0  0  0
 28 29  2  0  0  0
 29  1  1  0  0  0
  1  3  1  0  0  0
  3  4  2  0  0  0
  4  5  1  0  0  0
  5  6  2  0  0  0
  6  7  1  0  0  0
  6  8  1  0  0  0
  8 10  1  0  0  0
 10 12  1  0  0  0
 12 13  2  0  0  0
 13 14  1  0  0  0
 14 15  2  0  0  0
 15 16  1  0  0  0
 16 17  2  0  0  0
 17 18  1  0  0  0
 18 19  2  0  0  0
 18 20  2  0  0  0
 18 21  1  0  0  0
 21 22  1  0  0  0
 21 23  1  0  0  0
  8  9  2  0  0  0
 26 30  1  0  0  0
 30 31  1  0  0  0
 31 32  1  0  0  0
 32 33  1  0  0  0
 33 34  1  0  0  0
 34 35  1  0  0  0
 33 36  1  0  0  0
 36 37  1  0  0  0
 37 38  1  0  0  0
 38 39  1  0  0  0
 39 40  1  0  0  0
 39 41  1  0  0  0
 41 42  1  0  0  0
 29 24  1  0  0  0
  9  3  1  0  0  0
 35 30  1  0  0  0
 42 36  1  0  0  0
 17 12  1  0  0  0
  1  2  1  0  0  0
 10 11  1  0  0  0
M  END
> <minimizedAffinity>
-8.26115

> <CNNscore>
0.2427086681

> <CNNaffinity>
7.2720870972

> <CNN_VS>
1.7649985552

> <CNNaffinity_variance>
0.1347934604

$$$$
[H]c1nc(N([H])c2c([H])c([H])c(N3C([H])([H])C([H])([H])C([H])(N4C([H])([H])C([H])([H])N(C([H])([H])[H])C([H])([H])C4([H])[H])C([H])([H])C3([H])[H])c([H])c2OC([H])([H])[H])nc(N([H])c2c([H])c([H])c([H])c([H])c2S(=O)(=O)C([H])(C([H])([H])[H])C([H])([H])[H])c1Cl


 44 48  0  0  0  0  0  0  0  0999 V2000
   33.4102   14.8433  -13.1698 N   0  0  0  0  0  0  0  0  0  0  0  0
   32.5513   15.2956  -13.6483 H   0  0  0  0  0  0  0  0  0  0  0  0
   34.1497   13.9200  -13.9554 C   0  0  0  0  0  0  0  0  0  0  0  0
   33.6484   12.8939  -14.6475 N   0  0  0  0  0  0  0  0  0  0  0  0
   34.4054   12.0598  -15.3712 C   0  0  0  0  0  0  0  0  0  0  0  0
   35.7674   12.2423  -15.4241 C   0  0  0  0  0  0  0  0  0  0  0  0
   36.7789   11.1554  -16.3708 Cl  0  0  0  0  0  0  0  0  0  0  0  0
   36.3221   13.3190  -14.7018 C   0  0  0  0  0  0  0  0  0  0  0  0
   35.4842   14.0943  -14.0106 N   0  0  0  0  0  0  0  0  0  0  0  0
   37.7138   13.4842  -14.7741 N   0  0  0  0  0  0  0  0  0  0  0  0
   38.1791   12.9707  -15.5931 H   0  0  0  0  0  0  0  0  0  0  0  0
   38.6100   14.2017  -13.9675 C   0  0  0  0  0  0  0  0  0  0  0  0
   38.1461   14.8994  -12.8725 C   0  0  0  0  0  0  0  0  0  0  0  0
   39.0277   15.6221  -12.0584 C   0  0  0  0  0  0  0  0  0  0  0  0
   40.3559   15.6277  -12.3628 C   0  0  0  0  0  0  0  0  0  0  0  0
   40.8161   14.9300  -13.4566 C   0  0  0  0  0  0  0  0  0  0  0  0
   39.9762   14.2149  -14.2697 C   0  0  0  0  0  0  0  0  0  0  0  0
   40.5656   13.3501  -15.6279 S   0  0  0  0  0  0  0  0  0  0  0  0
   40.5721   14.2442  -16.8423 O   0  0  0  0  0  0  0  0  0  0  0  0
   39.7842   12.1129  -15.9718 O   0  0  0  0  0  0  0  0  0  0  0  0
   42.2519   12.8119  -15.4163 C   0  0  0  0  0  0  0  0  0  0  0  0
   42.7821   12.2141  -16.6789 C   0  0  0  0  0  0  0  0  0  0  0  0
   43.1273   13.8370  -14.7760 C   0  0  0  0  0  0  0  0  0  0  0  0
   32.5194   15.5498  -11.0533 C   0  0  0  0  0  0  0  0  0  0  0  0
   32.6594   15.9611   -9.7405 C   0  0  0  0  0  0  0  0  0  0  0  0
   33.8960   16.0999   -9.1506 C   0  0  0  0  0  0  0  0  0  0  0  0
   34.9821   15.8069   -9.9389 C   0  0  0  0  0  0  0  0  0  0  0  0
   34.8761   15.3889  -11.2692 C   0  0  0  0  0  0  0  0  0  0  0  0
   33.6411   15.2525  -11.8517 C   0  0  0  0  0  0  0  0  0  0  0  0
   34.0245   16.5191   -7.7893 N   0  0  0  0  0  0  0  0  0  0  0  0
   33.2277   15.8718   -6.8041 C   0  0  0  0  0  0  0  0  0  0  0  0
   33.6416   16.0886   -5.3757 C   0  0  0  0  0  0  0  0  0  0  0  0
   34.0263   17.4928   -5.0512 C   0  0  0  0  0  0  0  0  0  0  0  0
   34.2903   18.3343   -6.2838 C   0  0  0  0  0  0  0  0  0  0  0  0
   34.9278   17.5741   -7.3969 C   0  0  0  0  0  0  0  0  0  0  0  0
   35.0739   17.6846   -4.1296 N   0  0  0  0  0  0  0  0  0  0  0  0
   35.9681   16.6344   -3.8713 C   0  0  0  0  0  0  0  0  0  0  0  0
   36.7528   16.9317   -2.5904 C   0  0  0  0  0  0  0  0  0  0  0  0
   37.1754   18.3178   -2.6426 N   0  0  0  0  0  0  0  0  0  0  0  0
   38.2017   18.5825   -3.5995 C   0  0  0  0  0  0  0  0  0  0  0  0
   36.0870   19.2412   -2.6316 C   0  0  0  0  0  0  0  0  0  0  0  0
   34.8012   18.4983   -2.9886 C   0  0  0  0  0  0  0  0  0  0  0  0
   30.3425   14.5223  -10.9954 C   0  0  0  0  0  0  0  0  0  0  0  0
   31.2444   15.4311  -11.5844 O   0  0  0  0  0  0  0  0  0  0  0  0
 43 44  1  0  0  0
 44 24  1  0  0  0
 24 25  2  0  0  0
 25 26  1  0  0  0
 26 27  2  0  0  0
 27 28  1  0  0  0
 28 29  2  0  0  0
 29  1  1  0  0  0
  1  3  1  0  0  0
  3  4  2  0  0  0
  4  5  1  0  0  0
  5  6  2  0  0  0
  6  7  1  0  0  0
  6  8  1  0  0  0
  8 10  1  0  0  0
 10 12  1  0  0  0
 12 13  2  0  0  0
 13 14  1  0  0  0
 14 15  2  0  0  0
 15 16  1  0  0  0
 16 17  2  0  0  0
 17 18  1  0  0  0
 18 19  2  0  0  0
 18 20  2  0  0  0
 18 21  1  0  0  0
 21 22  1  0  0  0
 21 23  1  0  0  0
  8  9  2  0  0  0
 26 30  1  0  0  0
 30 31  1  0  0  0
 31 32  1  0  0  0
 32 33  1  0  0  0
 33 34  1  0  0  0
 34 35  1  0  0  0
 33 36  1  0  0  0
 36 37  1  0  0  0
 37 38  1  0  0  0
 38 39  1  0  0  0
 39 40  1  0  0  0
 39 41  1  0  0  0
 41 42  1  0  0  0
 29 24  1  0  0  0
  9  3  1  0  0  0
 35 30  1  0  0  0
 42 36  1  0  0  0
 17 12  1  0  0  0
  1  2  1  0  0  0
 10 11  1  0  0  0
M  END
> <minimizedAffinity>
-8.85239

> <CNNscore>
0.1740900129

> <CNNaffinity>
7.2376556396

> <CNN_VS>
1.2600035667

> <CNNaffinity_variance>
0.0992006809

$$$$
[H]c1nc(N([H])c2c([H])c([H])c(N3C([H])([H])C([H])([H])C([H])(N4C([H])([H])C([H])([H])N(C([H])([H])[H])C([H])([H])C4([H])[H])C([H])([H])C3([H])[H])c([H])c2OC([H])([H])[H])nc(N([H])c2c([H])c([H])c([H])c([H])c2S(=O)(=O)C([H])(C([H])([H])[H])C([H])([H])[H])c1Cl


 44 48  0  0  0  0  0  0  0  0999 V2000
   41.1395   12.8688  -15.8758 N   0  0  0  0  0  0  0  0  0  0  0  0
   40.6746   12.3778  -16.7208 H   0  0  0  0  0  0  0  0  0  0  0  0
   42.5582   12.8275  -15.8312 C   0  0  0  0  0  0  0  0  0  0  0  0
   43.3554   12.1699  -16.6770 N   0  0  0  0  0  0  0  0  0  0  0  0
   44.6905   12.1746  -16.5778 C   0  0  0  0  0  0  0  0  0  0  0  0
   45.2999   12.8810  -15.5674 C   0  0  0  0  0  0  0  0  0  0  0  0
   47.0546   12.8989  -15.4213 Cl  0  0  0  0  0  0  0  0  0  0  0  0
   44.4803   13.5843  -14.6605 C   0  0  0  0  0  0  0  0  0  0  0  0
   43.1601   13.5177  -14.8435 N   0  0  0  0  0  0  0  0  0  0  0  0
   45.1270   14.2986  -13.6402 N   0  0  0  0  0  0  0  0  0  0  0  0
   45.5631   13.6838  -12.8768 H   0  0  0  0  0  0  0  0  0  0  0  0
   45.3077   15.6749  -13.4369 C   0  0  0  0  0  0  0  0  0  0  0  0
   45.9839   16.4279  -14.3735 C   0  0  0  0  0  0  0  0  0  0  0  0
   46.1742   17.8027  -14.1842 C   0  0  0  0  0  0  0  0  0  0  0  0
   45.6811   18.3904  -13.0581 C   0  0  0  0  0  0  0  0  0  0  0  0
   45.0063   17.6362  -12.1250 C   0  0  0  0  0  0  0  0  0  0  0  0
   44.8058   16.2900  -12.2846 C   0  0  0  0  0  0  0  0  0  0  0  0
   43.9620   15.3647  -11.1133 S   0  0  0  0  0  0  0  0  0  0  0  0
   44.9354   14.5276  -10.3220 O   0  0  0  0  0  0  0  0  0  0  0  0
   42.9150   14.4443  -11.6754 O   0  0  0  0  0  0  0  0  0  0  0  0
   43.1178   16.3821   -9.9173 C   0  0  0  0  0  0  0  0  0  0  0  0
   41.6574   16.0673   -9.8873 C   0  0  0  0  0  0  0  0  0  0  0  0
   43.7923   16.4198   -8.5867 C   0  0  0  0  0  0  0  0  0  0  0  0
   38.9849   12.8686  -14.8129 C   0  0  0  0  0  0  0  0  0  0  0  0
   38.0492   13.3916  -13.9392 C   0  0  0  0  0  0  0  0  0  0  0  0
   38.3084   14.5130  -13.1831 C   0  0  0  0  0  0  0  0  0  0  0  0
   39.5480   15.0826  -13.3451 C   0  0  0  0  0  0  0  0  0  0  0  0
   40.5166   14.5798  -14.2195 C   0  0  0  0  0  0  0  0  0  0  0  0
   40.2525   13.4620  -14.9704 C   0  0  0  0  0  0  0  0  0  0  0  0
   37.3332   15.0379  -12.2781 N   0  0  0  0  0  0  0  0  0  0  0  0
   35.9565   14.8740  -12.5977 C   0  0  0  0  0  0  0  0  0  0  0  0
   34.9865   15.1165  -11.4757 C   0  0  0  0  0  0  0  0  0  0  0  0
   35.3003   16.3086  -10.6357 C   0  0  0  0  0  0  0  0  0  0  0  0
   36.7158   16.8141  -10.8304 C   0  0  0  0  0  0  0  0  0  0  0  0
   37.7080   15.7264  -11.0663 C   0  0  0  0  0  0  0  0  0  0  0  0
   35.0273   16.2235   -9.2566 N   0  0  0  0  0  0  0  0  0  0  0  0
   33.7376   15.8744   -8.8275 C   0  0  0  0  0  0  0  0  0  0  0  0
   33.5790   16.2199   -7.3442 C   0  0  0  0  0  0  0  0  0  0  0  0
   34.7749   15.7738   -6.6561 N   0  0  0  0  0  0  0  0  0  0  0  0
   34.8921   14.3551   -6.5434 C   0  0  0  0  0  0  0  0  0  0  0  0
   35.9552   16.4608   -7.0712 C   0  0  0  0  0  0  0  0  0  0  0  0
   35.6815   17.1606   -8.4008 C   0  0  0  0  0  0  0  0  0  0  0  0
   37.4847   11.7452  -16.3246 C   0  0  0  0  0  0  0  0  0  0  0  0
   38.6579   11.7369  -15.5437 O   0  0  0  0  0  0  0  0  0  0  0  0
 43 44  1  0  0  0
 44 24  1  0  0  0
 24 25  2  0  0  0
 25 26  1  0  0  0
 26 27  2  0  0  0
 27 28  1  0  0  0
 28 29  2  0  0  0
 29  1  1  0  0  0
  1  3  1  0  0  0
  3  4  2  0  0  0
  4  5  1  0  0  0
  5  6  2  0  0  0
  6  7  1  0  0  0
  6  8  1  0  0  0
  8 10  1  0  0  0
 10 12  1  0  0  0
 12 13  2  0  0  0
 13 14  1  0  0  0
 14 15  2  0  0  0
 15 16  1  0  0  0
 16 17  2  0  0  0
 17 18  1  0  0  0
 18 19  2  0  0  0
 18 20  2  0  0  0
 18 21  1  0  0  0
 21 22  1  0  0  0
 21 23  1  0  0  0
  8  9  2  0  0  0
 26 30  1  0  0  0
 30 31  1  0  0  0
 31 32  1  0  0  0
 32 33  1  0  0  0
 33 34  1  0  0  0
 34 35  1  0  0  0
 33 36  1  0  0  0
 36 37  1  0  0  0
 37 38  1  0  0  0
 38 39  1  0  0  0
 39 40  1  0  0  0
 39 41  1  0  0  0
 41 42  1  0  0  0
 29 24  1  0  0  0
  9  3  1  0  0  0
 35 30  1  0  0  0
 42 36  1  0  0  0
 17 12  1  0  0  0
  1  2  1  0  0  0
 10 11  1  0  0  0
M  END
> <minimizedAffinity>
-8.25288

> <CNNscore>
0.0631211177

> <CNNaffinity>
6.6328330040

> <CNN_VS>
0.4186718464

> <CNNaffinity_variance>
0.7367760539

$$$$
[H]c1nc(N([H])c2c([H])c([H])c(N3C([H])([H])C([H])([H])C([H])(N4C([H])([H])C([H])([H])N(C([H])([H])[H])C([H])([H])C4([H])[H])C([H])([H])C3([H])[H])c([H])c2OC([H])([H])[H])nc(N([H])c2c([H])c([H])c([H])c([H])c2S(=O)(=O)C([H])(C([H])([H])[H])C([H])([H])[H])c1Cl


 44 48  0  0  0  0  0  0  0  0999 V2000
   41.2889   12.9865  -15.7756 N   0  0  0  0  0  0  0  0  0  0  0  0
   40.8311   12.5185  -16.6374 H   0  0  0  0  0  0  0  0  0  0  0  0
   42.7070   12.9412  -15.7190 C   0  0  0  0  0  0  0  0  0  0  0  0
   43.5191   12.4537  -16.6603 N   0  0  0  0  0  0  0  0  0  0  0  0
   44.8528   12.4432  -16.5426 C   0  0  0  0  0  0  0  0  0  0  0  0
   45.4445   12.9518  -15.4102 C   0  0  0  0  0  0  0  0  0  0  0  0
   47.1969   12.9466  -15.2380 Cl  0  0  0  0  0  0  0  0  0  0  0  0
   44.6089   13.4728  -14.4007 C   0  0  0  0  0  0  0  0  0  0  0  0
   43.2917   13.4380  -14.6119 N   0  0  0  0  0  0  0  0  0  0  0  0
   45.2378   13.9872  -13.2565 N   0  0  0  0  0  0  0  0  0  0  0  0
   46.3053   13.8800  -13.2514 H   0  0  0  0  0  0  0  0  0  0  0  0
   44.7225   14.6187  -12.1145 C   0  0  0  0  0  0  0  0  0  0  0  0
   43.9847   13.8966  -11.2005 C   0  0  0  0  0  0  0  0  0  0  0  0
   43.4618   14.5129  -10.0563 C   0  0  0  0  0  0  0  0  0  0  0  0
   43.6919   15.8409   -9.8560 C   0  0  0  0  0  0  0  0  0  0  0  0
   44.4291   16.5591  -10.7702 C   0  0  0  0  0  0  0  0  0  0  0  0
   44.9522   15.9818  -11.8976 C   0  0  0  0  0  0  0  0  0  0  0  0
   45.8694   16.8902  -13.0262 S   0  0  0  0  0  0  0  0  0  0  0  0
   45.1887   16.8747  -14.3717 O   0  0  0  0  0  0  0  0  0  0  0  0
   47.2808   16.4105  -13.2192 O   0  0  0  0  0  0  0  0  0  0  0  0
   46.0023   18.6093  -12.5728 C   0  0  0  0  0  0  0  0  0  0  0  0
   47.4009   19.1016  -12.7573 C   0  0  0  0  0  0  0  0  0  0  0  0
   44.9374   19.4662  -13.1717 C   0  0  0  0  0  0  0  0  0  0  0  0
   39.0982   13.0119  -14.7894 C   0  0  0  0  0  0  0  0  0  0  0  0
   38.1536   13.5175  -13.9152 C   0  0  0  0  0  0  0  0  0  0  0  0
   38.4311   14.5745  -13.0774 C   0  0  0  0  0  0  0  0  0  0  0  0
   39.6985   15.0982  -13.1585 C   0  0  0  0  0  0  0  0  0  0  0  0
   40.6770   14.6114  -14.0309 C   0  0  0  0  0  0  0  0  0  0  0  0
   40.3945   13.5578  -14.8635 C   0  0  0  0  0  0  0  0  0  0  0  0
   37.4459   15.0817  -12.1732 N   0  0  0  0  0  0  0  0  0  0  0  0
   36.0747   14.8262  -12.4542 C   0  0  0  0  0  0  0  0  0  0  0  0
   35.1153   15.0613  -11.3215 C   0  0  0  0  0  0  0  0  0  0  0  0
   35.3768   16.3044  -10.5395 C   0  0  0  0  0  0  0  0  0  0  0  0
   36.7565   16.8807  -10.7875 C   0  0  0  0  0  0  0  0  0  0  0  0
   37.8049   15.8420  -11.0001 C   0  0  0  0  0  0  0  0  0  0  0  0
   35.1373   16.2635   -9.1522 N   0  0  0  0  0  0  0  0  0  0  0  0
   35.5426   17.3403   -8.3488 C   0  0  0  0  0  0  0  0  0  0  0  0
   35.5358   16.9143   -6.8779 C   0  0  0  0  0  0  0  0  0  0  0  0
   34.3080   16.1820   -6.6355 N   0  0  0  0  0  0  0  0  0  0  0  0
   33.1317   16.9918   -6.6388 C   0  0  0  0  0  0  0  0  0  0  0  0
   34.2218   14.9633   -7.3733 C   0  0  0  0  0  0  0  0  0  0  0  0
   35.2452   14.9947   -8.5065 C   0  0  0  0  0  0  0  0  0  0  0  0
   37.4116   11.8136  -16.0212 C   0  0  0  0  0  0  0  0  0  0  0  0
   38.7516   11.9459  -15.6050 O   0  0  0  0  0  0  0  0  0  0  0  0
 43 44  1  0  0  0
 44 24  1  0  0  0
 24 25  2  0  0  0
 25 26  1  0  0  0
 26 27  2  0  0  0
 27 28  1  0  0  0
 28 29  2  0  0  0
 29  1  1  0  0  0
  1  3  1  0  0  0
  3  4  2  0  0  0
  4  5  1  0  0  0
  5  6  2  0  0  0
  6  7  1  0  0  0
  6  8  1  0  0  0
  8 10  1  0  0  0
 10 12  1  0  0  0
 12 13  2  0  0  0
 13 14  1  0  0  0
 14 15  2  0  0  0
 15 16  1  0  0  0
 16 17  2  0  0  0
 17 18  1  0  0  0
 18 19  2  0  0  0
 18 20  2  0  0  0
 18 21  1  0  0  0
 21 22  1  0  0  0
 21 23  1  0  0  0
  8  9  2  0  0  0
 26 30  1  0  0  0
 30 31  1  0  0  0
 31 32  1  0  0  0
 32 33  1  0  0  0
 33 34  1  0  0  0
 34 35  1  0  0  0
 33 36  1  0  0  0
 36 37  1  0  0  0
 37 38  1  0  0  0
 38 39  1  0  0  0
 39 40  1  0  0  0
 39 41  1  0  0  0
 41 42  1  0  0  0
 29 24  1  0  0  0
  9  3  1  0  0  0
 35 30  1  0  0  0
 42 36  1  0  0  0
 17 12  1  0  0  0
  1  2  1  0  0  0
 10 11  1  0  0  0
M  END
> <minimizedAffinity>
-8.07955

> <CNNscore>
0.0602416173

> <CNNaffinity>
6.6210656166

> <CNN_VS>
0.3988637030

> <CNNaffinity_variance>
0.6141880155

$$$$
[H]c1nc(N([H])c2c([H])c([H])c(N3C([H])([H])C([H])([H])C([H])(N4C([H])([H])C([H])([H])N(C([H])([H])[H])C([H])([H])C4([H])[H])C([H])([H])C3([H])[H])c([H])c2OC([H])([H])[H])nc(N([H])c2c([H])c([H])c([H])c([H])c2S(=O)(=O)C([H])(C([H])([H])[H])C([H])([H])[H])c1Cl


 44 48  0  0  0  0  0  0  0  0999 V2000
   41.3463   16.2571  -11.7127 N   0  0  0  0  0  0  0  0  0  0  0  0
   41.7263   17.2586  -11.8671 H   0  0  0  0  0  0  0  0  0  0  0  0
   41.6712   15.3036  -12.7136 C   0  0  0  0  0  0  0  0  0  0  0  0
   42.7723   14.5492  -12.7569 N   0  0  0  0  0  0  0  0  0  0  0  0
   43.0160   13.6655  -13.7326 C   0  0  0  0  0  0  0  0  0  0  0  0
   42.1083   13.5039  -14.7530 C   0  0  0  0  0  0  0  0  0  0  0  0
   42.4119   12.3463  -16.0447 Cl  0  0  0  0  0  0  0  0  0  0  0  0
   40.9369   14.2888  -14.7307 C   0  0  0  0  0  0  0  0  0  0  0  0
   40.7855   15.1414  -13.7152 N   0  0  0  0  0  0  0  0  0  0  0  0
   40.0263   14.1033  -15.7822 N   0  0  0  0  0  0  0  0  0  0  0  0
   39.7371   15.0071  -16.2827 H   0  0  0  0  0  0  0  0  0  0  0  0
   39.4238   12.9467  -16.2997 C   0  0  0  0  0  0  0  0  0  0  0  0
   40.0027   12.2828  -17.3605 C   0  0  0  0  0  0  0  0  0  0  0  0
   39.4125   11.1278  -17.8898 C   0  0  0  0  0  0  0  0  0  0  0  0
   38.2539   10.6657  -17.3414 C   0  0  0  0  0  0  0  0  0  0  0  0
   37.6784   11.3306  -16.2823 C   0  0  0  0  0  0  0  0  0  0  0  0
   38.2340   12.4622  -15.7450 C   0  0  0  0  0  0  0  0  0  0  0  0
   37.5052   13.2781  -14.4247 S   0  0  0  0  0  0  0  0  0  0  0  0
   37.4415   14.7580  -14.7079 O   0  0  0  0  0  0  0  0  0  0  0  0
   38.2050   13.0915  -13.1076 O   0  0  0  0  0  0  0  0  0  0  0  0
   35.8194   12.7665  -14.1516 C   0  0  0  0  0  0  0  0  0  0  0  0
   35.6979   11.9917  -12.8798 C   0  0  0  0  0  0  0  0  0  0  0  0
   34.8277   13.8677  -14.3280 C   0  0  0  0  0  0  0  0  0  0  0  0
   41.2988   15.8403   -9.3471 C   0  0  0  0  0  0  0  0  0  0  0  0
   40.6346   15.6530   -8.1487 C   0  0  0  0  0  0  0  0  0  0  0  0
   39.2605   15.6900   -8.0662 C   0  0  0  0  0  0  0  0  0  0  0  0
   38.5868   15.9235   -9.2404 C   0  0  0  0  0  0  0  0  0  0  0  0
   39.2270   16.1167  -10.4686 C   0  0  0  0  0  0  0  0  0  0  0  0
   40.5966   16.0786  -10.5446 C   0  0  0  0  0  0  0  0  0  0  0  0
   38.5879   15.5019   -6.8181 N   0  0  0  0  0  0  0  0  0  0  0  0
   39.3611   15.5194   -5.6239 C   0  0  0  0  0  0  0  0  0  0  0  0
   38.5906   15.6721   -4.3426 C   0  0  0  0  0  0  0  0  0  0  0  0
   37.3423   14.8586   -4.2726 C   0  0  0  0  0  0  0  0  0  0  0  0
   36.8965   14.3407   -5.6254 C   0  0  0  0  0  0  0  0  0  0  0  0
   37.1621   15.2917   -6.7427 C   0  0  0  0  0  0  0  0  0  0  0  0
   36.2354   15.4202   -3.6069 N   0  0  0  0  0  0  0  0  0  0  0  0
   36.1236   16.8155   -3.5077 C   0  0  0  0  0  0  0  0  0  0  0  0
   35.0869   17.1726   -2.4387 C   0  0  0  0  0  0  0  0  0  0  0  0
   33.9363   16.3121   -2.6338 N   0  0  0  0  0  0  0  0  0  0  0  0
   33.1684   16.6147   -3.7992 C   0  0  0  0  0  0  0  0  0  0  0  0
   34.2224   14.9297   -2.4235 C   0  0  0  0  0  0  0  0  0  0  0  0
   35.7351   14.7230   -2.4659 C   0  0  0  0  0  0  0  0  0  0  0  0
   43.3521   15.1557   -8.2921 C   0  0  0  0  0  0  0  0  0  0  0  0
   42.6841   15.7903   -9.3585 O   0  0  0  0  0  0  0  0  0  0  0  0
 43 44  1  0  0  0
 44 24  1  0  0  0
 24 25  2  0  0  0
 25 26  1  0  0  0
 26 27  2  0  0  0
 27 28  1  0  0  0
 28 29  2  0  0  0
 29  1  1  0  0  0
  1  3  1  0  0  0
  3  4  2  0  0  0
  4  5  1  0  0  0
  5  6  2  0  0  0
  6  7  1  0  0  0
  6  8  1  0  0  0
  8 10  1  0  0  0
 10 12  1  0  0  0
 12 13  2  0  0  0
 13 14  1  0  0  0
 14 15  2  0  0  0
 15 16  1  0  0  0
 16 17  2  0  0  0
 17 18  1  0  0  0
 18 19  2  0  0  0
 18 20  2  0  0  0
 18 21  1  0  0  0
 21 22  1  0  0  0
 21 23  1  0  0  0
  8  9  2  0  0  0
 26 30  1  0  0  0
 30 31  1  0  0  0
 31 32  1  0  0  0
 32 33  1  0  0  0
 33 34  1  0  0  0
 34 35  1  0  0  0
 33 36  1  0  0  0
 36 37  1  0  0  0
 37 38  1  0  0  0
 38 39  1  0  0  0
 39 40  1  0  0  0
 39 41  1  0  0  0
 41 42  1  0  0  0
 29 24  1  0  0  0
  9  3  1  0  0  0
 35 30  1  0  0  0
 42 36  1  0  0  0
 17 12  1  0  0  0
  1  2  1  0  0  0
 10 11  1  0  0  0
M  END
> <minimizedAffinity>
-8.20799

> <CNNscore>
0.0589180030

> <CNNaffinity>
6.6056222916

> <CNN_VS>
0.3891900778

> <CNNaffinity_variance>
0.2352221757

$$$$
[H]c1nc(N([H])c2c([H])c([H])c(N3C([H])([H])C([H])([H])C([H])(N4C([H])([H])C([H])([H])N(C([H])([H])[H])C([H])([H])C4([H])[H])C([H])([H])C3([H])[H])c([H])c2OC([H])([H])[H])nc(N([H])c2c([H])c([H])c([H])c([H])c2S(=O)(=O)C([H])(C([H])([H])[H])C([H])([H])[H])c1Cl


 44 48  0  0  0  0  0  0  0  0999 V2000
   39.1047   13.5743  -14.9151 N   0  0  0  0  0  0  0  0  0  0  0  0
   38.4179   13.4014  -15.7334 H   0  0  0  0  0  0  0  0  0  0  0  0
   40.4736   13.3053  -15.1799 C   0  0  0  0  0  0  0  0  0  0  0  0
   40.9563   12.6197  -16.2192 N   0  0  0  0  0  0  0  0  0  0  0  0
   42.2638   12.4036  -16.4097 C   0  0  0  0  0  0  0  0  0  0  0  0
   43.1782   12.8985  -15.5097 C   0  0  0  0  0  0  0  0  0  0  0  0
   44.9017   12.6244  -15.7440 Cl  0  0  0  0  0  0  0  0  0  0  0  0
   42.6942   13.6264  -14.4030 C   0  0  0  0  0  0  0  0  0  0  0  0
   41.3734   13.7879  -14.3014 N   0  0  0  0  0  0  0  0  0  0  0  0
   43.6480   14.1221  -13.5008 N   0  0  0  0  0  0  0  0  0  0  0  0
   44.1324   15.0247  -13.8195 H   0  0  0  0  0  0  0  0  0  0  0  0
   44.0842   13.6503  -12.2536 C   0  0  0  0  0  0  0  0  0  0  0  0
   44.4871   12.3390  -12.1143 C   0  0  0  0  0  0  0  0  0  0  0  0
   44.9235   11.8523  -10.8753 C   0  0  0  0  0  0  0  0  0  0  0  0
   44.9453   12.6939   -9.8039 C   0  0  0  0  0  0  0  0  0  0  0  0
   44.5426   14.0026   -9.9462 C   0  0  0  0  0  0  0  0  0  0  0  0
   44.1113   14.5050  -11.1460 C   0  0  0  0  0  0  0  0  0  0  0  0
   43.6141   16.1381  -11.3067 S   0  0  0  0  0  0  0  0  0  0  0  0
   43.3747   16.7382   -9.9441 O   0  0  0  0  0  0  0  0  0  0  0  0
   42.3675   16.3375  -12.1226 O   0  0  0  0  0  0  0  0  0  0  0  0
   44.8593   17.1595  -12.0714 C   0  0  0  0  0  0  0  0  0  0  0  0
   44.2608   18.0212  -13.1353 C   0  0  0  0  0  0  0  0  0  0  0  0
   45.7330   17.8670  -11.0901 C   0  0  0  0  0  0  0  0  0  0  0  0
   37.3432   13.3937  -13.2913 C   0  0  0  0  0  0  0  0  0  0  0  0
   36.6990   13.7881  -12.1329 C   0  0  0  0  0  0  0  0  0  0  0  0
   37.1698   14.8232  -11.3562 C   0  0  0  0  0  0  0  0  0  0  0  0
   38.3148   15.4416  -11.7963 C   0  0  0  0  0  0  0  0  0  0  0  0
   38.9906   15.0683  -12.9622 C   0  0  0  0  0  0  0  0  0  0  0  0
   38.5166   14.0361  -13.7322 C   0  0  0  0  0  0  0  0  0  0  0  0
   36.4966   15.2148  -10.1566 N   0  0  0  0  0  0  0  0  0  0  0  0
   35.1821   15.7487  -10.2623 C   0  0  0  0  0  0  0  0  0  0  0  0
   34.3926   15.8126   -8.9850 C   0  0  0  0  0  0  0  0  0  0  0  0
   35.1701   16.2830   -7.8021 C   0  0  0  0  0  0  0  0  0  0  0  0
   36.6688   16.2408   -8.0237 C   0  0  0  0  0  0  0  0  0  0  0  0
   37.1138   15.0881   -8.8582 C   0  0  0  0  0  0  0  0  0  0  0  0
   34.8725   15.7017   -6.5542 N   0  0  0  0  0  0  0  0  0  0  0  0
   33.9863   14.6154   -6.4914 C   0  0  0  0  0  0  0  0  0  0  0  0
   33.5245   14.4126   -5.0456 C   0  0  0  0  0  0  0  0  0  0  0  0
   34.6911   14.5150   -4.1905 N   0  0  0  0  0  0  0  0  0  0  0  0
   35.5926   13.4122   -4.2936 C   0  0  0  0  0  0  0  0  0  0  0  0
   35.2927   15.8092   -4.2079 C   0  0  0  0  0  0  0  0  0  0  0  0
   34.7877   16.5758   -5.4285 C   0  0  0  0  0  0  0  0  0  0  0  0
   35.4251   12.3062  -14.2588 C   0  0  0  0  0  0  0  0  0  0  0  0
   36.8145   12.3436  -14.0259 O   0  0  0  0  0  0  0  0  0  0  0  0
 43 44  1  0  0  0
 44 24  1  0  0  0
 24 25  2  0  0  0
 25 26  1  0  0  0
 26 27  2  0  0  0
 27 28  1  0  0  0
 28 29  2  0  0  0
 29  1  1  0  0  0
  1  3  1  0  0  0
  3  4  2  0  0  0
  4  5  1  0  0  0
  5  6  2  0  0  0
  6  7  1  0  0  0
  6  8  1  0  0  0
  8 10  1  0  0  0
 10 12  1  0  0  0
 12 13  2  0  0  0
 13 14  1  0  0  0
 14 15  2  0  0  0
 15 16  1  0  0  0
 16 17  2  0  0  0
 17 18  1  0  0  0
 18 19  2  0  0  0
 18 20  2  0  0  0
 18 21  1  0  0  0
 21 22  1  0  0  0
 21 23  1  0  0  0
  8  9  2  0  0  0
 26 30  1  0  0  0
 30 31  1  0  0  0
 31 32  1  0  0  0
 32 33  1  0  0  0
 33 34  1  0  0  0
 34 35  1  0  0  0
 33 36  1  0  0  0
 36 37  1  0  0  0
 37 38  1  0  0  0
 38 39  1  0  0  0
 39 40  1  0  0  0
 39 41  1  0  0  0
 41 42  1  0  0  0
 29 24  1  0  0  0
  9  3  1  0  0  0
 35 30  1  0  0  0
 42 36  1  0  0  0
 17 12  1  0  0  0
  1  2  1  0  0  0
 10 11  1  0  0  0
M  END
> <minimizedAffinity>
-7.52253

> <CNNscore>
0.0425379388

> <CNNaffinity>
6.6400060654

> <CNN_VS>
0.2824521661

> <CNNaffinity_variance>
0.3389868438

$$$$
[H]c1c([H])c([H])c(/C(=C2/C(=O)N([H])c3c([H])c(C(=O)OC([H])([H])[H])c([H])c([H])c32)N([H])c2c([H])c([H])c(N(C(=O)C([H])([H])N3C([H])([H])C([H])([H])N(C([H])([H])[H])C([H])([H])C3([H])[H])C([H])([H])[H])c([H])c2[H])c([H])c1[H]


 42 46  0  0  0  0  0  0  0  0999 V2000
   39.9006   12.1031  -17.1502 C   0  0  0  0  0  0  0  0  0  0  0  0
   38.6109   12.1025  -16.7156 C   0  0  0  0  0  0  0  0  0  0  0  0
   38.1872   12.8725  -15.6261 C   0  0  0  0  0  0  0  0  0  0  0  0
   39.1269   13.6418  -14.9941 C   0  0  0  0  0  0  0  0  0  0  0  0
   39.0033   14.5509  -13.8690 C   0  0  0  0  0  0  0  0  0  0  0  0
   37.9735   14.7720  -13.0964 C   0  0  0  0  0  0  0  0  0  0  0  0
   40.3722   15.1155  -13.6724 C   0  0  0  0  0  0  0  0  0  0  0  0
   40.7118   15.9379  -12.8167 O   0  0  0  0  0  0  0  0  0  0  0  0
   41.2321   14.5432  -14.6444 N   0  0  0  0  0  0  0  0  0  0  0  0
   40.4510   13.6551  -15.4282 C   0  0  0  0  0  0  0  0  0  0  0  0
   40.8336   12.8846  -16.5054 C   0  0  0  0  0  0  0  0  0  0  0  0
   42.2691   14.7370  -14.7703 H   0  0  0  0  0  0  0  0  0  0  0  0
   36.7613   14.0131  -13.1130 C   0  0  0  0  0  0  0  0  0  0  0  0
   36.5969   12.7173  -12.6826 C   0  0  0  0  0  0  0  0  0  0  0  0
   35.4240   12.0248  -12.8426 C   0  0  0  0  0  0  0  0  0  0  0  0
   34.3569   12.6264  -13.4536 C   0  0  0  0  0  0  0  0  0  0  0  0
   34.4682   13.9198  -13.9019 C   0  0  0  0  0  0  0  0  0  0  0  0
   35.6432   14.5977  -13.7357 C   0  0  0  0  0  0  0  0  0  0  0  0
   40.3673   11.3098  -18.2794 C   0  0  0  0  0  0  0  0  0  0  0  0
   41.5286   11.3697  -18.7273 O   0  0  0  0  0  0  0  0  0  0  0  0
   38.3391   10.8929  -19.6060 C   0  0  0  0  0  0  0  0  0  0  0  0
   39.4502   10.4465  -18.8733 O   0  0  0  0  0  0  0  0  0  0  0  0
   38.1205   15.7394  -12.0658 N   0  0  0  0  0  0  0  0  0  0  0  0
   38.2092   16.7401  -12.4155 H   0  0  0  0  0  0  0  0  0  0  0  0
   38.1514   15.4455  -10.6784 C   0  0  0  0  0  0  0  0  0  0  0  0
   39.3149   15.4410   -9.9453 C   0  0  0  0  0  0  0  0  0  0  0  0
   39.3090   15.1485   -8.5759 C   0  0  0  0  0  0  0  0  0  0  0  0
   38.1267   14.8592   -7.9397 C   0  0  0  0  0  0  0  0  0  0  0  0
   36.9637   14.8634   -8.6707 C   0  0  0  0  0  0  0  0  0  0  0  0
   36.9698   15.1543  -10.0333 C   0  0  0  0  0  0  0  0  0  0  0  0
   38.1273   14.5576   -6.5128 N   0  0  0  0  0  0  0  0  0  0  0  0
   38.8446   13.3492   -6.1730 C   0  0  0  0  0  0  0  0  0  0  0  0
   37.5281   15.4036   -5.5927 C   0  0  0  0  0  0  0  0  0  0  0  0
   37.1140   16.5368   -6.1227 O   0  0  0  0  0  0  0  0  0  0  0  0
   37.2700   15.2904   -4.1634 C   0  0  0  0  0  0  0  0  0  0  0  0
   36.0135   14.9067   -3.6859 N   0  0  0  0  0  0  0  0  0  0  0  0
   35.4555   13.6793   -4.1413 C   0  0  0  0  0  0  0  0  0  0  0  0
   34.3461   13.8898   -5.1478 C   0  0  0  0  0  0  0  0  0  0  0  0
   33.3207   14.7563   -4.6816 N   0  0  0  0  0  0  0  0  0  0  0  0
   32.4558   15.2788   -5.6731 C   0  0  0  0  0  0  0  0  0  0  0  0
   33.6468   15.6021   -3.5947 C   0  0  0  0  0  0  0  0  0  0  0  0
   35.0703   15.9129   -3.3614 C   0  0  0  0  0  0  0  0  0  0  0  0
 21 22  1  0  0  0
 22 19  1  0  0  0
 19 20  2  0  0  0
 19  1  1  0  0  0
  1  2  2  0  0  0
  2  3  1  0  0  0
  3  4  2  0  0  0
  4  5  1  0  0  0
  5  6  2  0  0  0
  6 23  1  0  0  0
 23 25  1  0  0  0
 25 26  2  0  0  0
 26 27  1  0  0  0
 27 28  2  0  0  0
 28 29  1  0  0  0
 29 30  2  0  0  0
 28 31  1  0  0  0
 31 32  1  0  0  0
 31 33  1  0  0  0
 33 34  2  0  0  0
 33 35  1  0  0  0
 35 36  1  0  0  0
 36 37  1  0  0  0
 37 38  1  0  0  0
 38 39  1  0  0  0
 39 40  1  0  0  0
 39 41  1  0  0  0
 41 42  1  0  0  0
  6 13  1  0  0  0
 13 14  2  0  0  0
 14 15  1  0  0  0
 15 16  2  0  0  0
 16 17  1  0  0  0
 17 18  2  0  0  0
  5  7  1  0  0  0
  7  8  2  0  0  0
  7  9  1  0  0  0
  9 10  1  0  0  0
 10 11  2  0  0  0
 11  1  1  0  0  0
 10  4  1  0  0  0
 30 25  1  0  0  0
 42 36  1  0  0  0
 18 13  1  0  0  0
 23 24  1  0  0  0
  9 12  1  0  0  0
M  END
> <minimizedAffinity>
-8.76372

> <CNNscore>
0.3160333037

> <CNNaffinity>
6.5613622665

> <CNN_VS>
2.0736088753

> <CNNaffinity_variance>
0.2402763367

$$$$
[H]c1c([H])c([H])c(/C(=C2/C(=O)N([H])c3c([H])c(C(=O)OC([H])([H])[H])c([H])c([H])c32)N([H])c2c([H])c([H])c(N(C(=O)C([H])([H])N3C([H])([H])C([H])([H])N(C([H])([H])[H])C([H])([H])C3([H])[H])C([H])([H])[H])c([H])c2[H])c([H])c1[H]


 42 46  0  0  0  0  0  0  0  0999 V2000
   36.7383   21.1643   -6.9272 C   0  0  0  0  0  0  0  0  0  0  0  0
   36.4972   20.2890   -5.9133 C   0  0  0  0  0  0  0  0  0  0  0  0
   36.8582   18.9386   -5.9878 C   0  0  0  0  0  0  0  0  0  0  0  0
   37.4722   18.5123   -7.1348 C   0  0  0  0  0  0  0  0  0  0  0  0
   37.9792   17.2034   -7.5053 C   0  0  0  0  0  0  0  0  0  0  0  0
   37.8663   16.0658   -6.8732 C   0  0  0  0  0  0  0  0  0  0  0  0
   38.5683   17.3848   -8.8659 C   0  0  0  0  0  0  0  0  0  0  0  0
   39.1142   16.5159   -9.5521 O   0  0  0  0  0  0  0  0  0  0  0  0
   38.3950   18.7399   -9.2474 N   0  0  0  0  0  0  0  0  0  0  0  0
   37.7281   19.3965   -8.1810 C   0  0  0  0  0  0  0  0  0  0  0  0
   37.3594   20.7205   -8.0735 C   0  0  0  0  0  0  0  0  0  0  0  0
   38.7036   19.1892  -10.1594 H   0  0  0  0  0  0  0  0  0  0  0  0
   37.0510   15.8499   -5.7182 C   0  0  0  0  0  0  0  0  0  0  0  0
   37.4639   15.8632   -4.4064 C   0  0  0  0  0  0  0  0  0  0  0  0
   36.6371   15.5303   -3.3642 C   0  0  0  0  0  0  0  0  0  0  0  0
   35.3414   15.1659   -3.6135 C   0  0  0  0  0  0  0  0  0  0  0  0
   34.8783   15.1363   -4.9062 C   0  0  0  0  0  0  0  0  0  0  0  0
   35.7136   15.4705   -5.9349 C   0  0  0  0  0  0  0  0  0  0  0  0
   36.3709   22.5730   -6.8755 C   0  0  0  0  0  0  0  0  0  0  0  0
   36.7847   23.3588   -6.0013 O   0  0  0  0  0  0  0  0  0  0  0  0
   34.2690   22.4538   -8.1462 C   0  0  0  0  0  0  0  0  0  0  0  0
   35.5114   23.0436   -7.8648 O   0  0  0  0  0  0  0  0  0  0  0  0
   38.4801   14.9252   -7.4579 N   0  0  0  0  0  0  0  0  0  0  0  0
   37.9062   14.4664   -8.2271 H   0  0  0  0  0  0  0  0  0  0  0  0
   39.7460   14.4060   -7.0832 C   0  0  0  0  0  0  0  0  0  0  0  0
   40.6299   15.1013   -6.2919 C   0  0  0  0  0  0  0  0  0  0  0  0
   41.8711   14.5575   -5.9390 C   0  0  0  0  0  0  0  0  0  0  0  0
   42.2257   13.3075   -6.3840 C   0  0  0  0  0  0  0  0  0  0  0  0
   41.3437   12.6117   -7.1745 C   0  0  0  0  0  0  0  0  0  0  0  0
   40.1088   13.1530   -7.5256 C   0  0  0  0  0  0  0  0  0  0  0  0
   43.5190   12.7461   -6.0110 N   0  0  0  0  0  0  0  0  0  0  0  0
   43.4548   11.8222   -4.9008 C   0  0  0  0  0  0  0  0  0  0  0  0
   44.6733   13.0548   -6.7135 C   0  0  0  0  0  0  0  0  0  0  0  0
   44.4447   13.7607   -7.8026 O   0  0  0  0  0  0  0  0  0  0  0  0
   46.0807   12.7523   -6.4898 C   0  0  0  0  0  0  0  0  0  0  0  0
   46.7729   11.8778   -7.3325 N   0  0  0  0  0  0  0  0  0  0  0  0
   47.7255   12.4166   -8.2420 C   0  0  0  0  0  0  0  0  0  0  0  0
   47.2160   12.4334   -9.6662 C   0  0  0  0  0  0  0  0  0  0  0  0
   46.7650   11.1635  -10.1173 N   0  0  0  0  0  0  0  0  0  0  0  0
   45.9573   11.1723  -11.2798 C   0  0  0  0  0  0  0  0  0  0  0  0
   46.4571   10.2063   -9.1212 C   0  0  0  0  0  0  0  0  0  0  0  0
   46.1258   10.6954   -7.7690 C   0  0  0  0  0  0  0  0  0  0  0  0
 21 22  1  0  0  0
 22 19  1  0  0  0
 19 20  2  0  0  0
 19  1  1  0  0  0
  1  2  2  0  0  0
  2  3  1  0  0  0
  3  4  2  0  0  0
  4  5  1  0  0  0
  5  6  2  0  0  0
  6 23  1  0  0  0
 23 25  1  0  0  0
 25 26  2  0  0  0
 26 27  1  0  0  0
 27 28  2  0  0  0
 28 29  1  0  0  0
 29 30  2  0  0  0
 28 31  1  0  0  0
 31 32  1  0  0  0
 31 33  1  0  0  0
 33 34  2  0  0  0
 33 35  1  0  0  0
 35 36  1  0  0  0
 36 37  1  0  0  0
 37 38  1  0  0  0
 38 39  1  0  0  0
 39 40  1  0  0  0
 39 41  1  0  0  0
 41 42  1  0  0  0
  6 13  1  0  0  0
 13 14  2  0  0  0
 14 15  1  0  0  0
 15 16  2  0  0  0
 16 17  1  0  0  0
 17 18  2  0  0  0
  5  7  1  0  0  0
  7  8  2  0  0  0
  7  9  1  0  0  0
  9 10  1  0  0  0
 10 11  2  0  0  0
 11  1  1  0  0  0
 10  4  1  0  0  0
 30 25  1  0  0  0
 42 36  1  0  0  0
 18 13  1  0  0  0
 23 24  1  0  0  0
  9 12  1  0  0  0
M  END
> <minimizedAffinity>
-6.21381

> <CNNscore>
0.2092057317

> <CNNaffinity>
5.3095140457

> <CNN_VS>
1.1107807159

> <CNNaffinity_variance>
0.2622349858

$$$$
[H]c1c([H])c([H])c(/C(=C2/C(=O)N([H])c3c([H])c(C(=O)OC([H])([H])[H])c([H])c([H])c32)N([H])c2c([H])c([H])c(N(C(=O)C([H])([H])N3C([H])([H])C([H])([H])N(C([H])([H])[H])C([H])([H])C3([H])[H])C([H])([H])[H])c([H])c2[H])c([H])c1[H]


 42 46  0  0  0  0  0  0  0  0999 V2000
   40.5844   12.8120  -16.2563 C   0  0  0  0  0  0  0  0  0  0  0  0
   39.2405   12.6638  -16.1010 C   0  0  0  0  0  0  0  0  0  0  0  0
   38.5259   13.3212  -15.0927 C   0  0  0  0  0  0  0  0  0  0  0  0
   39.2318   14.1339  -14.2468 C   0  0  0  0  0  0  0  0  0  0  0  0
   38.7876   14.9554  -13.1353 C   0  0  0  0  0  0  0  0  0  0  0  0
   37.6047   15.0305  -12.5862 C   0  0  0  0  0  0  0  0  0  0  0  0
   40.0212   15.6320  -12.6337 C   0  0  0  0  0  0  0  0  0  0  0  0
   40.0919   16.4275  -11.6924 O   0  0  0  0  0  0  0  0  0  0  0  0
   41.1159   15.2045  -13.4278 N   0  0  0  0  0  0  0  0  0  0  0  0
   40.6078   14.2980  -14.3940 C   0  0  0  0  0  0  0  0  0  0  0  0
   41.2799   13.6355  -15.3988 C   0  0  0  0  0  0  0  0  0  0  0  0
   42.1308   15.5017  -13.3262 H   0  0  0  0  0  0  0  0  0  0  0  0
   36.5073   14.1643  -12.8872 C   0  0  0  0  0  0  0  0  0  0  0  0
   36.3696   12.8496  -12.5075 C   0  0  0  0  0  0  0  0  0  0  0  0
   35.3375   12.0562  -12.9388 C   0  0  0  0  0  0  0  0  0  0  0  0
   34.3911   12.5708  -13.7834 C   0  0  0  0  0  0  0  0  0  0  0  0
   34.4818   13.8786  -14.1931 C   0  0  0  0  0  0  0  0  0  0  0  0
   35.5159   14.6575  -13.7552 C   0  0  0  0  0  0  0  0  0  0  0  0
   41.3514   12.1380  -17.2953 C   0  0  0  0  0  0  0  0  0  0  0  0
   42.5020   11.6931  -17.1200 O   0  0  0  0  0  0  0  0  0  0  0  0
   39.9394   10.8979  -18.8814 C   0  0  0  0  0  0  0  0  0  0  0  0
   40.7466   11.9949  -18.5415 O   0  0  0  0  0  0  0  0  0  0  0  0
   37.4371   15.9411  -11.5081 N   0  0  0  0  0  0  0  0  0  0  0  0
   38.0031   16.8370  -11.6010 H   0  0  0  0  0  0  0  0  0  0  0  0
   36.5995   15.7200  -10.3847 C   0  0  0  0  0  0  0  0  0  0  0  0
   36.9056   14.8145   -9.3961 C   0  0  0  0  0  0  0  0  0  0  0  0
   36.0568   14.6229   -8.2990 C   0  0  0  0  0  0  0  0  0  0  0  0
   34.8937   15.3457   -8.1950 C   0  0  0  0  0  0  0  0  0  0  0  0
   34.5866   16.2507   -9.1819 C   0  0  0  0  0  0  0  0  0  0  0  0
   35.4313   16.4411  -10.2734 C   0  0  0  0  0  0  0  0  0  0  0  0
   34.0151   15.1429   -7.0488 N   0  0  0  0  0  0  0  0  0  0  0  0
   32.8298   14.3727   -7.3523 C   0  0  0  0  0  0  0  0  0  0  0  0
   34.3460   15.6164   -5.7888 C   0  0  0  0  0  0  0  0  0  0  0  0
   35.5653   16.1121   -5.7246 O   0  0  0  0  0  0  0  0  0  0  0  0
   33.6185   15.6713   -4.5279 C   0  0  0  0  0  0  0  0  0  0  0  0
   32.8389   16.7823   -4.1931 N   0  0  0  0  0  0  0  0  0  0  0  0
   31.6550   17.0360   -4.9408 C   0  0  0  0  0  0  0  0  0  0  0  0
   31.8190   18.1908   -5.9040 C   0  0  0  0  0  0  0  0  0  0  0  0
   32.2747   19.3834   -5.2798 N   0  0  0  0  0  0  0  0  0  0  0  0
   32.7884   20.3770   -6.1475 C   0  0  0  0  0  0  0  0  0  0  0  0
   32.8947   19.2436   -4.0152 C   0  0  0  0  0  0  0  0  0  0  0  0
   33.4794   17.9332   -3.6712 C   0  0  0  0  0  0  0  0  0  0  0  0
 21 22  1  0  0  0
 22 19  1  0  0  0
 19 20  2  0  0  0
 19  1  1  0  0  0
  1  2  2  0  0  0
  2  3  1  0  0  0
  3  4  2  0  0  0
  4  5  1  0  0  0
  5  6  2  0  0  0
  6 23  1  0  0  0
 23 25  1  0  0  0
 25 26  2  0  0  0
 26 27  1  0  0  0
 27 28  2  0  0  0
 28 29  1  0  0  0
 29 30  2  0  0  0
 28 31  1  0  0  0
 31 32  1  0  0  0
 31 33  1  0  0  0
 33 34  2  0  0  0
 33 35  1  0  0  0
 35 36  1  0  0  0
 36 37  1  0  0  0
 37 38  1  0  0  0
 38 39  1  0  0  0
 39 40  1  0  0  0
 39 41  1  0  0  0
 41 42  1  0  0  0
  6 13  1  0  0  0
 13 14  2  0  0  0
 14 15  1  0  0  0
 15 16  2  0  0  0
 16 17  1  0  0  0
 17 18  2  0  0  0
  5  7  1  0  0  0
  7  8  2  0  0  0
  7  9  1  0  0  0
  9 10  1  0  0  0
 10 11  2  0  0  0
 11  1  1  0  0  0
 10  4  1  0  0  0
 30 25  1  0  0  0
 42 36  1  0  0  0
 18 13  1  0  0  0
 23 24  1  0  0  0
  9 12  1  0  0  0
M  END
> <minimizedAffinity>
-8.74746

> <CNNscore>
0.1744081676

> <CNNaffinity>
6.1901121140

> <CNN_VS>
1.0796060562

> <CNNaffinity_variance>
0.3236486316

$$$$
[H]c1c([H])c([H])c(/C(=C2/C(=O)N([H])c3c([H])c(C(=O)OC([H])([H])[H])c([H])c([H])c32)N([H])c2c([H])c([H])c(N(C(=O)C([H])([H])N3C([H])([H])C([H])([H])N(C([H])([H])[H])C([H])([H])C3([H])[H])C([H])([H])[H])c([H])c2[H])c([H])c1[H]


 42 46  0  0  0  0  0  0  0  0999 V2000
   36.8928   20.3531   -7.4371 C   0  0  0  0  0  0  0  0  0  0  0  0
   36.9565   19.5136   -6.3678 C   0  0  0  0  0  0  0  0  0  0  0  0
   37.5015   18.2273   -6.4567 C   0  0  0  0  0  0  0  0  0  0  0  0
   37.9776   17.8271   -7.6763 C   0  0  0  0  0  0  0  0  0  0  0  0
   38.6104   16.5854   -8.0830 C   0  0  0  0  0  0  0  0  0  0  0  0
   38.7765   15.4828   -7.4026 C   0  0  0  0  0  0  0  0  0  0  0  0
   38.9348   16.7692   -9.5294 C   0  0  0  0  0  0  0  0  0  0  0  0
   39.4870   15.9491  -10.2686 O   0  0  0  0  0  0  0  0  0  0  0  0
   38.4975   18.0602   -9.9217 N   0  0  0  0  0  0  0  0  0  0  0  0
   37.9217   18.6756   -8.7803 C   0  0  0  0  0  0  0  0  0  0  0  0
   37.3785   19.9366   -8.6567 C   0  0  0  0  0  0  0  0  0  0  0  0
   38.5811   18.4947  -10.8877 H   0  0  0  0  0  0  0  0  0  0  0  0
   38.2032   15.2201   -6.1189 C   0  0  0  0  0  0  0  0  0  0  0  0
   38.7947   15.4320   -4.8956 C   0  0  0  0  0  0  0  0  0  0  0  0
   38.2174   15.0427   -3.7141 C   0  0  0  0  0  0  0  0  0  0  0  0
   37.0012   14.4146   -3.7259 C   0  0  0  0  0  0  0  0  0  0  0  0
   36.3673   14.1788   -4.9213 C   0  0  0  0  0  0  0  0  0  0  0  0
   36.9545   14.5724   -6.0909 C   0  0  0  0  0  0  0  0  0  0  0  0
   36.3289   21.6948   -7.3715 C   0  0  0  0  0  0  0  0  0  0  0  0
   36.9816   22.6976   -7.0236 O   0  0  0  0  0  0  0  0  0  0  0  0
   34.5582   22.6171   -8.8072 C   0  0  0  0  0  0  0  0  0  0  0  0
   34.9886   21.8398   -7.7203 O   0  0  0  0  0  0  0  0  0  0  0  0
   39.4528   14.4101   -8.0441 N   0  0  0  0  0  0  0  0  0  0  0  0
   39.0543   14.1490   -8.9952 H   0  0  0  0  0  0  0  0  0  0  0  0
   40.5667   13.7172   -7.5041 C   0  0  0  0  0  0  0  0  0  0  0  0
   40.4353   12.5936   -6.7223 C   0  0  0  0  0  0  0  0  0  0  0  0
   41.5571   11.9325   -6.2071 C   0  0  0  0  0  0  0  0  0  0  0  0
   42.8181   12.4035   -6.4794 C   0  0  0  0  0  0  0  0  0  0  0  0
   42.9509   13.5258   -7.2603 C   0  0  0  0  0  0  0  0  0  0  0  0
   41.8345   14.1835   -7.7728 C   0  0  0  0  0  0  0  0  0  0  0  0
   43.9822   11.7090   -5.9416 N   0  0  0  0  0  0  0  0  0  0  0  0
   44.4473   10.6213   -6.7728 C   0  0  0  0  0  0  0  0  0  0  0  0
   44.5899   12.1167   -4.7644 C   0  0  0  0  0  0  0  0  0  0  0  0
   44.1055   13.2491   -4.2956 O   0  0  0  0  0  0  0  0  0  0  0  0
   45.6542   11.5466   -3.9491 C   0  0  0  0  0  0  0  0  0  0  0  0
   46.9855   11.9338   -4.1282 N   0  0  0  0  0  0  0  0  0  0  0  0
   47.4887   13.0229   -3.3630 C   0  0  0  0  0  0  0  0  0  0  0  0
   47.6369   14.2840   -4.1851 C   0  0  0  0  0  0  0  0  0  0  0  0
   48.4174   14.1018   -5.3587 N   0  0  0  0  0  0  0  0  0  0  0  0
   48.3009   15.1144   -6.3410 C   0  0  0  0  0  0  0  0  0  0  0  0
   48.5810   12.7720   -5.8147 C   0  0  0  0  0  0  0  0  0  0  0  0
   47.5779   11.7705   -5.4048 C   0  0  0  0  0  0  0  0  0  0  0  0
 21 22  1  0  0  0
 22 19  1  0  0  0
 19 20  2  0  0  0
 19  1  1  0  0  0
  1  2  2  0  0  0
  2  3  1  0  0  0
  3  4  2  0  0  0
  4  5  1  0  0  0
  5  6  2  0  0  0
  6 23  1  0  0  0
 23 25  1  0  0  0
 25 26  2  0  0  0
 26 27  1  0  0  0
 27 28  2  0  0  0
 28 29  1  0  0  0
 29 30  2  0  0  0
 28 31  1  0  0  0
 31 32  1  0  0  0
 31 33  1  0  0  0
 33 34  2  0  0  0
 33 35  1  0  0  0
 35 36  1  0  0  0
 36 37  1  0  0  0
 37 38  1  0  0  0
 38 39  1  0  0  0
 39 40  1  0  0  0
 39 41  1  0  0  0
 41 42  1  0  0  0
  6 13  1  0  0  0
 13 14  2  0  0  0
 14 15  1  0  0  0
 15 16  2  0  0  0
 16 17  1  0  0  0
 17 18  2  0  0  0
  5  7  1  0  0  0
  7  8  2  0  0  0
  7  9  1  0  0  0
  9 10  1  0  0  0
 10 11  2  0  0  0
 11  1  1  0  0  0
 10  4  1  0  0  0
 30 25  1  0  0  0
 42 36  1  0  0  0
 18 13  1  0  0  0
 23 24  1  0  0  0
  9 12  1  0  0  0
M  END
> <minimizedAffinity>
-5.81654

> <CNNscore>
0.1634974778

> <CNNaffinity>
5.1731758118

> <CNN_VS>
0.8458011746

> <CNNaffinity_variance>
0.3145719171

$$$$
[H]c1c([H])c([H])c(/C(=C2/C(=O)N([H])c3c([H])c(C(=O)OC([H])([H])[H])c([H])c([H])c32)N([H])c2c([H])c([H])c(N(C(=O)C([H])([H])N3C([H])([H])C([H])([H])N(C([H])([H])[H])C([H])([H])C3([H])[H])C([H])([H])[H])c([H])c2[H])c([H])c1[H]


 42 46  0  0  0  0  0  0  0  0999 V2000
   35.4854   21.6278   -4.9892 C   0  0  0  0  0  0  0  0  0  0  0  0
   35.3548   20.3188   -4.6400 C   0  0  0  0  0  0  0  0  0  0  0  0
   35.8535   19.2787   -5.4330 C   0  0  0  0  0  0  0  0  0  0  0  0
   36.4887   19.6216   -6.5963 C   0  0  0  0  0  0  0  0  0  0  0  0
   37.1232   18.7939   -7.6063 C   0  0  0  0  0  0  0  0  0  0  0  0
   37.1408   17.4922   -7.7143 C   0  0  0  0  0  0  0  0  0  0  0  0
   37.6663   19.7551   -8.6125 C   0  0  0  0  0  0  0  0  0  0  0  0
   38.2880   19.4700   -9.6402 O   0  0  0  0  0  0  0  0  0  0  0  0
   37.3458   21.0700   -8.1882 N   0  0  0  0  0  0  0  0  0  0  0  0
   36.6325   20.9572   -6.9668 C   0  0  0  0  0  0  0  0  0  0  0  0
   36.1294   21.9564   -6.1614 C   0  0  0  0  0  0  0  0  0  0  0  0
   37.5898   21.9768   -8.6851 H   0  0  0  0  0  0  0  0  0  0  0  0
   36.3727   16.5947   -6.9082 C   0  0  0  0  0  0  0  0  0  0  0  0
   35.0308   16.3209   -7.0334 C   0  0  0  0  0  0  0  0  0  0  0  0
   34.3471   15.5338   -6.1425 C   0  0  0  0  0  0  0  0  0  0  0  0
   35.0055   14.9855   -5.0748 C   0  0  0  0  0  0  0  0  0  0  0  0
   36.3465   15.2275   -4.9033 C   0  0  0  0  0  0  0  0  0  0  0  0
   37.0149   16.0139   -5.7992 C   0  0  0  0  0  0  0  0  0  0  0  0
   34.9738   22.7282   -4.1831 C   0  0  0  0  0  0  0  0  0  0  0  0
   35.6674   23.3576   -3.3613 O   0  0  0  0  0  0  0  0  0  0  0  0
   32.5889   22.4847   -3.6350 C   0  0  0  0  0  0  0  0  0  0  0  0
   33.6370   23.0770   -4.3572 O   0  0  0  0  0  0  0  0  0  0  0  0
   37.8602   16.9328   -8.8048 N   0  0  0  0  0  0  0  0  0  0  0  0
   38.9125   17.0801   -8.7555 H   0  0  0  0  0  0  0  0  0  0  0  0
   37.2714   16.2302   -9.8874 C   0  0  0  0  0  0  0  0  0  0  0  0
   37.5798   14.9225  -10.1804 C   0  0  0  0  0  0  0  0  0  0  0  0
   36.9777   14.2580  -11.2560 C   0  0  0  0  0  0  0  0  0  0  0  0
   36.0602   14.9118  -12.0414 C   0  0  0  0  0  0  0  0  0  0  0  0
   35.7511   16.2181  -11.7499 C   0  0  0  0  0  0  0  0  0  0  0  0
   36.3504   16.8791  -10.6797 C   0  0  0  0  0  0  0  0  0  0  0  0
   35.4352   14.2133  -13.1587 N   0  0  0  0  0  0  0  0  0  0  0  0
   34.0710   13.8085  -12.9030 C   0  0  0  0  0  0  0  0  0  0  0  0
   36.1029   14.0200  -14.3579 C   0  0  0  0  0  0  0  0  0  0  0  0
   37.2585   14.6509  -14.4158 O   0  0  0  0  0  0  0  0  0  0  0  0
   35.7808   13.2649  -15.5614 C   0  0  0  0  0  0  0  0  0  0  0  0
   36.3627   12.0179  -15.8073 N   0  0  0  0  0  0  0  0  0  0  0  0
   37.5878   11.6962  -15.1587 C   0  0  0  0  0  0  0  0  0  0  0  0
   38.7718   11.7661  -16.0977 C   0  0  0  0  0  0  0  0  0  0  0  0
   38.6092   10.9759  -17.2676 N   0  0  0  0  0  0  0  0  0  0  0  0
   39.4905   11.2669  -18.3366 C   0  0  0  0  0  0  0  0  0  0  0  0
   37.2870   10.5976  -17.6021 C   0  0  0  0  0  0  0  0  0  0  0  0
   36.1780   11.4171  -17.0771 C   0  0  0  0  0  0  0  0  0  0  0  0
 21 22  1  0  0  0
 22 19  1  0  0  0
 19 20  2  0  0  0
 19  1  1  0  0  0
  1  2  2  0  0  0
  2  3  1  0  0  0
  3  4  2  0  0  0
  4  5  1  0  0  0
  5  6  2  0  0  0
  6 23  1  0  0  0
 23 25  1  0  0  0
 25 26  2  0  0  0
 26 27  1  0  0  0
 27 28  2  0  0  0
 28 29  1  0  0  0
 29 30  2  0  0  0
 28 31  1  0  0  0
 31 32  1  0  0  0
 31 33  1  0  0  0
 33 34  2  0  0  0
 33 35  1  0  0  0
 35 36  1  0  0  0
 36 37  1  0  0  0
 37 38  1  0  0  0
 38 39  1  0  0  0
 39 40  1  0  0  0
 39 41  1  0  0  0
 41 42  1  0  0  0
  6 13  1  0  0  0
 13 14  2  0  0  0
 14 15  1  0  0  0
 15 16  2  0  0  0
 16 17  1  0  0  0
 17 18  2  0  0  0
  5  7  1  0  0  0
  7  8  2  0  0  0
  7  9  1  0  0  0
  9 10  1  0  0  0
 10 11  2  0  0  0
 11  1  1  0  0  0
 10  4  1  0  0  0
 30 25  1  0  0  0
 42 36  1  0  0  0
 18 13  1  0  0  0
 23 24  1  0  0  0
  9 12  1  0  0  0
M  END
> <minimizedAffinity>
-7.88415

> <CNNscore>
0.1466400921

> <CNNaffinity>
6.0200071335

> <CNN_VS>
0.8827744126

> <CNNaffinity_variance>
0.3114455342

$$$$
[H]c1c([H])c([H])c(/C(=C2/C(=O)N([H])c3c([H])c(C(=O)OC([H])([H])[H])c([H])c([H])c32)N([H])c2c([H])c([H])c(N(C(=O)C([H])([H])N3C([H])([H])C([H])([H])N(C([H])([H])[H])C([H])([H])C3([H])[H])C([H])([H])[H])c([H])c2[H])c([H])c1[H]


 42 46  0  0  0  0  0  0  0  0999 V2000
   41.2142   12.7495  -15.9885 C   0  0  0  0  0  0  0  0  0  0  0  0
   39.8681   12.5568  -15.9326 C   0  0  0  0  0  0  0  0  0  0  0  0
   39.0504   13.2410  -15.0255 C   0  0  0  0  0  0  0  0  0  0  0  0
   39.6555   14.1276  -14.1758 C   0  0  0  0  0  0  0  0  0  0  0  0
   39.0928   14.9921  -13.1542 C   0  0  0  0  0  0  0  0  0  0  0  0
   37.8670   15.0509  -12.7068 C   0  0  0  0  0  0  0  0  0  0  0  0
   40.2566   15.7446  -12.5967 C   0  0  0  0  0  0  0  0  0  0  0  0
   40.2217   16.5941  -11.7017 O   0  0  0  0  0  0  0  0  0  0  0  0
   41.4271   15.3170  -13.2739 N   0  0  0  0  0  0  0  0  0  0  0  0
   41.0322   14.3379  -14.2220 C   0  0  0  0  0  0  0  0  0  0  0  0
   41.8075   13.6471  -15.1287 C   0  0  0  0  0  0  0  0  0  0  0  0
   42.4192   15.6597  -13.1094 H   0  0  0  0  0  0  0  0  0  0  0  0
   36.8291   14.1260  -13.0426 C   0  0  0  0  0  0  0  0  0  0  0  0
   36.6353   12.8762  -12.5021 C   0  0  0  0  0  0  0  0  0  0  0  0
   35.6820   12.0063  -12.9658 C   0  0  0  0  0  0  0  0  0  0  0  0
   34.8763   12.3735  -14.0098 C   0  0  0  0  0  0  0  0  0  0  0  0
   35.0282   13.6111  -14.5856 C   0  0  0  0  0  0  0  0  0  0  0  0
   35.9826   14.4677  -14.1131 C   0  0  0  0  0  0  0  0  0  0  0  0
   42.0871   12.0491  -16.9211 C   0  0  0  0  0  0  0  0  0  0  0  0
   41.7285   11.6893  -18.0589 O   0  0  0  0  0  0  0  0  0  0  0  0
   44.5227   12.0932  -17.2573 C   0  0  0  0  0  0  0  0  0  0  0  0
   43.3854   11.7783  -16.4969 O   0  0  0  0  0  0  0  0  0  0  0  0
   37.5795   16.0134  -11.7015 N   0  0  0  0  0  0  0  0  0  0  0  0
   37.6296   17.0221  -12.0355 H   0  0  0  0  0  0  0  0  0  0  0  0
   37.2489   15.7053  -10.3569 C   0  0  0  0  0  0  0  0  0  0  0  0
   35.9717   15.8203   -9.8604 C   0  0  0  0  0  0  0  0  0  0  0  0
   35.6798   15.5054   -8.5276 C   0  0  0  0  0  0  0  0  0  0  0  0
   36.6774   15.0722   -7.6890 C   0  0  0  0  0  0  0  0  0  0  0  0
   37.9538   14.9567   -8.1836 C   0  0  0  0  0  0  0  0  0  0  0  0
   38.2440   15.2703   -9.5098 C   0  0  0  0  0  0  0  0  0  0  0  0
   36.3662   14.7437   -6.3026 N   0  0  0  0  0  0  0  0  0  0  0  0
   36.1544   13.3323   -6.0716 C   0  0  0  0  0  0  0  0  0  0  0  0
   36.3362   15.7169   -5.3160 C   0  0  0  0  0  0  0  0  0  0  0  0
   36.7561   16.8936   -5.7352 O   0  0  0  0  0  0  0  0  0  0  0  0
   35.9382   15.6961   -3.9148 C   0  0  0  0  0  0  0  0  0  0  0  0
   34.6050   15.8891   -3.5412 N   0  0  0  0  0  0  0  0  0  0  0  0
   33.6294   14.9524   -3.9837 C   0  0  0  0  0  0  0  0  0  0  0  0
   32.7707   15.5007   -5.1019 C   0  0  0  0  0  0  0  0  0  0  0  0
   32.1559   16.7414   -4.7822 N   0  0  0  0  0  0  0  0  0  0  0  0
   31.6457   17.4781   -5.8781 C   0  0  0  0  0  0  0  0  0  0  0  0
   32.7232   17.4770   -3.7144 C   0  0  0  0  0  0  0  0  0  0  0  0
   34.1313   17.2122   -3.3617 C   0  0  0  0  0  0  0  0  0  0  0  0
 21 22  1  0  0  0
 22 19  1  0  0  0
 19 20  2  0  0  0
 19  1  1  0  0  0
  1  2  2  0  0  0
  2  3  1  0  0  0
  3  4  2  0  0  0
  4  5  1  0  0  0
  5  6  2  0  0  0
  6 23  1  0  0  0
 23 25  1  0  0  0
 25 26  2  0  0  0
 26 27  1  0  0  0
 27 28  2  0  0  0
 28 29  1  0  0  0
 29 30  2  0  0  0
 28 31  1  0  0  0
 31 32  1  0  0  0
 31 33  1  0  0  0
 33 34  2  0  0  0
 33 35  1  0  0  0
 35 36  1  0  0  0
 36 37  1  0  0  0
 37 38  1  0  0  0
 38 39  1  0  0  0
 39 40  1  0  0  0
 39 41  1  0  0  0
 41 42  1  0  0  0
  6 13  1  0  0  0
 13 14  2  0  0  0
 14 15  1  0  0  0
 15 16  2  0  0  0
 16 17  1  0  0  0
 17 18  2  0  0  0
  5  7  1  0  0  0
  7  8  2  0  0  0
  7  9  1  0  0  0
  9 10  1  0  0  0
 10 11  2  0  0  0
 11  1  1  0  0  0
 10  4  1  0  0  0
 30 25  1  0  0  0
 42 36  1  0  0  0
 18 13  1  0  0  0
 23 24  1  0  0  0
  9 12  1  0  0  0
M  END
> <minimizedAffinity>
-8.82209

> <CNNscore>
0.1335945576

> <CNNaffinity>
6.0960545540

> <CNN_VS>
0.8143997192

> <CNNaffinity_variance>
0.1610801518

$$$$
[H]c1c([H])c([H])c(/C(=C2/C(=O)N([H])c3c([H])c(C(=O)OC([H])([H])[H])c([H])c([H])c32)N([H])c2c([H])c([H])c(N(C(=O)C([H])([H])N3C([H])([H])C([H])([H])N(C([H])([H])[H])C([H])([H])C3([H])[H])C([H])([H])[H])c([H])c2[H])c([H])c1[H]


 42 46  0  0  0  0  0  0  0  0999 V2000
   40.5364   12.4402  -16.8509 C   0  0  0  0  0  0  0  0  0  0  0  0
   41.8129   12.2801  -16.4067 C   0  0  0  0  0  0  0  0  0  0  0  0
   42.3051   12.9542  -15.2829 C   0  0  0  0  0  0  0  0  0  0  0  0
   41.4488   13.7992  -14.6294 C   0  0  0  0  0  0  0  0  0  0  0  0
   41.6450   14.6111  -13.4419 C   0  0  0  0  0  0  0  0  0  0  0  0
   42.7396   14.8291  -12.7632 C   0  0  0  0  0  0  0  0  0  0  0  0
   40.3309   15.2815  -13.2071 C   0  0  0  0  0  0  0  0  0  0  0  0
   40.0580   16.0631  -12.2914 O   0  0  0  0  0  0  0  0  0  0  0  0
   39.4335   14.8673  -14.2244 N   0  0  0  0  0  0  0  0  0  0  0  0
   40.1383   13.9723  -15.0702 C   0  0  0  0  0  0  0  0  0  0  0  0
   39.6865   13.2920  -16.1807 C   0  0  0  0  0  0  0  0  0  0  0  0
   38.4204   15.1658  -14.3401 H   0  0  0  0  0  0  0  0  0  0  0  0
   44.0478   14.4157  -13.1672 C   0  0  0  0  0  0  0  0  0  0  0  0
   44.8310   14.9977  -14.1364 C   0  0  0  0  0  0  0  0  0  0  0  0
   46.0279   14.4656  -14.5426 C   0  0  0  0  0  0  0  0  0  0  0  0
   46.4846   13.3066  -13.9748 C   0  0  0  0  0  0  0  0  0  0  0  0
   45.7408   12.6849  -13.0020 C   0  0  0  0  0  0  0  0  0  0  0  0
   44.5499   13.2267  -12.6071 C   0  0  0  0  0  0  0  0  0  0  0  0
   40.0008   11.7526  -18.0182 C   0  0  0  0  0  0  0  0  0  0  0  0
   40.7140   11.2830  -18.9257 O   0  0  0  0  0  0  0  0  0  0  0  0
   37.9564   10.3869  -18.0703 C   0  0  0  0  0  0  0  0  0  0  0  0
   38.6167   11.6253  -18.1027 O   0  0  0  0  0  0  0  0  0  0  0  0
   42.6468   15.6627  -11.6160 N   0  0  0  0  0  0  0  0  0  0  0  0
   41.6511   15.9103  -11.3354 H   0  0  0  0  0  0  0  0  0  0  0  0
   43.7557   16.1474  -10.8759 C   0  0  0  0  0  0  0  0  0  0  0  0
   44.1465   15.5982   -9.6773 C   0  0  0  0  0  0  0  0  0  0  0  0
   45.2481   16.1002   -8.9736 C   0  0  0  0  0  0  0  0  0  0  0  0
   45.9610   17.1603   -9.4777 C   0  0  0  0  0  0  0  0  0  0  0  0
   45.5718   17.7100  -10.6749 C   0  0  0  0  0  0  0  0  0  0  0  0
   44.4756   17.2103  -11.3749 C   0  0  0  0  0  0  0  0  0  0  0  0
   47.1086   17.6770   -8.7408 N   0  0  0  0  0  0  0  0  0  0  0  0
   48.3803   17.1905   -9.2271 C   0  0  0  0  0  0  0  0  0  0  0  0
   46.9565   18.5891   -7.7082 C   0  0  0  0  0  0  0  0  0  0  0  0
   45.7208   19.0296   -7.5831 O   0  0  0  0  0  0  0  0  0  0  0  0
   47.8871   19.1567   -6.7418 C   0  0  0  0  0  0  0  0  0  0  0  0
   47.4749   20.1360   -5.8334 N   0  0  0  0  0  0  0  0  0  0  0  0
   47.0533   19.7301   -4.5363 C   0  0  0  0  0  0  0  0  0  0  0  0
   45.5510   19.7961   -4.3725 C   0  0  0  0  0  0  0  0  0  0  0  0
   45.0056   21.0684   -4.6941 N   0  0  0  0  0  0  0  0  0  0  0  0
   43.6073   21.1035   -4.9119 C   0  0  0  0  0  0  0  0  0  0  0  0
   45.8071   21.9227   -5.4884 C   0  0  0  0  0  0  0  0  0  0  0  0
   46.8524   21.3082   -6.3293 C   0  0  0  0  0  0  0  0  0  0  0  0
 21 22  1  0  0  0
 22 19  1  0  0  0
 19 20  2  0  0  0
 19  1  1  0  0  0
  1  2  2  0  0  0
  2  3  1  0  0  0
  3  4  2  0  0  0
  4  5  1  0  0  0
  5  6  2  0  0  0
  6 23  1  0  0  0
 23 25  1  0  0  0
 25 26  2  0  0  0
 26 27  1  0  0  0
 27 28  2  0  0  0
 28 29  1  0  0  0
 29 30  2  0  0  0
 28 31  1  0  0  0
 31 32  1  0  0  0
 31 33  1  0  0  0
 33 34  2  0  0  0
 33 35  1  0  0  0
 35 36  1  0  0  0
 36 37  1  0  0  0
 37 38  1  0  0  0
 38 39  1  0  0  0
 39 40  1  0  0  0
 39 41  1  0  0  0
 41 42  1  0  0  0
  6 13  1  0  0  0
 13 14  2  0  0  0
 14 15  1  0  0  0
 15 16  2  0  0  0
 16 17  1  0  0  0
 17 18  2  0  0  0
  5  7  1  0  0  0
  7  8  2  0  0  0
  7  9  1  0  0  0
  9 10  1  0  0  0
 10 11  2  0  0  0
 11  1  1  0  0  0
 10  4  1  0  0  0
 30 25  1  0  0  0
 42 36  1  0  0  0
 18 13  1  0  0  0
 23 24  1  0  0  0
  9 12  1  0  0  0
M  END
> <minimizedAffinity>
-6.97393

> <CNNscore>
0.1300713122

> <CNNaffinity>
5.7386708260

> <CNN_VS>
0.7464364171

> <CNNaffinity_variance>
0.2566024959

$$$$
[H]c1c([H])c([H])c(/C(=C2/C(=O)N([H])c3c([H])c(C(=O)OC([H])([H])[H])c([H])c([H])c32)N([H])c2c([H])c([H])c(N(C(=O)C([H])([H])N3C([H])([H])C([H])([H])N(C([H])([H])[H])C([H])([H])C3([H])[H])C([H])([H])[H])c([H])c2[H])c([H])c1[H]


 42 46  0  0  0  0  0  0  0  0999 V2000
   35.3071   12.1112  -14.9100 C   0  0  0  0  0  0  0  0  0  0  0  0
   36.6276   11.8845  -15.1489 C   0  0  0  0  0  0  0  0  0  0  0  0
   37.6348   12.7049  -14.6273 C   0  0  0  0  0  0  0  0  0  0  0  0
   37.2465   13.7663  -13.8547 C   0  0  0  0  0  0  0  0  0  0  0  0
   38.0345   14.7709  -13.1637 C   0  0  0  0  0  0  0  0  0  0  0  0
   39.3229   14.9819  -13.2067 C   0  0  0  0  0  0  0  0  0  0  0  0
   37.0368   15.6356  -12.4650 C   0  0  0  0  0  0  0  0  0  0  0  0
   37.2828   16.6149  -11.7549 O   0  0  0  0  0  0  0  0  0  0  0  0
   35.7399   15.1404  -12.7555 N   0  0  0  0  0  0  0  0  0  0  0  0
   35.8987   14.0106  -13.5990 C   0  0  0  0  0  0  0  0  0  0  0  0
   34.9328   13.1817  -14.1285 C   0  0  0  0  0  0  0  0  0  0  0  0
   34.8156   15.5349  -12.4106 H   0  0  0  0  0  0  0  0  0  0  0  0
   40.2280   14.3332  -14.1041 C   0  0  0  0  0  0  0  0  0  0  0  0
   41.3981   13.6922  -13.7705 C   0  0  0  0  0  0  0  0  0  0  0  0
   42.2671   13.1968  -14.7087 C   0  0  0  0  0  0  0  0  0  0  0  0
   41.9807   13.3334  -16.0403 C   0  0  0  0  0  0  0  0  0  0  0  0
   40.8245   13.9656  -16.4275 C   0  0  0  0  0  0  0  0  0  0  0  0
   39.9678   14.4543  -15.4815 C   0  0  0  0  0  0  0  0  0  0  0  0
   34.2401   11.2743  -15.4424 C   0  0  0  0  0  0  0  0  0  0  0  0
   33.2577   10.9044  -14.7709 O   0  0  0  0  0  0  0  0  0  0  0  0
   33.2322   10.5774  -17.5745 C   0  0  0  0  0  0  0  0  0  0  0  0
   34.3449   10.8792  -16.7736 O   0  0  0  0  0  0  0  0  0  0  0  0
   39.8434   16.0360  -12.4081 N   0  0  0  0  0  0  0  0  0  0  0  0
   39.1432   16.8070  -12.1921 H   0  0  0  0  0  0  0  0  0  0  0  0
   41.1729   16.0989  -11.9173 C   0  0  0  0  0  0  0  0  0  0  0  0
   42.2123   16.6199  -12.6516 C   0  0  0  0  0  0  0  0  0  0  0  0
   43.5130   16.6686  -12.1352 C   0  0  0  0  0  0  0  0  0  0  0  0
   43.7703   16.1911  -10.8735 C   0  0  0  0  0  0  0  0  0  0  0  0
   42.7329   15.6704  -10.1388 C   0  0  0  0  0  0  0  0  0  0  0  0
   41.4388   15.6219  -10.6529 C   0  0  0  0  0  0  0  0  0  0  0  0
   45.1268   16.2469  -10.3408 N   0  0  0  0  0  0  0  0  0  0  0  0
   45.3680   17.3823   -9.4789 C   0  0  0  0  0  0  0  0  0  0  0  0
   46.0556   15.2559  -10.6171 C   0  0  0  0  0  0  0  0  0  0  0  0
   45.5411   14.2275  -11.2608 O   0  0  0  0  0  0  0  0  0  0  0  0
   47.4789   15.1249  -10.3355 C   0  0  0  0  0  0  0  0  0  0  0  0
   47.9295   14.6907   -9.0855 N   0  0  0  0  0  0  0  0  0  0  0  0
   47.4425   13.4545   -8.5757 C   0  0  0  0  0  0  0  0  0  0  0  0
   46.4230   13.6475   -7.4751 C   0  0  0  0  0  0  0  0  0  0  0  0
   46.8893   14.4704   -6.4144 N   0  0  0  0  0  0  0  0  0  0  0  0
   45.8945   14.9830   -5.5475 C   0  0  0  0  0  0  0  0  0  0  0  0
   47.9969   15.3054   -6.6959 C   0  0  0  0  0  0  0  0  0  0  0  0
   48.2581   15.6587   -8.1045 C   0  0  0  0  0  0  0  0  0  0  0  0
 21 22  1  0  0  0
 22 19  1  0  0  0
 19 20  2  0  0  0
 19  1  1  0  0  0
  1  2  2  0  0  0
  2  3  1  0  0  0
  3  4  2  0  0  0
  4  5  1  0  0  0
  5  6  2  0  0  0
  6 23  1  0  0  0
 23 25  1  0  0  0
 25 26  2  0  0  0
 26 27  1  0  0  0
 27 28  2  0  0  0
 28 29  1  0  0  0
 29 30  2  0  0  0
 28 31  1  0  0  0
 31 32  1  0  0  0
 31 33  1  0  0  0
 33 34  2  0  0  0
 33 35  1  0  0  0
 35 36  1  0  0  0
 36 37  1  0  0  0
 37 38  1  0  0  0
 38 39  1  0  0  0
 39 40  1  0  0  0
 39 41  1  0  0  0
 41 42  1  0  0  0
  6 13  1  0  0  0
 13 14  2  0  0  0
 14 15  1  0  0  0
 15 16  2  0  0  0
 16 17  1  0  0  0
 17 18  2  0  0  0
  5  7  1  0  0  0
  7  8  2  0  0  0
  7  9  1  0  0  0
  9 10  1  0  0  0
 10 11  2  0  0  0
 11  1  1  0  0  0
 10  4  1  0  0  0
 30 25  1  0  0  0
 42 36  1  0  0  0
 18 13  1  0  0  0
 23 24  1  0  0  0
  9 12  1  0  0  0
M  END
> <minimizedAffinity>
-7.69133

> <CNNscore>
0.1285414547

> <CNNaffinity>
6.1589398384

> <CNN_VS>
0.7916790843

> <CNNaffinity_variance>
0.0899590403

$$$$
[H]c1c([H])c([H])c(/C(=C2/C(=O)N([H])c3c([H])c(C(=O)OC([H])([H])[H])c([H])c([H])c32)N([H])c2c([H])c([H])c(N(C(=O)C([H])([H])N3C([H])([H])C([H])([H])N(C([H])([H])[H])C([H])([H])C3([H])[H])C([H])([H])[H])c([H])c2[H])c([H])c1[H]


 42 46  0  0  0  0  0  0  0  0999 V2000
   38.1863   12.6185  -15.1826 C   0  0  0  0  0  0  0  0  0  0  0  0
   38.4999   13.2597  -14.0238 C   0  0  0  0  0  0  0  0  0  0  0  0
   37.5223   13.7718  -13.1628 C   0  0  0  0  0  0  0  0  0  0  0  0
   36.2128   13.6082  -13.5272 C   0  0  0  0  0  0  0  0  0  0  0  0
   34.9879   13.9986  -12.8526 C   0  0  0  0  0  0  0  0  0  0  0  0
   34.8340   14.7177  -11.7730 C   0  0  0  0  0  0  0  0  0  0  0  0
   33.8853   13.5109  -13.7345 C   0  0  0  0  0  0  0  0  0  0  0  0
   32.6737   13.6319  -13.5312 O   0  0  0  0  0  0  0  0  0  0  0  0
   34.4666   12.8764  -14.8620 N   0  0  0  0  0  0  0  0  0  0  0  0
   35.8752   12.9520  -14.7092 C   0  0  0  0  0  0  0  0  0  0  0  0
   36.8641   12.4595  -15.5337 C   0  0  0  0  0  0  0  0  0  0  0  0
   33.9518   12.4254  -15.6747 H   0  0  0  0  0  0  0  0  0  0  0  0
   35.8833   15.4218  -11.1034 C   0  0  0  0  0  0  0  0  0  0  0  0
   36.2609   16.7276  -11.3126 C   0  0  0  0  0  0  0  0  0  0  0  0
   37.3562   17.2899  -10.7084 C   0  0  0  0  0  0  0  0  0  0  0  0
   38.1225   16.5407   -9.8567 C   0  0  0  0  0  0  0  0  0  0  0  0
   37.7890   15.2309   -9.6130 C   0  0  0  0  0  0  0  0  0  0  0  0
   36.6947   14.6838  -10.2221 C   0  0  0  0  0  0  0  0  0  0  0  0
   39.1842   12.0787  -16.0964 C   0  0  0  0  0  0  0  0  0  0  0  0
   38.9117   11.2929  -17.0243 O   0  0  0  0  0  0  0  0  0  0  0  0
   41.0684   13.5980  -16.5305 C   0  0  0  0  0  0  0  0  0  0  0  0
   40.5049   12.4755  -15.9035 O   0  0  0  0  0  0  0  0  0  0  0  0
   33.5073   14.9376  -11.3134 N   0  0  0  0  0  0  0  0  0  0  0  0
   32.7521   14.5761  -11.9695 H   0  0  0  0  0  0  0  0  0  0  0  0
   33.1692   15.5776  -10.0934 C   0  0  0  0  0  0  0  0  0  0  0  0
   31.9872   16.2568   -9.9130 C   0  0  0  0  0  0  0  0  0  0  0  0
   31.6841   16.8756   -8.6940 C   0  0  0  0  0  0  0  0  0  0  0  0
   32.5743   16.8111   -7.6501 C   0  0  0  0  0  0  0  0  0  0  0  0
   33.7555   16.1328   -7.8288 C   0  0  0  0  0  0  0  0  0  0  0  0
   34.0568   15.5173   -9.0419 C   0  0  0  0  0  0  0  0  0  0  0  0
   32.2516   17.4558   -6.3824 N   0  0  0  0  0  0  0  0  0  0  0  0
   31.2334   16.7672   -5.6211 C   0  0  0  0  0  0  0  0  0  0  0  0
   32.9181   18.5944   -5.9577 C   0  0  0  0  0  0  0  0  0  0  0  0
   33.9367   18.9174   -6.7289 O   0  0  0  0  0  0  0  0  0  0  0  0
   32.7193   19.4977   -4.8321 C   0  0  0  0  0  0  0  0  0  0  0  0
   32.6565   20.8814   -5.0206 N   0  0  0  0  0  0  0  0  0  0  0  0
   31.7864   21.3953   -6.0226 C   0  0  0  0  0  0  0  0  0  0  0  0
   32.5357   21.8639   -7.2503 C   0  0  0  0  0  0  0  0  0  0  0  0
   33.5625   22.8020   -6.9585 N   0  0  0  0  0  0  0  0  0  0  0  0
   34.5218   23.0048   -7.9796 C   0  0  0  0  0  0  0  0  0  0  0  0
   34.0204   22.8494   -5.6201 C   0  0  0  0  0  0  0  0  0  0  0  0
   33.8166   21.6569   -4.7754 C   0  0  0  0  0  0  0  0  0  0  0  0
 21 22  1  0  0  0
 22 19  1  0  0  0
 19 20  2  0  0  0
 19  1  1  0  0  0
  1  2  2  0  0  0
  2  3  1  0  0  0
  3  4  2  0  0  0
  4  5  1  0  0  0
  5  6  2  0  0  0
  6 23  1  0  0  0
 23 25  1  0  0  0
 25 26  2  0  0  0
 26 27  1  0  0  0
 27 28  2  0  0  0
 28 29  1  0  0  0
 29 30  2  0  0  0
 28 31  1  0  0  0
 31 32  1  0  0  0
 31 33  1  0  0  0
 33 34  2  0  0  0
 33 35  1  0  0  0
 35 36  1  0  0  0
 36 37  1  0  0  0
 37 38  1  0  0  0
 38 39  1  0  0  0
 39 40  1  0  0  0
 39 41  1  0  0  0
 41 42  1  0  0  0
  6 13  1  0  0  0
 13 14  2  0  0  0
 14 15  1  0  0  0
 15 16  2  0  0  0
 16 17  1  0  0  0
 17 18  2  0  0  0
  5  7  1  0  0  0
  7  8  2  0  0  0
  7  9  1  0  0  0
  9 10  1  0  0  0
 10 11  2  0  0  0
 11  1  1  0  0  0
 10  4  1  0  0  0
 30 25  1  0  0  0
 42 36  1  0  0  0
 18 13  1  0  0  0
 23 24  1  0  0  0
  9 12  1  0  0  0
M  END
> <minimizedAffinity>
-7.96925

> <CNNscore>
0.1274899840

> <CNNaffinity>
6.0205011368

> <CNN_VS>
0.7675535679

> <CNNaffinity_variance>
0.4264730513

$$$$
[H]c1c([H])c([H])c2c(c1[H])c1c3c(c4c5c([H])c([H])c([H])c([H])c5n5c4c1n2[C@]1([H])O[C@]5(C([H])([H])[H])[C@]([H])(OC([H])([H])[H])[C@@]([H])(N([H])C([H])([H])[H])C1([H])[H])C([H])([H])N([H])C3=O


 37 44  0  0  0  0  0  0  0  0999 V2000
   34.1786   14.8291  -11.8353 C   0  0  0  0  0  0  0  0  0  0  0  0
   34.0505   13.6112  -12.8082 C   0  0  0  0  0  0  0  0  0  0  0  0
   35.3405   13.4951  -13.2636 C   0  0  0  0  0  0  0  0  0  0  0  0
   36.0791   13.2508  -12.1096 O   0  0  0  0  0  0  0  0  0  0  0  0
   36.6929   14.4979  -11.7708 C   0  0  0  0  0  0  0  0  0  0  0  0
   37.1195   14.2128  -10.3098 C   0  0  0  0  0  0  0  0  0  0  0  0
   35.6041   15.4498  -11.8661 C   0  0  0  0  0  0  0  0  0  0  0  0
   37.8659   14.5404  -12.6187 N   0  0  0  0  0  0  0  0  0  0  0  0
   39.0330   15.1653  -12.3203 C   0  0  0  0  0  0  0  0  0  0  0  0
   39.3955   15.9921  -11.2959 C   0  0  0  0  0  0  0  0  0  0  0  0
   40.6806   16.5144  -11.2267 C   0  0  0  0  0  0  0  0  0  0  0  0
   41.6450   16.2175  -12.1949 C   0  0  0  0  0  0  0  0  0  0  0  0
   41.2882   15.3840  -13.2340 C   0  0  0  0  0  0  0  0  0  0  0  0
   40.0041   14.8845  -13.2697 C   0  0  0  0  0  0  0  0  0  0  0  0
   39.4351   14.0727  -14.1825 C   0  0  0  0  0  0  0  0  0  0  0  0
   39.8447   13.4008  -15.3443 C   0  0  0  0  0  0  0  0  0  0  0  0
   41.1728   13.4370  -15.9783 C   0  0  0  0  0  0  0  0  0  0  0  0
   41.0557   12.5911  -17.1385 N   0  0  0  0  0  0  0  0  0  0  0  0
   39.7219   12.0451  -17.2084 C   0  0  0  0  0  0  0  0  0  0  0  0
   39.4238   11.2798  -18.1386 O   0  0  0  0  0  0  0  0  0  0  0  0
   39.0057   12.5769  -16.0730 C   0  0  0  0  0  0  0  0  0  0  0  0
   37.6905   12.3802  -15.6755 C   0  0  0  0  0  0  0  0  0  0  0  0
   36.5951   11.7097  -16.1435 C   0  0  0  0  0  0  0  0  0  0  0  0
   36.3901   10.8944  -17.2075 C   0  0  0  0  0  0  0  0  0  0  0  0
   35.1010   10.3615  -17.3902 C   0  0  0  0  0  0  0  0  0  0  0  0
   34.0856   10.6636  -16.5103 C   0  0  0  0  0  0  0  0  0  0  0  0
   34.3080   11.4996  -15.4243 C   0  0  0  0  0  0  0  0  0  0  0  0
   35.5703   12.0061  -15.2676 C   0  0  0  0  0  0  0  0  0  0  0  0
   35.9943   12.8146  -14.3028 N   0  0  0  0  0  0  0  0  0  0  0  0
   37.3127   13.0470  -14.5394 C   0  0  0  0  0  0  0  0  0  0  0  0
   38.1666   13.8778  -13.7933 C   0  0  0  0  0  0  0  0  0  0  0  0
   41.8545   12.4361  -17.7938 H   0  0  0  0  0  0  0  0  0  0  0  0
   31.9918   15.8117  -11.7609 C   0  0  0  0  0  0  0  0  0  0  0  0
   33.2806   15.8336  -12.3735 N   0  0  0  0  0  0  0  0  0  0  0  0
   33.1984   15.6857  -13.4244 H   0  0  0  0  0  0  0  0  0  0  0  0
   35.5861   16.1728  -10.6368 O   0  0  0  0  0  0  0  0  0  0  0  0
   36.3770   17.2778  -10.6433 C   0  0  0  0  0  0  0  0  0  0  0  0
 33 34  1  0  0  0
 34  1  1  0  0  0
  1  2  1  0  0  0
  2  3  1  0  0  0
  3  4  1  0  0  0
  4  5  1  0  0  0
  5  6  1  0  0  0
  5  7  1  0  0  0
  7 36  1  0  0  0
 36 37  1  0  0  0
  5  8  1  0  0  0
  8  9  1  0  0  0
  9 10  2  0  0  0
 10 11  1  0  0  0
 11 12  2  0  0  0
 12 13  1  0  0  0
 13 14  2  0  0  0
 14 15  1  0  0  0
 15 16  2  0  0  0
 16 17  1  0  0  0
 17 18  1  0  0  0
 18 19  1  0  0  0
 19 20  2  0  0  0
 19 21  1  0  0  0
 21 22  2  0  0  0
 22 23  1  0  0  0
 23 24  2  0  0  0
 24 25  1  0  0  0
 25 26  2  0  0  0
 26 27  1  0  0  0
 27 28  2  0  0  0
 28 29  1  0  0  0
 29 30  1  0  0  0
 30 31  2  0  0  0
  7  1  1  0  0  0
 31  8  1  0  0  0
 29  3  1  0  0  0
 14  9  1  0  0  0
 31 15  1  0  0  0
 21 16  1  0  0  0
 30 22  1  0  0  0
 28 23  1  0  0  0
 34 35  1  0  0  0
 18 32  1  0  0  0
M  END
> <minimizedAffinity>
-11.11739

> <CNNscore>
0.6463197470

> <CNNaffinity>
7.2720007896

> <CNN_VS>
4.7000374794

> <CNNaffinity_variance>
0.0904759318

$$$$
[H]c1c([H])c([H])c2c(c1[H])c1c3c(c4c5c([H])c([H])c([H])c([H])c5n5c4c1n2[C@]1([H])O[C@]5(C([H])([H])[H])[C@]([H])(OC([H])([H])[H])[C@@]([H])(N([H])C([H])([H])[H])C1([H])[H])C([H])([H])N([H])C3=O


 37 44  0  0  0  0  0  0  0  0999 V2000
   34.2787   13.8829  -13.5894 C   0  0  0  0  0  0  0  0  0  0  0  0
   34.8151   12.7662  -14.5440 C   0  0  0  0  0  0  0  0  0  0  0  0
   36.1716   12.9444  -14.4294 C   0  0  0  0  0  0  0  0  0  0  0  0
   36.4211   12.7318  -13.0768 O   0  0  0  0  0  0  0  0  0  0  0  0
   36.5646   14.0329  -12.4996 C   0  0  0  0  0  0  0  0  0  0  0  0
   36.4222   13.6903  -10.9963 C   0  0  0  0  0  0  0  0  0  0  0  0
   35.4278   14.7642  -13.0227 C   0  0  0  0  0  0  0  0  0  0  0  0
   37.9396   14.3829  -12.7888 N   0  0  0  0  0  0  0  0  0  0  0  0
   38.7261   15.1861  -12.0285 C   0  0  0  0  0  0  0  0  0  0  0  0
   38.4619   15.9605  -10.9353 C   0  0  0  0  0  0  0  0  0  0  0  0
   39.4671   16.7090  -10.3367 C   0  0  0  0  0  0  0  0  0  0  0  0
   40.7773   16.6996  -10.8257 C   0  0  0  0  0  0  0  0  0  0  0  0
   41.0538   15.9212  -11.9299 C   0  0  0  0  0  0  0  0  0  0  0  0
   40.0312   15.1920  -12.4974 C   0  0  0  0  0  0  0  0  0  0  0  0
   40.0634   14.3816  -13.5737 C   0  0  0  0  0  0  0  0  0  0  0  0
   41.0372   13.9195  -14.4721 C   0  0  0  0  0  0  0  0  0  0  0  0
   42.4662   14.2716  -14.5026 C   0  0  0  0  0  0  0  0  0  0  0  0
   43.0074   13.5389  -15.6186 N   0  0  0  0  0  0  0  0  0  0  0  0
   41.9642   12.7581  -16.2383 C   0  0  0  0  0  0  0  0  0  0  0  0
   42.2348   12.0466  -17.2183 O   0  0  0  0  0  0  0  0  0  0  0  0
   40.7579   13.0275  -15.4919 C   0  0  0  0  0  0  0  0  0  0  0  0
   39.4693   12.5448  -15.6736 C   0  0  0  0  0  0  0  0  0  0  0  0
   38.8244   11.7276  -16.5595 C   0  0  0  0  0  0  0  0  0  0  0  0
   39.2422   10.9984  -17.6238 C   0  0  0  0  0  0  0  0  0  0  0  0
   38.2810   10.2502  -18.3276 C   0  0  0  0  0  0  0  0  0  0  0  0
   36.9596   10.2637  -17.9402 C   0  0  0  0  0  0  0  0  0  0  0  0
   36.5441   11.0141  -16.8484 C   0  0  0  0  0  0  0  0  0  0  0  0
   37.4974   11.7341  -16.1796 C   0  0  0  0  0  0  0  0  0  0  0  0
   37.3159   12.5083  -15.1157 N   0  0  0  0  0  0  0  0  0  0  0  0
   38.5352   13.0105  -14.7855 C   0  0  0  0  0  0  0  0  0  0  0  0
   38.8195   13.9104  -13.7437 C   0  0  0  0  0  0  0  0  0  0  0  0
   44.0144   13.6054  -15.8889 H   0  0  0  0  0  0  0  0  0  0  0  0
   33.1030   14.1252  -15.6660 C   0  0  0  0  0  0  0  0  0  0  0  0
   33.4776   14.7461  -14.4369 N   0  0  0  0  0  0  0  0  0  0  0  0
   34.0236   15.6412  -14.6206 H   0  0  0  0  0  0  0  0  0  0  0  0
   34.7651   15.3442  -11.9009 O   0  0  0  0  0  0  0  0  0  0  0  0
   33.4114   15.2370  -11.9529 C   0  0  0  0  0  0  0  0  0  0  0  0
 33 34  1  0  0  0
 34  1  1  0  0  0
  1  2  1  0  0  0
  2  3  1  0  0  0
  3  4  1  0  0  0
  4  5  1  0  0  0
  5  6  1  0  0  0
  5  7  1  0  0  0
  7 36  1  0  0  0
 36 37  1  0  0  0
  5  8  1  0  0  0
  8  9  1  0  0  0
  9 10  2  0  0  0
 10 11  1  0  0  0
 11 12  2  0  0  0
 12 13  1  0  0  0
 13 14  2  0  0  0
 14 15  1  0  0  0
 15 16  2  0  0  0
 16 17  1  0  0  0
 17 18  1  0  0  0
 18 19  1  0  0  0
 19 20  2  0  0  0
 19 21  1  0  0  0
 21 22  2  0  0  0
 22 23  1  0  0  0
 23 24  2  0  0  0
 24 25  1  0  0  0
 25 26  2  0  0  0
 26 27  1  0  0  0
 27 28  2  0  0  0
 28 29  1  0  0  0
 29 30  1  0  0  0
 30 31  2  0  0  0
  7  1  1  0  0  0
 31  8  1  0  0  0
 29  3  1  0  0  0
 14  9  1  0  0  0
 31 15  1  0  0  0
 21 16  1  0  0  0
 30 22  1  0  0  0
 28 23  1  0  0  0
 34 35  1  0  0  0
 18 32  1  0  0  0
M  END
> <minimizedAffinity>
-9.10371

> <CNNscore>
0.4116431177

> <CNNaffinity>
7.0070495605

> <CNN_VS>
2.8844037056

> <CNNaffinity_variance>
0.1671586931

$$$$
[H]c1c([H])c([H])c2c(c1[H])c1c3c(c4c5c([H])c([H])c([H])c([H])c5n5c4c1n2[C@]1([H])O[C@]5(C([H])([H])[H])[C@]([H])(OC([H])([H])[H])[C@@]([H])(N([H])C([H])([H])[H])C1([H])[H])C([H])([H])N([H])C3=O


 37 44  0  0  0  0  0  0  0  0999 V2000
   39.0757   15.7154  -10.2063 C   0  0  0  0  0  0  0  0  0  0  0  0
   40.2731   15.6281  -11.2087 C   0  0  0  0  0  0  0  0  0  0  0  0
   39.6832   14.9989  -12.2769 C   0  0  0  0  0  0  0  0  0  0  0  0
   38.6638   15.8687  -12.6527 O   0  0  0  0  0  0  0  0  0  0  0  0
   37.4600   15.3090  -12.1194 C   0  0  0  0  0  0  0  0  0  0  0  0
   36.5096   16.5260  -12.2346 C   0  0  0  0  0  0  0  0  0  0  0  0
   37.8100   14.9929  -10.7489 C   0  0  0  0  0  0  0  0  0  0  0  0
   37.0878   14.3090  -13.0983 N   0  0  0  0  0  0  0  0  0  0  0  0
   35.8205   13.9136  -13.3797 C   0  0  0  0  0  0  0  0  0  0  0  0
   34.6199   14.1947  -12.7933 C   0  0  0  0  0  0  0  0  0  0  0  0
   33.4441   13.6413  -13.2835 C   0  0  0  0  0  0  0  0  0  0  0  0
   33.4435   12.7817  -14.3866 C   0  0  0  0  0  0  0  0  0  0  0  0
   34.6513   12.4910  -14.9853 C   0  0  0  0  0  0  0  0  0  0  0  0
   35.7973   13.0586  -14.4713 C   0  0  0  0  0  0  0  0  0  0  0  0
   37.0732   12.9113  -14.8795 C   0  0  0  0  0  0  0  0  0  0  0  0
   37.7402   12.2403  -15.9158 C   0  0  0  0  0  0  0  0  0  0  0  0
   37.1479   11.3759  -16.9497 C   0  0  0  0  0  0  0  0  0  0  0  0
   38.2614   10.9341  -17.7497 N   0  0  0  0  0  0  0  0  0  0  0  0
   39.4826   11.5122  -17.2431 C   0  0  0  0  0  0  0  0  0  0  0  0
   40.5583   11.2569  -17.8066 O   0  0  0  0  0  0  0  0  0  0  0  0
   39.1088   12.3155  -16.1030 C   0  0  0  0  0  0  0  0  0  0  0  0
   39.8970   13.0741  -15.2488 C   0  0  0  0  0  0  0  0  0  0  0  0
   41.2284   13.3401  -15.0904 C   0  0  0  0  0  0  0  0  0  0  0  0
   42.3361   12.9811  -15.7854 C   0  0  0  0  0  0  0  0  0  0  0  0
   43.5811   13.4504  -15.3285 C   0  0  0  0  0  0  0  0  0  0  0  0
   43.6624   14.2492  -14.2098 C   0  0  0  0  0  0  0  0  0  0  0  0
   42.5210   14.6103  -13.5066 C   0  0  0  0  0  0  0  0  0  0  0  0
   41.3211   14.1413  -13.9703 C   0  0  0  0  0  0  0  0  0  0  0  0
   40.1190   14.3689  -13.4532 N   0  0  0  0  0  0  0  0  0  0  0  0
   39.2243   13.7192  -14.2440 C   0  0  0  0  0  0  0  0  0  0  0  0
   37.8327   13.6504  -14.0578 C   0  0  0  0  0  0  0  0  0  0  0  0
   38.1380   10.2904  -18.5633 H   0  0  0  0  0  0  0  0  0  0  0  0
   39.7565   15.7995   -7.9079 C   0  0  0  0  0  0  0  0  0  0  0  0
   39.5086   14.9676   -9.0407 N   0  0  0  0  0  0  0  0  0  0  0  0
   40.3813   14.4153   -9.2980 H   0  0  0  0  0  0  0  0  0  0  0  0
   36.8112   15.5909   -9.9249 O   0  0  0  0  0  0  0  0  0  0  0  0
   36.0585   14.6898   -9.2407 C   0  0  0  0  0  0  0  0  0  0  0  0
 33 34  1  0  0  0
 34  1  1  0  0  0
  1  2  1  0  0  0
  2  3  1  0  0  0
  3  4  1  0  0  0
  4  5  1  0  0  0
  5  6  1  0  0  0
  5  7  1  0  0  0
  7 36  1  0  0  0
 36 37  1  0  0  0
  5  8  1  0  0  0
  8  9  1  0  0  0
  9 10  2  0  0  0
 10 11  1  0  0  0
 11 12  2  0  0  0
 12 13  1  0  0  0
 13 14  2  0  0  0
 14 15  1  0  0  0
 15 16  2  0  0  0
 16 17  1  0  0  0
 17 18  1  0  0  0
 18 19  1  0  0  0
 19 20  2  0  0  0
 19 21  1  0  0  0
 21 22  2  0  0  0
 22 23  1  0  0  0
 23 24  2  0  0  0
 24 25  1  0  0  0
 25 26  2  0  0  0
 26 27  1  0  0  0
 27 28  2  0  0  0
 28 29  1  0  0  0
 29 30  1  0  0  0
 30 31  2  0  0  0
  7  1  1  0  0  0
 31  8  1  0  0  0
 29  3  1  0  0  0
 14  9  1  0  0  0
 31 15  1  0  0  0
 21 16  1  0  0  0
 30 22  1  0  0  0
 28 23  1  0  0  0
 34 35  1  0  0  0
 18 32  1  0  0  0
M  END
> <minimizedAffinity>
-10.90854

> <CNNscore>
0.3601589203

> <CNNaffinity>
6.8576841354

> <CNN_VS>
2.4698560238

> <CNNaffinity_variance>
0.1179279909

$$$$
[H]c1c([H])c([H])c2c(c1[H])c1c3c(c4c5c([H])c([H])c([H])c([H])c5n5c4c1n2[C@]1([H])O[C@]5(C([H])([H])[H])[C@]([H])(OC([H])([H])[H])[C@@]([H])(N([H])C([H])([H])[H])C1([H])[H])C([H])([H])N([H])C3=O


 37 44  0  0  0  0  0  0  0  0999 V2000
   40.6049   12.2434  -17.3631 C   0  0  0  0  0  0  0  0  0  0  0  0
   40.9955   12.9686  -16.0336 C   0  0  0  0  0  0  0  0  0  0  0  0
   39.7769   13.0544  -15.4071 C   0  0  0  0  0  0  0  0  0  0  0  0
   39.3852   11.7271  -15.2599 O   0  0  0  0  0  0  0  0  0  0  0  0
   38.4304   11.4871  -16.2979 C   0  0  0  0  0  0  0  0  0  0  0  0
   38.3919    9.9392  -16.2914 C   0  0  0  0  0  0  0  0  0  0  0  0
   39.0687   12.0316  -17.4797 C   0  0  0  0  0  0  0  0  0  0  0  0
   37.1946   12.0049  -15.7488 N   0  0  0  0  0  0  0  0  0  0  0  0
   35.9501   11.5465  -16.0364 C   0  0  0  0  0  0  0  0  0  0  0  0
   35.4946   10.6394  -16.9497 C   0  0  0  0  0  0  0  0  0  0  0  0
   34.1397   10.3494  -17.0465 C   0  0  0  0  0  0  0  0  0  0  0  0
   33.1972   10.9696  -16.2203 C   0  0  0  0  0  0  0  0  0  0  0  0
   33.6474   11.8879  -15.2952 C   0  0  0  0  0  0  0  0  0  0  0  0
   34.9988   12.1502  -15.2279 C   0  0  0  0  0  0  0  0  0  0  0  0
   35.6574   13.0061  -14.4218 C   0  0  0  0  0  0  0  0  0  0  0  0
   35.3255   13.8787  -13.3741 C   0  0  0  0  0  0  0  0  0  0  0  0
   33.9865   14.1532  -12.8277 C   0  0  0  0  0  0  0  0  0  0  0  0
   34.2007   15.1238  -11.7850 N   0  0  0  0  0  0  0  0  0  0  0  0
   35.6087   15.4222  -11.6815 C   0  0  0  0  0  0  0  0  0  0  0  0
   35.9991   16.2353  -10.8293 O   0  0  0  0  0  0  0  0  0  0  0  0
   36.2675   14.6254  -12.6894 C   0  0  0  0  0  0  0  0  0  0  0  0
   37.6122   14.5416  -13.0227 C   0  0  0  0  0  0  0  0  0  0  0  0
   38.7785   15.1345  -12.6264 C   0  0  0  0  0  0  0  0  0  0  0  0
   39.0787   16.0417  -11.6643 C   0  0  0  0  0  0  0  0  0  0  0  0
   40.4216   16.4384  -11.5292 C   0  0  0  0  0  0  0  0  0  0  0  0
   41.3939   15.9159  -12.3525 C   0  0  0  0  0  0  0  0  0  0  0  0
   41.0741   14.9873  -13.3340 C   0  0  0  0  0  0  0  0  0  0  0  0
   39.7608   14.6169  -13.4464 C   0  0  0  0  0  0  0  0  0  0  0  0
   39.2453   13.7476  -14.3082 N   0  0  0  0  0  0  0  0  0  0  0  0
   37.9123   13.6845  -14.0491 C   0  0  0  0  0  0  0  0  0  0  0  0
   36.9572   12.9188  -14.7401 C   0  0  0  0  0  0  0  0  0  0  0  0
   33.4122   15.5156  -11.2225 H   0  0  0  0  0  0  0  0  0  0  0  0
   40.7065   14.5306  -18.0783 C   0  0  0  0  0  0  0  0  0  0  0  0
   40.9737   13.1702  -18.4167 N   0  0  0  0  0  0  0  0  0  0  0  0
   40.4552   12.8964  -19.3051 H   0  0  0  0  0  0  0  0  0  0  0  0
   39.0346   11.0062  -18.4704 O   0  0  0  0  0  0  0  0  0  0  0  0
   38.1047   11.2155  -19.4390 C   0  0  0  0  0  0  0  0  0  0  0  0
 33 34  1  0  0  0
 34  1  1  0  0  0
  1  2  1  0  0  0
  2  3  1  0  0  0
  3  4  1  0  0  0
  4  5  1  0  0  0
  5  6  1  0  0  0
  5  7  1  0  0  0
  7 36  1  0  0  0
 36 37  1  0  0  0
  5  8  1  0  0  0
  8  9  1  0  0  0
  9 10  2  0  0  0
 10 11  1  0  0  0
 11 12  2  0  0  0
 12 13  1  0  0  0
 13 14  2  0  0  0
 14 15  1  0  0  0
 15 16  2  0  0  0
 16 17  1  0  0  0
 17 18  1  0  0  0
 18 19  1  0  0  0
 19 20  2  0  0  0
 19 21  1  0  0  0
 21 22  2  0  0  0
 22 23  1  0  0  0
 23 24  2  0  0  0
 24 25  1  0  0  0
 25 26  2  0  0  0
 26 27  1  0  0  0
 27 28  2  0  0  0
 28 29  1  0  0  0
 29 30  1  0  0  0
 30 31  2  0  0  0
  7  1  1  0  0  0
 31  8  1  0  0  0
 29  3  1  0  0  0
 14  9  1  0  0  0
 31 15  1  0  0  0
 21 16  1  0  0  0
 30 22  1  0  0  0
 28 23  1  0  0  0
 34 35  1  0  0  0
 18 32  1  0  0  0
M  END
> <minimizedAffinity>
-8.54432

> <CNNscore>
0.3212648630

> <CNNaffinity>
7.0553116798

> <CNN_VS>
2.2666237354

> <CNNaffinity_variance>
0.0947620720

$$$$
[H]c1c([H])c([H])c2c(c1[H])c1c3c(c4c5c([H])c([H])c([H])c([H])c5n5c4c1n2[C@]1([H])O[C@]5(C([H])([H])[H])[C@]([H])(OC([H])([H])[H])[C@@]([H])(N([H])C([H])([H])[H])C1([H])[H])C([H])([H])N([H])C3=O


 37 44  0  0  0  0  0  0  0  0999 V2000
   36.1151   14.6430  -11.7820 C   0  0  0  0  0  0  0  0  0  0  0  0
   37.4759   15.3998  -11.6350 C   0  0  0  0  0  0  0  0  0  0  0  0
   38.1943   14.8640  -12.6751 C   0  0  0  0  0  0  0  0  0  0  0  0
   37.4510   15.2038  -13.8015 O   0  0  0  0  0  0  0  0  0  0  0  0
   36.7315   14.0212  -14.1629 C   0  0  0  0  0  0  0  0  0  0  0  0
   35.6734   14.6187  -15.1226 C   0  0  0  0  0  0  0  0  0  0  0  0
   36.1652   13.5707  -12.9071 C   0  0  0  0  0  0  0  0  0  0  0  0
   37.6973   13.2551  -14.9226 N   0  0  0  0  0  0  0  0  0  0  0  0
   37.4045   12.3896  -15.9260 C   0  0  0  0  0  0  0  0  0  0  0  0
   36.2210   11.9010  -16.4004 C   0  0  0  0  0  0  0  0  0  0  0  0
   36.1982   11.0002  -17.4573 C   0  0  0  0  0  0  0  0  0  0  0  0
   37.3756   10.5616  -18.0714 C   0  0  0  0  0  0  0  0  0  0  0  0
   38.5760   11.0488  -17.5988 C   0  0  0  0  0  0  0  0  0  0  0  0
   38.5597   11.9411  -16.5485 C   0  0  0  0  0  0  0  0  0  0  0  0
   39.5961   12.5322  -15.9218 C   0  0  0  0  0  0  0  0  0  0  0  0
   40.9923   12.5540  -16.0606 C   0  0  0  0  0  0  0  0  0  0  0  0
   41.8068   11.8107  -17.0358 C   0  0  0  0  0  0  0  0  0  0  0  0
   43.1684   12.1776  -16.7417 N   0  0  0  0  0  0  0  0  0  0  0  0
   43.1922   13.1166  -15.6463 C   0  0  0  0  0  0  0  0  0  0  0  0
   44.2797   13.5613  -15.2473 O   0  0  0  0  0  0  0  0  0  0  0  0
   41.8170   13.3194  -15.2559 C   0  0  0  0  0  0  0  0  0  0  0  0
   41.2824   14.1138  -14.2510 C   0  0  0  0  0  0  0  0  0  0  0  0
   41.7582   14.9329  -13.2655 C   0  0  0  0  0  0  0  0  0  0  0  0
   43.0041   15.3395  -12.9172 C   0  0  0  0  0  0  0  0  0  0  0  0
   43.1297   16.2113  -11.8203 C   0  0  0  0  0  0  0  0  0  0  0  0
   42.0164   16.6335  -11.1283 C   0  0  0  0  0  0  0  0  0  0  0  0
   40.7459   16.2103  -11.4948 C   0  0  0  0  0  0  0  0  0  0  0  0
   40.6489   15.3621  -12.5651 C   0  0  0  0  0  0  0  0  0  0  0  0
   39.5384   14.8457  -13.0792 N   0  0  0  0  0  0  0  0  0  0  0  0
   39.9175   14.0756  -14.1334 C   0  0  0  0  0  0  0  0  0  0  0  0
   39.0778   13.3048  -14.9560 C   0  0  0  0  0  0  0  0  0  0  0  0
   43.9755   11.7871  -17.2781 H   0  0  0  0  0  0  0  0  0  0  0  0
   36.3097   14.7002   -9.3920 C   0  0  0  0  0  0  0  0  0  0  0  0
   35.9514   13.9222  -10.5334 N   0  0  0  0  0  0  0  0  0  0  0  0
   36.5335   13.0321  -10.5778 H   0  0  0  0  0  0  0  0  0  0  0  0
   34.7695   13.3836  -13.1333 O   0  0  0  0  0  0  0  0  0  0  0  0
   34.4435   12.1192  -13.5096 C   0  0  0  0  0  0  0  0  0  0  0  0
 33 34  1  0  0  0
 34  1  1  0  0  0
  1  2  1  0  0  0
  2  3  1  0  0  0
  3  4  1  0  0  0
  4  5  1  0  0  0
  5  6  1  0  0  0
  5  7  1  0  0  0
  7 36  1  0  0  0
 36 37  1  0  0  0
  5  8  1  0  0  0
  8  9  1  0  0  0
  9 10  2  0  0  0
 10 11  1  0  0  0
 11 12  2  0  0  0
 12 13  1  0  0  0
 13 14  2  0  0  0
 14 15  1  0  0  0
 15 16  2  0  0  0
 16 17  1  0  0  0
 17 18  1  0  0  0
 18 19  1  0  0  0
 19 20  2  0  0  0
 19 21  1  0  0  0
 21 22  2  0  0  0
 22 23  1  0  0  0
 23 24  2  0  0  0
 24 25  1  0  0  0
 25 26  2  0  0  0
 26 27  1  0  0  0
 27 28  2  0  0  0
 28 29  1  0  0  0
 29 30  1  0  0  0
 30 31  2  0  0  0
  7  1  1  0  0  0
 31  8  1  0  0  0
 29  3  1  0  0  0
 14  9  1  0  0  0
 31 15  1  0  0  0
 21 16  1  0  0  0
 30 22  1  0  0  0
 28 23  1  0  0  0
 34 35  1  0  0  0
 18 32  1  0  0  0
M  END
> <minimizedAffinity>
-11.82953

> <CNNscore>
0.2412313372

> <CNNaffinity>
6.6979036331

> <CNN_VS>
1.6157442331

> <CNNaffinity_variance>
0.1088560596

$$$$
[H]c1c([H])c([H])c2c(c1[H])c1c3c(c4c5c([H])c([H])c([H])c([H])c5n5c4c1n2[C@]1([H])O[C@]5(C([H])([H])[H])[C@]([H])(OC([H])([H])[H])[C@@]([H])(N([H])C([H])([H])[H])C1([H])[H])C([H])([H])N([H])C3=O


 37 44  0  0  0  0  0  0  0  0999 V2000
   37.7358   14.9762  -11.4207 C   0  0  0  0  0  0  0  0  0  0  0  0
   39.1509   15.6421  -11.4195 C   0  0  0  0  0  0  0  0  0  0  0  0
   39.7227   15.0585  -12.5229 C   0  0  0  0  0  0  0  0  0  0  0  0
   38.8919   15.4445  -13.5705 O   0  0  0  0  0  0  0  0  0  0  0  0
   38.0638   14.3112  -13.8467 C   0  0  0  0  0  0  0  0  0  0  0  0
   36.9544   14.9752  -14.6987 C   0  0  0  0  0  0  0  0  0  0  0  0
   37.6006   13.9010  -12.5361 C   0  0  0  0  0  0  0  0  0  0  0  0
   38.8948   13.4819  -14.6944 N   0  0  0  0  0  0  0  0  0  0  0  0
   38.4453   12.6358  -15.6555 C   0  0  0  0  0  0  0  0  0  0  0  0
   37.1901   12.2253  -16.0027 C   0  0  0  0  0  0  0  0  0  0  0  0
   37.0007   11.3261  -17.0442 C   0  0  0  0  0  0  0  0  0  0  0  0
   38.0780   10.8100  -17.7713 C   0  0  0  0  0  0  0  0  0  0  0  0
   39.3496   11.2181  -17.4276 C   0  0  0  0  0  0  0  0  0  0  0  0
   39.4990   12.1114  -16.3887 C   0  0  0  0  0  0  0  0  0  0  0  0
   40.6303   12.6341  -15.8758 C   0  0  0  0  0  0  0  0  0  0  0  0
   42.0035   12.5639  -16.1563 C   0  0  0  0  0  0  0  0  0  0  0  0
   42.6638   11.7670  -17.2031 C   0  0  0  0  0  0  0  0  0  0  0  0
   44.0694   12.0442  -17.0523 N   0  0  0  0  0  0  0  0  0  0  0  0
   44.2662   12.9814  -15.9730 C   0  0  0  0  0  0  0  0  0  0  0  0
   45.4155   13.3544  -15.6906 O   0  0  0  0  0  0  0  0  0  0  0  0
   42.9542   13.2749  -15.4462 C   0  0  0  0  0  0  0  0  0  0  0  0
   42.5781   14.1043  -14.3988 C   0  0  0  0  0  0  0  0  0  0  0  0
   43.2046   14.8921  -13.4739 C   0  0  0  0  0  0  0  0  0  0  0  0
   44.5034   15.2165  -13.2577 C   0  0  0  0  0  0  0  0  0  0  0  0
   44.7970   16.0801  -12.1867 C   0  0  0  0  0  0  0  0  0  0  0  0
   43.7902   16.5756  -11.3885 C   0  0  0  0  0  0  0  0  0  0  0  0
   42.4639   16.2363  -11.6200 C   0  0  0  0  0  0  0  0  0  0  0  0
   42.2030   15.3944  -12.6677 C   0  0  0  0  0  0  0  0  0  0  0  0
   41.0145   14.9512  -13.0617 N   0  0  0  0  0  0  0  0  0  0  0  0
   41.2328   14.1561  -14.1425 C   0  0  0  0  0  0  0  0  0  0  0  0
   40.2649   13.4407  -14.8687 C   0  0  0  0  0  0  0  0  0  0  0  0
   44.7902   11.6006  -17.6649 H   0  0  0  0  0  0  0  0  0  0  0  0
   37.5292   15.1469   -9.0372 C   0  0  0  0  0  0  0  0  0  0  0  0
   37.6539   14.2698  -10.1560 N   0  0  0  0  0  0  0  0  0  0  0  0
   38.5169   13.6548  -10.0555 H   0  0  0  0  0  0  0  0  0  0  0  0
   36.1799   13.8056  -12.6173 O   0  0  0  0  0  0  0  0  0  0  0  0
   35.7097   12.5393  -12.4688 C   0  0  0  0  0  0  0  0  0  0  0  0
 33 34  1  0  0  0
 34  1  1  0  0  0
  1  2  1  0  0  0
  2  3  1  0  0  0
  3  4  1  0  0  0
  4  5  1  0  0  0
  5  6  1  0  0  0
  5  7  1  0  0  0
  7 36  1  0  0  0
 36 37  1  0  0  0
  5  8  1  0  0  0
  8  9  1  0  0  0
  9 10  2  0  0  0
 10 11  1  0  0  0
 11 12  2  0  0  0
 12 13  1  0  0  0
 13 14  2  0  0  0
 14 15  1  0  0  0
 15 16  2  0  0  0
 16 17  1  0  0  0
 17 18  1  0  0  0
 18 19  1  0  0  0
 19 20  2  0  0  0
 19 21  1  0  0  0
 21 22  2  0  0  0
 22 23  1  0  0  0
 23 24  2  0  0  0
 24 25  1  0  0  0
 25 26  2  0  0  0
 26 27  1  0  0  0
 27 28  2  0  0  0
 28 29  1  0  0  0
 29 30  1  0  0  0
 30 31  2  0  0  0
  7  1  1  0  0  0
 31  8  1  0  0  0
 29  3  1  0  0  0
 14  9  1  0  0  0
 31 15  1  0  0  0
 21 16  1  0  0  0
 30 22  1  0  0  0
 28 23  1  0  0  0
 34 35  1  0  0  0
 18 32  1  0  0  0
M  END
> <minimizedAffinity>
-10.26354

> <CNNscore>
0.1425957531

> <CNNaffinity>
6.2353458405

> <CNN_VS>
0.8891338110

> <CNNaffinity_variance>
0.3355176449

$$$$
[H]c1c([H])c([H])c2c(c1[H])c1c3c(c4c5c([H])c([H])c([H])c([H])c5n5c4c1n2[C@]1([H])O[C@]5(C([H])([H])[H])[C@]([H])(OC([H])([H])[H])[C@@]([H])(N([H])C([H])([H])[H])C1([H])[H])C([H])([H])N([H])C3=O


 37 44  0  0  0  0  0  0  0  0999 V2000
   42.8444   14.1559  -13.2273 C   0  0  0  0  0  0  0  0  0  0  0  0
   42.1119   13.5646  -14.4763 C   0  0  0  0  0  0  0  0  0  0  0  0
   40.8014   13.8401  -14.1738 C   0  0  0  0  0  0  0  0  0  0  0  0
   40.7683   15.2279  -14.0749 O   0  0  0  0  0  0  0  0  0  0  0  0
   40.7766   15.5173  -12.6739 C   0  0  0  0  0  0  0  0  0  0  0  0
   41.1490   17.0200  -12.6999 C   0  0  0  0  0  0  0  0  0  0  0  0
   41.8421   14.6798  -12.1600 C   0  0  0  0  0  0  0  0  0  0  0  0
   39.3888   15.3685  -12.2882 N   0  0  0  0  0  0  0  0  0  0  0  0
   38.7724   16.0415  -11.2839 C   0  0  0  0  0  0  0  0  0  0  0  0
   39.2448   16.8833  -10.3180 C   0  0  0  0  0  0  0  0  0  0  0  0
   38.3840   17.4458   -9.3844 C   0  0  0  0  0  0  0  0  0  0  0  0
   37.0121   17.1743   -9.3962 C   0  0  0  0  0  0  0  0  0  0  0  0
   36.5256   16.3247  -10.3673 C   0  0  0  0  0  0  0  0  0  0  0  0
   37.4096   15.7854  -11.2770 C   0  0  0  0  0  0  0  0  0  0  0  0
   37.1670   14.9329  -12.2922 C   0  0  0  0  0  0  0  0  0  0  0  0
   36.0403   14.3166  -12.8577 C   0  0  0  0  0  0  0  0  0  0  0  0
   34.6418   14.4247  -12.4110 C   0  0  0  0  0  0  0  0  0  0  0  0
   33.8945   13.5935  -13.3197 N   0  0  0  0  0  0  0  0  0  0  0  0
   34.7880   13.0122  -14.2923 C   0  0  0  0  0  0  0  0  0  0  0  0
   34.3304   12.2665  -15.1723 O   0  0  0  0  0  0  0  0  0  0  0  0
   36.1106   13.4896  -13.9645 C   0  0  0  0  0  0  0  0  0  0  0  0
   37.3304   13.2272  -14.5727 C   0  0  0  0  0  0  0  0  0  0  0  0
   37.7861   12.4576  -15.6063 C   0  0  0  0  0  0  0  0  0  0  0  0
   37.1690   11.6569  -16.5101 C   0  0  0  0  0  0  0  0  0  0  0  0
   37.9691   10.9996  -17.4624 C   0  0  0  0  0  0  0  0  0  0  0  0
   39.3355   11.1707  -17.4690 C   0  0  0  0  0  0  0  0  0  0  0  0
   39.9559   11.9935  -16.5384 C   0  0  0  0  0  0  0  0  0  0  0  0
   39.1565   12.6221  -15.6217 C   0  0  0  0  0  0  0  0  0  0  0  0
   39.5427   13.4481  -14.6559 N   0  0  0  0  0  0  0  0  0  0  0  0
   38.4163   13.8388  -14.0027 C   0  0  0  0  0  0  0  0  0  0  0  0
   38.3451   14.6859  -12.8832 C   0  0  0  0  0  0  0  0  0  0  0  0
   32.8605   13.4703  -13.2346 H   0  0  0  0  0  0  0  0  0  0  0  0
   44.9522   13.1525  -12.6763 C   0  0  0  0  0  0  0  0  0  0  0  0
   43.5315   13.0273  -12.6278 N   0  0  0  0  0  0  0  0  0  0  0  0
   43.2167   12.1384  -13.1215 H   0  0  0  0  0  0  0  0  0  0  0  0
   42.7038   15.5321  -11.4082 O   0  0  0  0  0  0  0  0  0  0  0  0
   42.6835   15.2853  -10.0720 C   0  0  0  0  0  0  0  0  0  0  0  0
 33 34  1  0  0  0
 34  1  1  0  0  0
  1  2  1  0  0  0
  2  3  1  0  0  0
  3  4  1  0  0  0
  4  5  1  0  0  0
  5  6  1  0  0  0
  5  7  1  0  0  0
  7 36  1  0  0  0
 36 37  1  0  0  0
  5  8  1  0  0  0
  8  9  1  0  0  0
  9 10  2  0  0  0
 10 11  1  0  0  0
 11 12  2  0  0  0
 12 13  1  0  0  0
 13 14  2  0  0  0
 14 15  1  0  0  0
 15 16  2  0  0  0
 16 17  1  0  0  0
 17 18  1  0  0  0
 18 19  1  0  0  0
 19 20  2  0  0  0
 19 21  1  0  0  0
 21 22  2  0  0  0
 22 23  1  0  0  0
 23 24  2  0  0  0
 24 25  1  0  0  0
 25 26  2  0  0  0
 26 27  1  0  0  0
 27 28  2  0  0  0
 28 29  1  0  0  0
 29 30  1  0  0  0
 30 31  2  0  0  0
  7  1  1  0  0  0
 31  8  1  0  0  0
 29  3  1  0  0  0
 14  9  1  0  0  0
 31 15  1  0  0  0
 21 16  1  0  0  0
 30 22  1  0  0  0
 28 23  1  0  0  0
 34 35  1  0  0  0
 18 32  1  0  0  0
M  END
> <minimizedAffinity>
-10.61703

> <CNNscore>
0.1369482279

> <CNNaffinity>
6.2869501114

> <CNN_VS>
0.8609866500

> <CNNaffinity_variance>
0.3499447405

$$$$
[H]c1c([H])c([H])c2c(c1[H])c1c3c(c4c5c([H])c([H])c([H])c([H])c5n5c4c1n2[C@]1([H])O[C@]5(C([H])([H])[H])[C@]([H])(OC([H])([H])[H])[C@@]([H])(N([H])C([H])([H])[H])C1([H])[H])C([H])([H])N([H])C3=O


 37 44  0  0  0  0  0  0  0  0999 V2000
   44.0191   14.0599  -12.9111 C   0  0  0  0  0  0  0  0  0  0  0  0
   43.4961   13.5684  -14.3007 C   0  0  0  0  0  0  0  0  0  0  0  0
   42.1517   13.8221  -14.1861 C   0  0  0  0  0  0  0  0  0  0  0  0
   42.0894   15.1982  -13.9874 O   0  0  0  0  0  0  0  0  0  0  0  0
   41.8766   15.3783  -12.5842 C   0  0  0  0  0  0  0  0  0  0  0  0
   42.2331   16.8778  -12.4364 C   0  0  0  0  0  0  0  0  0  0  0  0
   42.8576   14.5015  -11.9761 C   0  0  0  0  0  0  0  0  0  0  0  0
   40.4473   15.2027  -12.4323 N   0  0  0  0  0  0  0  0  0  0  0  0
   39.6752   15.7972  -11.4878 C   0  0  0  0  0  0  0  0  0  0  0  0
   39.9828   16.5607  -10.3984 C   0  0  0  0  0  0  0  0  0  0  0  0
   38.9814   17.0509   -9.5701 C   0  0  0  0  0  0  0  0  0  0  0  0
   37.6310   16.7838   -9.8166 C   0  0  0  0  0  0  0  0  0  0  0  0
   37.3103   16.0128  -10.9140 C   0  0  0  0  0  0  0  0  0  0  0  0
   38.3305   15.5438  -11.7132 C   0  0  0  0  0  0  0  0  0  0  0  0
   38.2577   14.7729  -12.8162 C   0  0  0  0  0  0  0  0  0  0  0  0
   37.2392   14.2043  -13.5962 C   0  0  0  0  0  0  0  0  0  0  0  0
   35.7872   14.2801  -13.3662 C   0  0  0  0  0  0  0  0  0  0  0  0
   35.1989   13.5231  -14.4414 N   0  0  0  0  0  0  0  0  0  0  0  0
   36.2388   13.0171  -15.3044 C   0  0  0  0  0  0  0  0  0  0  0  0
   35.9315   12.3426  -16.2996 O   0  0  0  0  0  0  0  0  0  0  0  0
   37.4894   13.4653  -14.7386 C   0  0  0  0  0  0  0  0  0  0  0  0
   38.7916   13.2485  -15.1674 C   0  0  0  0  0  0  0  0  0  0  0  0
   39.4105   12.5603  -16.1733 C   0  0  0  0  0  0  0  0  0  0  0  0
   38.9498   11.8330  -17.2210 C   0  0  0  0  0  0  0  0  0  0  0  0
   39.8951   11.2500  -18.0844 C   0  0  0  0  0  0  0  0  0  0  0  0
   41.2441   11.4184  -17.8646 C   0  0  0  0  0  0  0  0  0  0  0  0
   41.7036   12.1656  -16.7883 C   0  0  0  0  0  0  0  0  0  0  0  0
   40.7649   12.7229  -15.9620 C   0  0  0  0  0  0  0  0  0  0  0  0
   40.9875   13.4709  -14.8873 N   0  0  0  0  0  0  0  0  0  0  0  0
   39.7692   13.8120  -14.3897 C   0  0  0  0  0  0  0  0  0  0  0  0
   39.5160   14.5702  -13.2334 C   0  0  0  0  0  0  0  0  0  0  0  0
   34.1656   13.3956  -14.5284 H   0  0  0  0  0  0  0  0  0  0  0  0
   46.0209   13.0243  -12.0904 C   0  0  0  0  0  0  0  0  0  0  0  0
   44.6160   12.8871  -12.3001 N   0  0  0  0  0  0  0  0  0  0  0  0
   44.4097   12.0431  -12.9151 H   0  0  0  0  0  0  0  0  0  0  0  0
   43.5830   15.2915  -11.0360 O   0  0  0  0  0  0  0  0  0  0  0  0
   43.3708   14.9308   -9.7431 C   0  0  0  0  0  0  0  0  0  0  0  0
 33 34  1  0  0  0
 34  1  1  0  0  0
  1  2  1  0  0  0
  2  3  1  0  0  0
  3  4  1  0  0  0
  4  5  1  0  0  0
  5  6  1  0  0  0
  5  7  1  0  0  0
  7 36  1  0  0  0
 36 37  1  0  0  0
  5  8  1  0  0  0
  8  9  1  0  0  0
  9 10  2  0  0  0
 10 11  1  0  0  0
 11 12  2  0  0  0
 12 13  1  0  0  0
 13 14  2  0  0  0
 14 15  1  0  0  0
 15 16  2  0  0  0
 16 17  1  0  0  0
 17 18  1  0  0  0
 18 19  1  0  0  0
 19 20  2  0  0  0
 19 21  1  0  0  0
 21 22  2  0  0  0
 22 23  1  0  0  0
 23 24  2  0  0  0
 24 25  1  0  0  0
 25 26  2  0  0  0
 26 27  1  0  0  0
 27 28  2  0  0  0
 28 29  1  0  0  0
 29 30  1  0  0  0
 30 31  2  0  0  0
  7  1  1  0  0  0
 31  8  1  0  0  0
 29  3  1  0  0  0
 14  9  1  0  0  0
 31 15  1  0  0  0
 21 16  1  0  0  0
 30 22  1  0  0  0
 28 23  1  0  0  0
 34 35  1  0  0  0
 18 32  1  0  0  0
M  END
> <minimizedAffinity>
-9.78283

> <CNNscore>
0.1307371855

> <CNNaffinity>
6.2099199295

> <CNN_VS>
0.8118674755

> <CNNaffinity_variance>
0.3828658760

$$$$
[H]c1c([H])c([H])c2c(c1[H])c1c3c(c4c5c([H])c([H])c([H])c([H])c5n5c4c1n2[C@]1([H])O[C@]5(C([H])([H])[H])[C@]([H])(OC([H])([H])[H])[C@@]([H])(N([H])C([H])([H])[H])C1([H])[H])C([H])([H])N([H])C3=O


 37 44  0  0  0  0  0  0  0  0999 V2000
   43.1650   15.5137  -10.9326 C   0  0  0  0  0  0  0  0  0  0  0  0
   43.8483   15.0610  -12.2647 C   0  0  0  0  0  0  0  0  0  0  0  0
   42.7585   14.6857  -13.0108 C   0  0  0  0  0  0  0  0  0  0  0  0
   42.0029   15.8507  -13.1038 O   0  0  0  0  0  0  0  0  0  0  0  0
   40.9472   15.7055  -12.1492 C   0  0  0  0  0  0  0  0  0  0  0  0
   40.4524   17.1696  -12.0532 C   0  0  0  0  0  0  0  0  0  0  0  0
   41.6308   15.2602  -10.9513 C   0  0  0  0  0  0  0  0  0  0  0  0
   39.9636   14.9065  -12.8498 N   0  0  0  0  0  0  0  0  0  0  0  0
   38.6217   14.9562  -12.6535 C   0  0  0  0  0  0  0  0  0  0  0  0
   37.8529   15.6027  -11.7285 C   0  0  0  0  0  0  0  0  0  0  0  0
   36.4697   15.4780  -11.7439 C   0  0  0  0  0  0  0  0  0  0  0  0
   35.8157   14.6922  -12.6982 C   0  0  0  0  0  0  0  0  0  0  0  0
   36.5836   14.0348  -13.6361 C   0  0  0  0  0  0  0  0  0  0  0  0
   37.9532   14.1820  -13.5899 C   0  0  0  0  0  0  0  0  0  0  0  0
   38.8925   13.6330  -14.3852 C   0  0  0  0  0  0  0  0  0  0  0  0
   38.9110   12.8045  -15.5176 C   0  0  0  0  0  0  0  0  0  0  0  0
   37.7567   12.2070  -16.2088 C   0  0  0  0  0  0  0  0  0  0  0  0
   38.3239   11.4426  -17.2900 N   0  0  0  0  0  0  0  0  0  0  0  0
   39.7607   11.5752  -17.2767 C   0  0  0  0  0  0  0  0  0  0  0  0
   40.4352   10.9937  -18.1409 O   0  0  0  0  0  0  0  0  0  0  0  0
   40.0789   12.4299  -16.1574 C   0  0  0  0  0  0  0  0  0  0  0  0
   41.3106   12.8673  -15.6903 C   0  0  0  0  0  0  0  0  0  0  0  0
   42.6256   12.6771  -16.0114 C   0  0  0  0  0  0  0  0  0  0  0  0
   43.2501   11.9902  -16.9998 C   0  0  0  0  0  0  0  0  0  0  0  0
   44.6563   12.0135  -17.0310 C   0  0  0  0  0  0  0  0  0  0  0  0
   45.3678   12.7150  -16.0834 C   0  0  0  0  0  0  0  0  0  0  0  0
   44.7170   13.4147  -15.0761 C   0  0  0  0  0  0  0  0  0  0  0  0
   43.3484   13.3771  -15.0664 C   0  0  0  0  0  0  0  0  0  0  0  0
   42.5373   13.9750  -14.2010 N   0  0  0  0  0  0  0  0  0  0  0  0
   41.2680   13.6740  -14.5832 C   0  0  0  0  0  0  0  0  0  0  0  0
   40.0814   14.0621  -13.9372 C   0  0  0  0  0  0  0  0  0  0  0  0
   37.7299   10.8942  -17.9518 H   0  0  0  0  0  0  0  0  0  0  0  0
   45.0557   14.2374  -10.1915 C   0  0  0  0  0  0  0  0  0  0  0  0
   43.7144   14.6383   -9.9144 N   0  0  0  0  0  0  0  0  0  0  0  0
   43.0809   13.7879   -9.8214 H   0  0  0  0  0  0  0  0  0  0  0  0
   41.2226   16.1339   -9.9005 O   0  0  0  0  0  0  0  0  0  0  0  0
   40.4601   15.5274   -8.9532 C   0  0  0  0  0  0  0  0  0  0  0  0
 33 34  1  0  0  0
 34  1  1  0  0  0
  1  2  1  0  0  0
  2  3  1  0  0  0
  3  4  1  0  0  0
  4  5  1  0  0  0
  5  6  1  0  0  0
  5  7  1  0  0  0
  7 36  1  0  0  0
 36 37  1  0  0  0
  5  8  1  0  0  0
  8  9  1  0  0  0
  9 10  2  0  0  0
 10 11  1  0  0  0
 11 12  2  0  0  0
 12 13  1  0  0  0
 13 14  2  0  0  0
 14 15  1  0  0  0
 15 16  2  0  0  0
 16 17  1  0  0  0
 17 18  1  0  0  0
 18 19  1  0  0  0
 19 20  2  0  0  0
 19 21  1  0  0  0
 21 22  2  0  0  0
 22 23  1  0  0  0
 23 24  2  0  0  0
 24 25  1  0  0  0
 25 26  2  0  0  0
 26 27  1  0  0  0
 27 28  2  0  0  0
 28 29  1  0  0  0
 29 30  1  0  0  0
 30 31  2  0  0  0
  7  1  1  0  0  0
 31  8  1  0  0  0
 29  3  1  0  0  0
 14  9  1  0  0  0
 31 15  1  0  0  0
 21 16  1  0  0  0
 30 22  1  0  0  0
 28 23  1  0  0  0
 34 35  1  0  0  0
 18 32  1  0  0  0
M  END
> <minimizedAffinity>
-9.57299

> <CNNscore>
0.1246132180

> <CNNaffinity>
6.3372344971

> <CNN_VS>
0.7897031903

> <CNNaffinity_variance>
0.2142870128

$$$$
[H]/C(=C1/C(=O)N([H])c2c([H])c([H])c(F)c([H])c21)c1c(C([H])([H])[H])c(C(=O)N([H])C([H])([H])C([H])([H])N(C([H])([H])C([H])([H])[H])C([H])([H])C([H])([H])[H])c(C([H])([H])[H])n1[H]


 32 34  0  0  0  0  0  0  0  0999 V2000
   43.6085   13.2271  -15.3930 C   0  0  0  0  0  0  0  0  0  0  0  0
   43.5082   12.5142  -16.5485 C   0  0  0  0  0  0  0  0  0  0  0  0
   44.6076   12.0570  -17.4442 C   0  0  0  0  0  0  0  0  0  0  0  0
   42.1977   12.2087  -16.8165 N   0  0  0  0  0  0  0  0  0  0  0  0
   41.4548   12.7110  -15.8540 C   0  0  0  0  0  0  0  0  0  0  0  0
   42.3030   13.3553  -14.9452 C   0  0  0  0  0  0  0  0  0  0  0  0
   41.8769   14.0631  -13.7110 C   0  0  0  0  0  0  0  0  0  0  0  0
   41.8926   11.6732  -17.6684 H   0  0  0  0  0  0  0  0  0  0  0  0
   40.0311   12.6528  -15.6536 C   0  0  0  0  0  0  0  0  0  0  0  0
   39.2228   11.9977  -16.4350 C   0  0  0  0  0  0  0  0  0  0  0  0
   39.5081   11.2102  -17.6148 C   0  0  0  0  0  0  0  0  0  0  0  0
   40.6369   10.9848  -18.1269 O   0  0  0  0  0  0  0  0  0  0  0  0
   38.2485   10.7236  -18.1005 N   0  0  0  0  0  0  0  0  0  0  0  0
   37.1998   11.1761  -17.2703 C   0  0  0  0  0  0  0  0  0  0  0  0
   35.8340   11.0046  -17.2801 C   0  0  0  0  0  0  0  0  0  0  0  0
   35.0106   11.5659  -16.3290 C   0  0  0  0  0  0  0  0  0  0  0  0
   35.5548   12.3363  -15.3146 C   0  0  0  0  0  0  0  0  0  0  0  0
   34.7871   12.9086  -14.3572 F   0  0  0  0  0  0  0  0  0  0  0  0
   36.9189   12.4993  -15.3164 C   0  0  0  0  0  0  0  0  0  0  0  0
   37.7528   11.9381  -16.2689 C   0  0  0  0  0  0  0  0  0  0  0  0
   38.1209   10.1252  -18.9380 H   0  0  0  0  0  0  0  0  0  0  0  0
   45.2800   15.0946  -14.9601 N   0  0  0  0  0  0  0  0  0  0  0  0
   44.7550   13.8193  -14.7117 C   0  0  0  0  0  0  0  0  0  0  0  0
   45.2834   13.0562  -13.8136 O   0  0  0  0  0  0  0  0  0  0  0  0
   44.7352   15.6694  -15.7192 H   0  0  0  0  0  0  0  0  0  0  0  0
   46.3625   15.8139  -14.4109 C   0  0  0  0  0  0  0  0  0  0  0  0
   46.4209   16.0541  -12.9445 C   0  0  0  0  0  0  0  0  0  0  0  0
   45.7551   17.1995  -12.4713 N   0  0  0  0  0  0  0  0  0  0  0  0
   44.9252   19.4208  -13.1667 C   0  0  0  0  0  0  0  0  0  0  0  0
   45.8769   18.2785  -13.4592 C   0  0  0  0  0  0  0  0  0  0  0  0
   44.3616   17.0292  -12.1957 C   0  0  0  0  0  0  0  0  0  0  0  0
   44.0452   15.8559  -11.3244 C   0  0  0  0  0  0  0  0  0  0  0  0
 29 30  1  0  0  0
 30 28  1  0  0  0
 28 31  1  0  0  0
 31 32  1  0  0  0
 28 27  1  0  0  0
 27 26  1  0  0  0
 26 22  1  0  0  0
 22 23  1  0  0  0
 23 24  2  0  0  0
 23  1  1  0  0  0
  1  2  2  0  0  0
  2  3  1  0  0  0
  2  4  1  0  0  0
  4  5  1  0  0  0
  5  9  1  0  0  0
  9 10  2  0  0  0
 10 11  1  0  0  0
 11 12  2  0  0  0
 11 13  1  0  0  0
 13 14  1  0  0  0
 14 15  2  0  0  0
 15 16  1  0  0  0
 16 17  2  0  0  0
 17 18  1  0  0  0
 17 19  1  0  0  0
 19 20  2  0  0  0
  5  6  2  0  0  0
  6  7  1  0  0  0
  6  1  1  0  0  0
 20 10  1  0  0  0
 20 14  1  0  0  0
 22 25  1  0  0  0
  4  8  1  0  0  0
 13 21  1  0  0  0
M  END
> <minimizedAffinity>
-8.60901

> <CNNscore>
0.8375625014

> <CNNaffinity>
7.0024199486

> <CNN_VS>
5.8649644852

> <CNNaffinity_variance>
0.1842891127

$$$$
[H]/C(=C1/C(=O)N([H])c2c([H])c([H])c(F)c([H])c21)c1c(C([H])([H])[H])c(C(=O)N([H])C([H])([H])C([H])([H])N(C([H])([H])C([H])([H])[H])C([H])([H])C([H])([H])[H])c(C([H])([H])[H])n1[H]


 32 34  0  0  0  0  0  0  0  0999 V2000
   43.4826   13.3407  -15.2838 C   0  0  0  0  0  0  0  0  0  0  0  0
   43.4222   12.5911  -16.4186 C   0  0  0  0  0  0  0  0  0  0  0  0
   44.5489   12.1426  -17.2843 C   0  0  0  0  0  0  0  0  0  0  0  0
   42.1262   12.2365  -16.6960 N   0  0  0  0  0  0  0  0  0  0  0  0
   41.3534   12.7433  -15.7598 C   0  0  0  0  0  0  0  0  0  0  0  0
   42.1671   13.4407  -14.8588 C   0  0  0  0  0  0  0  0  0  0  0  0
   41.7004   14.1710  -13.6526 C   0  0  0  0  0  0  0  0  0  0  0  0
   41.8509   11.6665  -17.5357 H   0  0  0  0  0  0  0  0  0  0  0  0
   39.9293   12.6459  -15.5781 C   0  0  0  0  0  0  0  0  0  0  0  0
   39.1456   11.9950  -16.3876 C   0  0  0  0  0  0  0  0  0  0  0  0
   39.4628   11.2490  -17.5861 C   0  0  0  0  0  0  0  0  0  0  0  0
   40.6022   11.0650  -18.0910 O   0  0  0  0  0  0  0  0  0  0  0  0
   38.2205   10.7473  -18.1005 N   0  0  0  0  0  0  0  0  0  0  0  0
   37.1522   11.1509  -17.2702 C   0  0  0  0  0  0  0  0  0  0  0  0
   35.7910   10.9478  -17.3011 C   0  0  0  0  0  0  0  0  0  0  0  0
   34.9439   11.4619  -16.3441 C   0  0  0  0  0  0  0  0  0  0  0  0
   35.4583   12.2151  -15.3016 C   0  0  0  0  0  0  0  0  0  0  0  0
   34.6665   12.7413  -14.3374 F   0  0  0  0  0  0  0  0  0  0  0  0
   36.8181   12.4099  -15.2826 C   0  0  0  0  0  0  0  0  0  0  0  0
   37.6757   11.8963  -16.2407 C   0  0  0  0  0  0  0  0  0  0  0  0
   38.1167   10.1707  -18.9563 H   0  0  0  0  0  0  0  0  0  0  0  0
   45.3374   13.4410  -13.5463 N   0  0  0  0  0  0  0  0  0  0  0  0
   44.5995   13.9889  -14.6043 C   0  0  0  0  0  0  0  0  0  0  0  0
   44.8851   15.1612  -15.0648 O   0  0  0  0  0  0  0  0  0  0  0  0
   45.0312   12.4283  -13.2564 H   0  0  0  0  0  0  0  0  0  0  0  0
   46.4247   13.9166  -12.7830 C   0  0  0  0  0  0  0  0  0  0  0  0
   47.8073   13.8061  -13.3193 C   0  0  0  0  0  0  0  0  0  0  0  0
   48.0346   14.3767  -14.5850 N   0  0  0  0  0  0  0  0  0  0  0  0
   48.0531   16.8325  -14.8591 C   0  0  0  0  0  0  0  0  0  0  0  0
   48.8284   15.6022  -14.4329 C   0  0  0  0  0  0  0  0  0  0  0  0
   48.7188   13.5392  -15.5216 C   0  0  0  0  0  0  0  0  0  0  0  0
   49.3675   12.3371  -14.9133 C   0  0  0  0  0  0  0  0  0  0  0  0
 29 30  1  0  0  0
 30 28  1  0  0  0
 28 31  1  0  0  0
 31 32  1  0  0  0
 28 27  1  0  0  0
 27 26  1  0  0  0
 26 22  1  0  0  0
 22 23  1  0  0  0
 23 24  2  0  0  0
 23  1  1  0  0  0
  1  2  2  0  0  0
  2  3  1  0  0  0
  2  4  1  0  0  0
  4  5  1  0  0  0
  5  9  1  0  0  0
  9 10  2  0  0  0
 10 11  1  0  0  0
 11 12  2  0  0  0
 11 13  1  0  0  0
 13 14  1  0  0  0
 14 15  2  0  0  0
 15 16  1  0  0  0
 16 17  2  0  0  0
 17 18  1  0  0  0
 17 19  1  0  0  0
 19 20  2  0  0  0
  5  6  2  0  0  0
  6  7  1  0  0  0
  6  1  1  0  0  0
 20 10  1  0  0  0
 20 14  1  0  0  0
 22 25  1  0  0  0
  4  8  1  0  0  0
 13 21  1  0  0  0
M  END
> <minimizedAffinity>
-8.03462

> <CNNscore>
0.7983686328

> <CNNaffinity>
6.9526929855

> <CNN_VS>
5.5508117676

> <CNNaffinity_variance>
0.1540211886

$$$$
[H]/C(=C1/C(=O)N([H])c2c([H])c([H])c(F)c([H])c21)c1c(C([H])([H])[H])c(C(=O)N([H])C([H])([H])C([H])([H])N(C([H])([H])C([H])([H])[H])C([H])([H])C([H])([H])[H])c(C([H])([H])[H])n1[H]


 32 34  0  0  0  0  0  0  0  0999 V2000
   43.5305   13.2697  -15.3134 C   0  0  0  0  0  0  0  0  0  0  0  0
   43.4512   12.5423  -16.4615 C   0  0  0  0  0  0  0  0  0  0  0  0
   44.5652   12.0914  -17.3422 C   0  0  0  0  0  0  0  0  0  0  0  0
   42.1478   12.2144  -16.7375 N   0  0  0  0  0  0  0  0  0  0  0  0
   41.3890   12.7165  -15.7875 C   0  0  0  0  0  0  0  0  0  0  0  0
   42.2194   13.3836  -14.8787 C   0  0  0  0  0  0  0  0  0  0  0  0
   41.7718   14.0990  -13.6565 C   0  0  0  0  0  0  0  0  0  0  0  0
   41.8583   11.6647  -17.5859 H   0  0  0  0  0  0  0  0  0  0  0  0
   39.9645   12.6393  -15.5990 C   0  0  0  0  0  0  0  0  0  0  0  0
   39.1686   11.9941  -16.4010 C   0  0  0  0  0  0  0  0  0  0  0  0
   39.4704   11.2367  -17.5963 C   0  0  0  0  0  0  0  0  0  0  0  0
   40.6051   11.0344  -18.1050 O   0  0  0  0  0  0  0  0  0  0  0  0
   38.2193   10.7486  -18.1023 N   0  0  0  0  0  0  0  0  0  0  0  0
   37.1602   11.1715  -17.2697 C   0  0  0  0  0  0  0  0  0  0  0  0
   35.7963   10.9865  -17.2936 C   0  0  0  0  0  0  0  0  0  0  0  0
   34.9604   11.5176  -16.3360 C   0  0  0  0  0  0  0  0  0  0  0  0
   35.4894   12.2702  -15.3004 C   0  0  0  0  0  0  0  0  0  0  0  0
   34.7091   12.8127  -14.3359 F   0  0  0  0  0  0  0  0  0  0  0  0
   36.8518   12.4468  -15.2884 C   0  0  0  0  0  0  0  0  0  0  0  0
   37.6982   11.9160  -16.2472 C   0  0  0  0  0  0  0  0  0  0  0  0
   38.1039   10.1682  -18.9541 H   0  0  0  0  0  0  0  0  0  0  0  0
   45.3721   13.3237  -13.5599 N   0  0  0  0  0  0  0  0  0  0  0  0
   44.6620   13.8866  -14.6289 C   0  0  0  0  0  0  0  0  0  0  0  0
   44.9899   15.0451  -15.0961 O   0  0  0  0  0  0  0  0  0  0  0  0
   45.0303   12.3240  -13.2647 H   0  0  0  0  0  0  0  0  0  0  0  0
   46.4675   13.7698  -12.7904 C   0  0  0  0  0  0  0  0  0  0  0  0
   46.8946   12.9944  -11.5956 C   0  0  0  0  0  0  0  0  0  0  0  0
   45.9429   12.1151  -11.0476 N   0  0  0  0  0  0  0  0  0  0  0  0
   46.6513    9.8247  -11.6465 C   0  0  0  0  0  0  0  0  0  0  0  0
   46.6159   10.8980  -10.5774 C   0  0  0  0  0  0  0  0  0  0  0  0
   45.1872   12.6354   -9.9499 C   0  0  0  0  0  0  0  0  0  0  0  0
   43.8057   13.0805  -10.3096 C   0  0  0  0  0  0  0  0  0  0  0  0
 29 30  1  0  0  0
 30 28  1  0  0  0
 28 31  1  0  0  0
 31 32  1  0  0  0
 28 27  1  0  0  0
 27 26  1  0  0  0
 26 22  1  0  0  0
 22 23  1  0  0  0
 23 24  2  0  0  0
 23  1  1  0  0  0
  1  2  2  0  0  0
  2  3  1  0  0  0
  2  4  1  0  0  0
  4  5  1  0  0  0
  5  9  1  0  0  0
  9 10  2  0  0  0
 10 11  1  0  0  0
 11 12  2  0  0  0
 11 13  1  0  0  0
 13 14  1  0  0  0
 14 15  2  0  0  0
 15 16  1  0  0  0
 16 17  2  0  0  0
 17 18  1  0  0  0
 17 19  1  0  0  0
 19 20  2  0  0  0
  5  6  2  0  0  0
  6  7  1  0  0  0
  6  1  1  0  0  0
 20 10  1  0  0  0
 20 14  1  0  0  0
 22 25  1  0  0  0
  4  8  1  0  0  0
 13 21  1  0  0  0
M  END
> <minimizedAffinity>
-8.28646

> <CNNscore>
0.7880958319

> <CNNaffinity>
7.0605912209

> <CNN_VS>
5.5644226074

> <CNNaffinity_variance>
0.1882542223

$$$$
[H]/C(=C1/C(=O)N([H])c2c([H])c([H])c(F)c([H])c21)c1c(C([H])([H])[H])c(C(=O)N([H])C([H])([H])C([H])([H])N(C([H])([H])C([H])([H])[H])C([H])([H])C([H])([H])[H])c(C([H])([H])[H])n1[H]


 32 34  0  0  0  0  0  0  0  0999 V2000
   36.8718   14.6255  -11.1731 C   0  0  0  0  0  0  0  0  0  0  0  0
   38.1041   15.1821  -11.3321 C   0  0  0  0  0  0  0  0  0  0  0  0
   38.8085   16.1291  -10.4229 C   0  0  0  0  0  0  0  0  0  0  0  0
   38.6935   14.7311  -12.4861 N   0  0  0  0  0  0  0  0  0  0  0  0
   37.8634   13.8944  -13.0703 C   0  0  0  0  0  0  0  0  0  0  0  0
   36.7129   13.8033  -12.2776 C   0  0  0  0  0  0  0  0  0  0  0  0
   35.5188   12.9705  -12.5720 C   0  0  0  0  0  0  0  0  0  0  0  0
   39.6440   15.0442  -12.8090 H   0  0  0  0  0  0  0  0  0  0  0  0
   38.0104   13.1372  -14.2851 C   0  0  0  0  0  0  0  0  0  0  0  0
   39.1146   13.0895  -14.9716 C   0  0  0  0  0  0  0  0  0  0  0  0
   40.3905   13.7245  -14.7218 C   0  0  0  0  0  0  0  0  0  0  0  0
   40.6976   14.4627  -13.7482 O   0  0  0  0  0  0  0  0  0  0  0  0
   41.2563   13.3502  -15.8033 N   0  0  0  0  0  0  0  0  0  0  0  0
   40.5694   12.5114  -16.7079 C   0  0  0  0  0  0  0  0  0  0  0  0
   40.9211   11.8835  -17.8813 C   0  0  0  0  0  0  0  0  0  0  0  0
   40.0420   11.0961  -18.5918 C   0  0  0  0  0  0  0  0  0  0  0  0
   38.7496   10.9147  -18.1277 C   0  0  0  0  0  0  0  0  0  0  0  0
   37.8496   10.1504  -18.7904 F   0  0  0  0  0  0  0  0  0  0  0  0
   38.4118   11.5467  -16.9556 C   0  0  0  0  0  0  0  0  0  0  0  0
   39.2899   12.3394  -16.2359 C   0  0  0  0  0  0  0  0  0  0  0  0
   42.2440   13.6484  -15.9097 H   0  0  0  0  0  0  0  0  0  0  0  0
   34.6517   15.5279  -10.3211 N   0  0  0  0  0  0  0  0  0  0  0  0
   35.8445   14.8116  -10.1536 C   0  0  0  0  0  0  0  0  0  0  0  0
   36.1142   14.2415   -9.0266 O   0  0  0  0  0  0  0  0  0  0  0  0
   34.5093   15.9430  -11.3264 H   0  0  0  0  0  0  0  0  0  0  0  0
   33.5681   15.8080   -9.4618 C   0  0  0  0  0  0  0  0  0  0  0  0
   32.1840   15.8372  -10.0048 C   0  0  0  0  0  0  0  0  0  0  0  0
   31.1529   15.5054   -9.1071 N   0  0  0  0  0  0  0  0  0  0  0  0
   30.2752   14.6849  -11.2665 C   0  0  0  0  0  0  0  0  0  0  0  0
   30.2207   14.5753   -9.7561 C   0  0  0  0  0  0  0  0  0  0  0  0
   31.5768   14.8990   -7.8827 C   0  0  0  0  0  0  0  0  0  0  0  0
   30.9840   13.5503   -7.6261 C   0  0  0  0  0  0  0  0  0  0  0  0
 29 30  1  0  0  0
 30 28  1  0  0  0
 28 31  1  0  0  0
 31 32  1  0  0  0
 28 27  1  0  0  0
 27 26  1  0  0  0
 26 22  1  0  0  0
 22 23  1  0  0  0
 23 24  2  0  0  0
 23  1  1  0  0  0
  1  2  2  0  0  0
  2  3  1  0  0  0
  2  4  1  0  0  0
  4  5  1  0  0  0
  5  9  1  0  0  0
  9 10  2  0  0  0
 10 11  1  0  0  0
 11 12  2  0  0  0
 11 13  1  0  0  0
 13 14  1  0  0  0
 14 15  2  0  0  0
 15 16  1  0  0  0
 16 17  2  0  0  0
 17 18  1  0  0  0
 17 19  1  0  0  0
 19 20  2  0  0  0
  5  6  2  0  0  0
  6  7  1  0  0  0
  6  1  1  0  0  0
 20 10  1  0  0  0
 20 14  1  0  0  0
 22 25  1  0  0  0
  4  8  1  0  0  0
 13 21  1  0  0  0
M  END
> <minimizedAffinity>
-8.86583

> <CNNscore>
0.6201490760

> <CNNaffinity>
6.5897111893

> <CNN_VS>
4.0866031647

> <CNNaffinity_variance>
0.2164140046

$$$$
[H]/C(=C1/C(=O)N([H])c2c([H])c([H])c(F)c([H])c21)c1c(C([H])([H])[H])c(C(=O)N([H])C([H])([H])C([H])([H])N(C([H])([H])C([H])([H])[H])C([H])([H])C([H])([H])[H])c(C([H])([H])[H])n1[H]


 32 34  0  0  0  0  0  0  0  0999 V2000
   37.3210   14.9135  -10.9738 C   0  0  0  0  0  0  0  0  0  0  0  0
   38.5278   15.4762  -11.2579 C   0  0  0  0  0  0  0  0  0  0  0  0
   39.2971   16.4595  -10.4447 C   0  0  0  0  0  0  0  0  0  0  0  0
   39.0199   14.9930  -12.4440 N   0  0  0  0  0  0  0  0  0  0  0  0
   38.1524   14.1295  -12.9260 C   0  0  0  0  0  0  0  0  0  0  0  0
   37.0766   14.0537  -12.0331 C   0  0  0  0  0  0  0  0  0  0  0  0
   35.8718   13.2003  -12.1949 C   0  0  0  0  0  0  0  0  0  0  0  0
   39.9346   15.3042  -12.8588 H   0  0  0  0  0  0  0  0  0  0  0  0
   38.2022   13.3339  -14.1240 C   0  0  0  0  0  0  0  0  0  0  0  0
   39.2674   13.2136  -14.8616 C   0  0  0  0  0  0  0  0  0  0  0  0
   40.5831   13.7913  -14.6923 C   0  0  0  0  0  0  0  0  0  0  0  0
   40.9732   14.5392  -13.7566 O   0  0  0  0  0  0  0  0  0  0  0  0
   41.3750   13.3462  -15.8033 N   0  0  0  0  0  0  0  0  0  0  0  0
   40.6045   12.5185  -16.6488 C   0  0  0  0  0  0  0  0  0  0  0  0
   40.8668   11.8430  -17.8192 C   0  0  0  0  0  0  0  0  0  0  0  0
   39.9167   11.0813  -18.4632 C   0  0  0  0  0  0  0  0  0  0  0  0
   38.6418   10.9763  -17.9319 C   0  0  0  0  0  0  0  0  0  0  0  0
   37.6743   10.2399  -18.5278 F   0  0  0  0  0  0  0  0  0  0  0  0
   38.3934   11.6551  -16.7636 C   0  0  0  0  0  0  0  0  0  0  0  0
   39.3433   12.4224  -16.1106 C   0  0  0  0  0  0  0  0  0  0  0  0
   42.3693   13.5924  -15.9660 H   0  0  0  0  0  0  0  0  0  0  0  0
   35.4649   16.1766   -9.7787 N   0  0  0  0  0  0  0  0  0  0  0  0
   36.3843   15.1234   -9.8748 C   0  0  0  0  0  0  0  0  0  0  0  0
   36.4553   14.2283   -8.9465 O   0  0  0  0  0  0  0  0  0  0  0  0
   35.4671   16.8603  -10.6366 H   0  0  0  0  0  0  0  0  0  0  0  0
   34.5049   16.5311   -8.8072 C   0  0  0  0  0  0  0  0  0  0  0  0
   33.1620   15.8928   -8.8294 C   0  0  0  0  0  0  0  0  0  0  0  0
   32.4970   15.7918   -7.5938 N   0  0  0  0  0  0  0  0  0  0  0  0
   32.2140   14.0268   -5.8876 C   0  0  0  0  0  0  0  0  0  0  0  0
   33.1856   14.8097   -6.7473 C   0  0  0  0  0  0  0  0  0  0  0  0
   32.4035   17.0078   -6.8461 C   0  0  0  0  0  0  0  0  0  0  0  0
   31.1307   17.7639   -7.0569 C   0  0  0  0  0  0  0  0  0  0  0  0
 29 30  1  0  0  0
 30 28  1  0  0  0
 28 31  1  0  0  0
 31 32  1  0  0  0
 28 27  1  0  0  0
 27 26  1  0  0  0
 26 22  1  0  0  0
 22 23  1  0  0  0
 23 24  2  0  0  0
 23  1  1  0  0  0
  1  2  2  0  0  0
  2  3  1  0  0  0
  2  4  1  0  0  0
  4  5  1  0  0  0
  5  9  1  0  0  0
  9 10  2  0  0  0
 10 11  1  0  0  0
 11 12  2  0  0  0
 11 13  1  0  0  0
 13 14  1  0  0  0
 14 15  2  0  0  0
 15 16  1  0  0  0
 16 17  2  0  0  0
 17 18  1  0  0  0
 17 19  1  0  0  0
 19 20  2  0  0  0
  5  6  2  0  0  0
  6  7  1  0  0  0
  6  1  1  0  0  0
 20 10  1  0  0  0
 20 14  1  0  0  0
 22 25  1  0  0  0
  4  8  1  0  0  0
 13 21  1  0  0  0
M  END
> <minimizedAffinity>
-8.31571

> <CNNscore>
0.4416553378

> <CNNaffinity>
6.2420368195

> <CNN_VS>
2.7568287849

> <CNNaffinity_variance>
0.2116632164

$$$$
[H]/C(=C1/C(=O)N([H])c2c([H])c([H])c(F)c([H])c21)c1c(C([H])([H])[H])c(C(=O)N([H])C([H])([H])C([H])([H])N(C([H])([H])C([H])([H])[H])C([H])([H])C([H])([H])[H])c(C([H])([H])[H])n1[H]


 32 34  0  0  0  0  0  0  0  0999 V2000
   42.6060   14.9446  -13.1757 C   0  0  0  0  0  0  0  0  0  0  0  0
   43.2172   14.0320  -13.9801 C   0  0  0  0  0  0  0  0  0  0  0  0
   44.6778   13.8013  -14.1635 C   0  0  0  0  0  0  0  0  0  0  0  0
   42.2874   13.2659  -14.6366 N   0  0  0  0  0  0  0  0  0  0  0  0
   41.0906   13.6687  -14.2678 C   0  0  0  0  0  0  0  0  0  0  0  0
   41.2504   14.7177  -13.3543 C   0  0  0  0  0  0  0  0  0  0  0  0
   40.1527   15.4669  -12.6911 C   0  0  0  0  0  0  0  0  0  0  0  0
   42.5424   12.5076  -15.3189 H   0  0  0  0  0  0  0  0  0  0  0  0
   39.7900   13.1831  -14.6464 C   0  0  0  0  0  0  0  0  0  0  0  0
   39.5628   12.5207  -15.7430 C   0  0  0  0  0  0  0  0  0  0  0  0
   40.4766   12.1188  -16.7904 C   0  0  0  0  0  0  0  0  0  0  0  0
   41.7181   12.3266  -16.8407 O   0  0  0  0  0  0  0  0  0  0  0  0
   39.6959   11.4266  -17.7757 N   0  0  0  0  0  0  0  0  0  0  0  0
   38.3412   11.3838  -17.3801 C   0  0  0  0  0  0  0  0  0  0  0  0
   37.2006   10.8539  -17.9399 C   0  0  0  0  0  0  0  0  0  0  0  0
   35.9667   10.9477  -17.3347 C   0  0  0  0  0  0  0  0  0  0  0  0
   35.8441   11.5954  -16.1164 C   0  0  0  0  0  0  0  0  0  0  0  0
   34.6534   11.7133  -15.4827 F   0  0  0  0  0  0  0  0  0  0  0  0
   36.9900   12.1194  -15.5689 C   0  0  0  0  0  0  0  0  0  0  0  0
   38.2336   12.0289  -16.1711 C   0  0  0  0  0  0  0  0  0  0  0  0
   40.0675   11.0147  -18.6521 H   0  0  0  0  0  0  0  0  0  0  0  0
   43.4260   15.8757  -10.9555 N   0  0  0  0  0  0  0  0  0  0  0  0
   43.1398   16.0005  -12.3216 C   0  0  0  0  0  0  0  0  0  0  0  0
   43.3475   17.1175  -12.9357 O   0  0  0  0  0  0  0  0  0  0  0  0
   43.2428   14.8759  -10.5431 H   0  0  0  0  0  0  0  0  0  0  0  0
   43.9329   16.7735   -9.9920 C   0  0  0  0  0  0  0  0  0  0  0  0
   45.1964   16.4523   -9.2766 C   0  0  0  0  0  0  0  0  0  0  0  0
   45.1012   16.2870   -7.8827 N   0  0  0  0  0  0  0  0  0  0  0  0
   45.3064   17.9248   -6.0438 C   0  0  0  0  0  0  0  0  0  0  0  0
   44.5426   17.5052   -7.2834 C   0  0  0  0  0  0  0  0  0  0  0  0
   44.2930   15.1892   -7.4488 C   0  0  0  0  0  0  0  0  0  0  0  0
   45.0367   14.1423   -6.6826 C   0  0  0  0  0  0  0  0  0  0  0  0
 29 30  1  0  0  0
 30 28  1  0  0  0
 28 31  1  0  0  0
 31 32  1  0  0  0
 28 27  1  0  0  0
 27 26  1  0  0  0
 26 22  1  0  0  0
 22 23  1  0  0  0
 23 24  2  0  0  0
 23  1  1  0  0  0
  1  2  2  0  0  0
  2  3  1  0  0  0
  2  4  1  0  0  0
  4  5  1  0  0  0
  5  9  1  0  0  0
  9 10  2  0  0  0
 10 11  1  0  0  0
 11 12  2  0  0  0
 11 13  1  0  0  0
 13 14  1  0  0  0
 14 15  2  0  0  0
 15 16  1  0  0  0
 16 17  2  0  0  0
 17 18  1  0  0  0
 17 19  1  0  0  0
 19 20  2  0  0  0
  5  6  2  0  0  0
  6  7  1  0  0  0
  6  1  1  0  0  0
 20 10  1  0  0  0
 20 14  1  0  0  0
 22 25  1  0  0  0
  4  8  1  0  0  0
 13 21  1  0  0  0
M  END
> <minimizedAffinity>
-6.83937

> <CNNscore>
0.4380732775

> <CNNaffinity>
6.1626348495

> <CNN_VS>
2.6996855736

> <CNNaffinity_variance>
0.6069508791

$$$$
[H]/C(=C1/C(=O)N([H])c2c([H])c([H])c(F)c([H])c21)c1c(C([H])([H])[H])c(C(=O)N([H])C([H])([H])C([H])([H])N(C([H])([H])C([H])([H])[H])C([H])([H])C([H])([H])[H])c(C([H])([H])[H])n1[H]


 32 34  0  0  0  0  0  0  0  0999 V2000
   41.8053   14.8320  -13.3587 C   0  0  0  0  0  0  0  0  0  0  0  0
   42.2682   13.8879  -14.2236 C   0  0  0  0  0  0  0  0  0  0  0  0
   43.6827   13.5795  -14.5759 C   0  0  0  0  0  0  0  0  0  0  0  0
   41.2281   13.1726  -14.7612 N   0  0  0  0  0  0  0  0  0  0  0  0
   40.1062   13.6388  -14.2567 C   0  0  0  0  0  0  0  0  0  0  0  0
   40.4280   14.6778  -13.3750 C   0  0  0  0  0  0  0  0  0  0  0  0
   39.4574   15.4847  -12.5922 C   0  0  0  0  0  0  0  0  0  0  0  0
   41.3604   12.4016  -15.4639 H   0  0  0  0  0  0  0  0  0  0  0  0
   38.7462   13.2234  -14.4766 C   0  0  0  0  0  0  0  0  0  0  0  0
   38.3711   12.5052  -15.4947 C   0  0  0  0  0  0  0  0  0  0  0  0
   39.1509   11.9674  -16.5883 C   0  0  0  0  0  0  0  0  0  0  0  0
   40.3927   12.0811  -16.7680 O   0  0  0  0  0  0  0  0  0  0  0  0
   38.2350   11.2672  -17.4429 N   0  0  0  0  0  0  0  0  0  0  0  0
   36.9250   11.3494  -16.9223 C   0  0  0  0  0  0  0  0  0  0  0  0
   35.7035   10.8659  -17.3334 C   0  0  0  0  0  0  0  0  0  0  0  0
   34.5427   11.0898  -16.6262 C   0  0  0  0  0  0  0  0  0  0  0  0
   34.5813   11.8270  -15.4541 C   0  0  0  0  0  0  0  0  0  0  0  0
   33.4678   12.0737  -14.7243 F   0  0  0  0  0  0  0  0  0  0  0  0
   35.8066   12.3034  -15.0551 C   0  0  0  0  0  0  0  0  0  0  0  0
   36.9774   12.0822  -15.7606 C   0  0  0  0  0  0  0  0  0  0  0  0
   38.4922   10.7702  -18.3161 H   0  0  0  0  0  0  0  0  0  0  0  0
   43.4572   15.6208  -11.5929 N   0  0  0  0  0  0  0  0  0  0  0  0
   42.4913   15.8579  -12.5801 C   0  0  0  0  0  0  0  0  0  0  0  0
   42.1375   17.0646  -12.8747 O   0  0  0  0  0  0  0  0  0  0  0  0
   43.7055   14.5624  -11.4462 H   0  0  0  0  0  0  0  0  0  0  0  0
   44.2068   16.4732  -10.7548 C   0  0  0  0  0  0  0  0  0  0  0  0
   45.1252   17.4772  -11.3548 C   0  0  0  0  0  0  0  0  0  0  0  0
   45.8144   17.0797  -12.5151 N   0  0  0  0  0  0  0  0  0  0  0  0
   47.6326   18.3502  -13.6043 C   0  0  0  0  0  0  0  0  0  0  0  0
   46.1475   18.2645  -13.3154 C   0  0  0  0  0  0  0  0  0  0  0  0
   47.0309   16.3612  -12.2904 C   0  0  0  0  0  0  0  0  0  0  0  0
   46.9681   14.9136  -12.6600 C   0  0  0  0  0  0  0  0  0  0  0  0
 29 30  1  0  0  0
 30 28  1  0  0  0
 28 31  1  0  0  0
 31 32  1  0  0  0
 28 27  1  0  0  0
 27 26  1  0  0  0
 26 22  1  0  0  0
 22 23  1  0  0  0
 23 24  2  0  0  0
 23  1  1  0  0  0
  1  2  2  0  0  0
  2  3  1  0  0  0
  2  4  1  0  0  0
  4  5  1  0  0  0
  5  9  1  0  0  0
  9 10  2  0  0  0
 10 11  1  0  0  0
 11 12  2  0  0  0
 11 13  1  0  0  0
 13 14  1  0  0  0
 14 15  2  0  0  0
 15 16  1  0  0  0
 16 17  2  0  0  0
 17 18  1  0  0  0
 17 19  1  0  0  0
 19 20  2  0  0  0
  5  6  2  0  0  0
  6  7  1  0  0  0
  6  1  1  0  0  0
 20 10  1  0  0  0
 20 14  1  0  0  0
 22 25  1  0  0  0
  4  8  1  0  0  0
 13 21  1  0  0  0
M  END
> <minimizedAffinity>
-7.34724

> <CNNscore>
0.3885134757

> <CNNaffinity>
6.2725133896

> <CNN_VS>
2.4369559288

> <CNNaffinity_variance>
0.3550067544

$$$$
[H]/C(=C1/C(=O)N([H])c2c([H])c([H])c(F)c([H])c21)c1c(C([H])([H])[H])c(C(=O)N([H])C([H])([H])C([H])([H])N(C([H])([H])C([H])([H])[H])C([H])([H])C([H])([H])[H])c(C([H])([H])[H])n1[H]


 32 34  0  0  0  0  0  0  0  0999 V2000
   43.0490   15.1709  -13.0524 C   0  0  0  0  0  0  0  0  0  0  0  0
   43.5647   14.1504  -13.7914 C   0  0  0  0  0  0  0  0  0  0  0  0
   44.9982   13.8131  -14.0175 C   0  0  0  0  0  0  0  0  0  0  0  0
   42.5599   13.3854  -14.3276 N   0  0  0  0  0  0  0  0  0  0  0  0
   41.4088   13.8948  -13.9457 C   0  0  0  0  0  0  0  0  0  0  0  0
   41.6753   15.0131  -13.1464 C   0  0  0  0  0  0  0  0  0  0  0  0
   40.6579   15.8882  -12.5099 C   0  0  0  0  0  0  0  0  0  0  0  0
   42.7356   12.5518  -14.9440 H   0  0  0  0  0  0  0  0  0  0  0  0
   40.0647   13.4577  -14.2161 C   0  0  0  0  0  0  0  0  0  0  0  0
   39.7228   12.8140  -15.2939 C   0  0  0  0  0  0  0  0  0  0  0  0
   40.5303   12.3912  -16.4176 C   0  0  0  0  0  0  0  0  0  0  0  0
   41.7697   12.5569  -16.5715 O   0  0  0  0  0  0  0  0  0  0  0  0
   39.6456   11.7357  -17.3379 N   0  0  0  0  0  0  0  0  0  0  0  0
   38.3284   11.7354  -16.8293 C   0  0  0  0  0  0  0  0  0  0  0  0
   37.1269   11.2503  -17.2940 C   0  0  0  0  0  0  0  0  0  0  0  0
   35.9524   11.3804  -16.5859 C   0  0  0  0  0  0  0  0  0  0  0  0
   35.9558   12.0201  -15.3573 C   0  0  0  0  0  0  0  0  0  0  0  0
   34.8277   12.1726  -14.6242 F   0  0  0  0  0  0  0  0  0  0  0  0
   37.1614   12.4993  -14.9052 C   0  0  0  0  0  0  0  0  0  0  0  0
   38.3459   12.3721  -15.6112 C   0  0  0  0  0  0  0  0  0  0  0  0
   39.9272   11.3198  -18.2453 H   0  0  0  0  0  0  0  0  0  0  0  0
   44.2044   16.1929  -11.0300 N   0  0  0  0  0  0  0  0  0  0  0  0
   43.6857   16.2672  -12.3298 C   0  0  0  0  0  0  0  0  0  0  0  0
   43.7493   17.3700  -12.9990 O   0  0  0  0  0  0  0  0  0  0  0  0
   44.1268   15.2016  -10.5667 H   0  0  0  0  0  0  0  0  0  0  0  0
   44.8383   17.1338  -10.1911 C   0  0  0  0  0  0  0  0  0  0  0  0
   46.2050   17.6163  -10.5237 C   0  0  0  0  0  0  0  0  0  0  0  0
   47.2763   16.8490  -10.0309 N   0  0  0  0  0  0  0  0  0  0  0  0
   47.1716   14.7842   -8.6774 C   0  0  0  0  0  0  0  0  0  0  0  0
   46.9090   16.2756   -8.7304 C   0  0  0  0  0  0  0  0  0  0  0  0
   47.6944   15.7686  -10.8703 C   0  0  0  0  0  0  0  0  0  0  0  0
   48.9243   16.0522  -11.6721 C   0  0  0  0  0  0  0  0  0  0  0  0
 29 30  1  0  0  0
 30 28  1  0  0  0
 28 31  1  0  0  0
 31 32  1  0  0  0
 28 27  1  0  0  0
 27 26  1  0  0  0
 26 22  1  0  0  0
 22 23  1  0  0  0
 23 24  2  0  0  0
 23  1  1  0  0  0
  1  2  2  0  0  0
  2  3  1  0  0  0
  2  4  1  0  0  0
  4  5  1  0  0  0
  5  9  1  0  0  0
  9 10  2  0  0  0
 10 11  1  0  0  0
 11 12  2  0  0  0
 11 13  1  0  0  0
 13 14  1  0  0  0
 14 15  2  0  0  0
 15 16  1  0  0  0
 16 17  2  0  0  0
 17 18  1  0  0  0
 17 19  1  0  0  0
 19 20  2  0  0  0
  5  6  2  0  0  0
  6  7  1  0  0  0
  6  1  1  0  0  0
 20 10  1  0  0  0
 20 14  1  0  0  0
 22 25  1  0  0  0
  4  8  1  0  0  0
 13 21  1  0  0  0
M  END
> <minimizedAffinity>
-6.55971

> <CNNscore>
0.2801114023

> <CNNaffinity>
5.9577536583

> <CNN_VS>
1.6688346863

> <CNNaffinity_variance>
0.5271056294

$$$$
[H]/C(=C1/C(=O)N([H])c2c([H])c([H])c(F)c([H])c21)c1c(C([H])([H])[H])c(C(=O)N([H])C([H])([H])C([H])([H])N(C([H])([H])C([H])([H])[H])C([H])([H])C([H])([H])[H])c(C([H])([H])[H])n1[H]


 32 34  0  0  0  0  0  0  0  0999 V2000
   35.2512   15.1739  -11.0039 C   0  0  0  0  0  0  0  0  0  0  0  0
   34.3195   15.1066  -11.9944 C   0  0  0  0  0  0  0  0  0  0  0  0
   32.8722   15.4522  -11.9191 C   0  0  0  0  0  0  0  0  0  0  0  0
   34.8906   14.6835  -13.1680 N   0  0  0  0  0  0  0  0  0  0  0  0
   36.1717   14.4792  -12.9499 C   0  0  0  0  0  0  0  0  0  0  0  0
   36.4339   14.7758  -11.6069 C   0  0  0  0  0  0  0  0  0  0  0  0
   37.7559   14.6755  -10.9373 C   0  0  0  0  0  0  0  0  0  0  0  0
   34.3476   14.5491  -14.0583 H   0  0  0  0  0  0  0  0  0  0  0  0
   37.2104   14.0539  -13.8504 C   0  0  0  0  0  0  0  0  0  0  0  0
   37.0582   13.0997  -14.7218 C   0  0  0  0  0  0  0  0  0  0  0  0
   35.9013   12.2784  -15.0057 C   0  0  0  0  0  0  0  0  0  0  0  0
   34.7699   12.3379  -14.4549 O   0  0  0  0  0  0  0  0  0  0  0  0
   36.2857   11.3707  -16.0486 N   0  0  0  0  0  0  0  0  0  0  0  0
   37.6288   11.5981  -16.4202 C   0  0  0  0  0  0  0  0  0  0  0  0
   38.4722   11.0258  -17.3455 C   0  0  0  0  0  0  0  0  0  0  0  0
   39.7737   11.4430  -17.5185 C   0  0  0  0  0  0  0  0  0  0  0  0
   40.2751   12.4756  -16.7433 C   0  0  0  0  0  0  0  0  0  0  0  0
   41.5469   12.9208  -16.8762 F   0  0  0  0  0  0  0  0  0  0  0  0
   39.4229   13.0380  -15.8240 C   0  0  0  0  0  0  0  0  0  0  0  0
   38.1137   12.6242  -15.6447 C   0  0  0  0  0  0  0  0  0  0  0  0
   35.6705   10.6513  -16.4725 H   0  0  0  0  0  0  0  0  0  0  0  0
   34.7310   16.7553   -9.0810 N   0  0  0  0  0  0  0  0  0  0  0  0
   35.1444   15.5166   -9.5895 C   0  0  0  0  0  0  0  0  0  0  0  0
   35.4681   14.5549   -8.7906 O   0  0  0  0  0  0  0  0  0  0  0  0
   34.4490   17.4886   -9.8466 H   0  0  0  0  0  0  0  0  0  0  0  0
   34.5744   17.2543   -7.7705 C   0  0  0  0  0  0  0  0  0  0  0  0
   35.7189   17.9186   -7.0921 C   0  0  0  0  0  0  0  0  0  0  0  0
   36.6305   18.5961   -7.9223 N   0  0  0  0  0  0  0  0  0  0  0  0
   37.9360   20.6797   -8.1683 C   0  0  0  0  0  0  0  0  0  0  0  0
   36.8474   19.9527   -7.4049 C   0  0  0  0  0  0  0  0  0  0  0  0
   37.9148   17.9799   -8.0547 C   0  0  0  0  0  0  0  0  0  0  0  0
   38.0859   16.7336   -7.2464 C   0  0  0  0  0  0  0  0  0  0  0  0
 29 30  1  0  0  0
 30 28  1  0  0  0
 28 31  1  0  0  0
 31 32  1  0  0  0
 28 27  1  0  0  0
 27 26  1  0  0  0
 26 22  1  0  0  0
 22 23  1  0  0  0
 23 24  2  0  0  0
 23  1  1  0  0  0
  1  2  2  0  0  0
  2  3  1  0  0  0
  2  4  1  0  0  0
  4  5  1  0  0  0
  5  9  1  0  0  0
  9 10  2  0  0  0
 10 11  1  0  0  0
 11 12  2  0  0  0
 11 13  1  0  0  0
 13 14  1  0  0  0
 14 15  2  0  0  0
 15 16  1  0  0  0
 16 17  2  0  0  0
 17 18  1  0  0  0
 17 19  1  0  0  0
 19 20  2  0  0  0
  5  6  2  0  0  0
  6  7  1  0  0  0
  6  1  1  0  0  0
 20 10  1  0  0  0
 20 14  1  0  0  0
 22 25  1  0  0  0
  4  8  1  0  0  0
 13 21  1  0  0  0
M  END
> <minimizedAffinity>
-7.65970

> <CNNscore>
0.2448837906

> <CNNaffinity>
6.0518364906

> <CNN_VS>
1.4819966555

> <CNNaffinity_variance>
0.3771403134

$$$$
[H]c1c([H])c([H])c2c(c1[H])c1c3c(c4c5c([H])c([H])c([H])c([H])c5n5c4c1n2[C@]1([H])O[C@]5(C([H])([H])[H])[C@@]([H])(OC([H])([H])[H])[C@@]([H])(N([H])C([H])([H])[H])C1([H])[H])C([H])([H])N([H])C3=O


 37 44  0  0  0  0  0  0  0  0999 V2000
   34.4451   14.7873  -11.5938 C   0  0  0  0  0  0  0  0  0  0  0  0
   34.3279   13.6265  -12.6396 C   0  0  0  0  0  0  0  0  0  0  0  0
   35.6221   13.5147  -13.0790 C   0  0  0  0  0  0  0  0  0  0  0  0
   36.3452   13.2156  -11.9331 O   0  0  0  0  0  0  0  0  0  0  0  0
   36.9626   14.4492  -11.5441 C   0  0  0  0  0  0  0  0  0  0  0  0
   37.4206   14.0662  -10.0926 C   0  0  0  0  0  0  0  0  0  0  0  0
   35.8697   15.3918  -11.5267 C   0  0  0  0  0  0  0  0  0  0  0  0
   38.1357   14.5718  -12.3691 N   0  0  0  0  0  0  0  0  0  0  0  0
   39.2785   15.2050  -12.0170 C   0  0  0  0  0  0  0  0  0  0  0  0
   39.6551   15.9984  -10.9408 C   0  0  0  0  0  0  0  0  0  0  0  0
   40.9357   16.5352  -10.8452 C   0  0  0  0  0  0  0  0  0  0  0  0
   41.8770   16.2960  -11.8219 C   0  0  0  0  0  0  0  0  0  0  0  0
   41.5361   15.5133  -12.9040 C   0  0  0  0  0  0  0  0  0  0  0  0
   40.2696   15.0027  -12.9644 C   0  0  0  0  0  0  0  0  0  0  0  0
   39.7131   14.2229  -13.9318 C   0  0  0  0  0  0  0  0  0  0  0  0
   40.1392   13.6232  -15.1248 C   0  0  0  0  0  0  0  0  0  0  0  0
   41.4685   13.7086  -15.7549 C   0  0  0  0  0  0  0  0  0  0  0  0
   41.3709   12.9359  -16.9665 N   0  0  0  0  0  0  0  0  0  0  0  0
   40.0478   12.3683  -17.0728 C   0  0  0  0  0  0  0  0  0  0  0  0
   39.7649   11.6525  -18.0441 O   0  0  0  0  0  0  0  0  0  0  0  0
   39.3244   12.8250  -15.9077 C   0  0  0  0  0  0  0  0  0  0  0  0
   38.0103   12.5826  -15.5307 C   0  0  0  0  0  0  0  0  0  0  0  0
   36.9300   11.9231  -16.0412 C   0  0  0  0  0  0  0  0  0  0  0  0
   36.7342   11.1643  -17.1496 C   0  0  0  0  0  0  0  0  0  0  0  0
   35.4513   10.6273  -17.3618 C   0  0  0  0  0  0  0  0  0  0  0  0
   34.4253   10.8618  -16.4760 C   0  0  0  0  0  0  0  0  0  0  0  0
   34.6319   11.6412  -15.3402 C   0  0  0  0  0  0  0  0  0  0  0  0
   35.8930   12.1534  -15.1561 C   0  0  0  0  0  0  0  0  0  0  0  0
   36.2943   12.9099  -14.1482 N   0  0  0  0  0  0  0  0  0  0  0  0
   37.6104   13.1769  -14.3628 C   0  0  0  0  0  0  0  0  0  0  0  0
   38.4469   13.9809  -13.5670 C   0  0  0  0  0  0  0  0  0  0  0  0
   42.1723   12.8375  -17.6302 H   0  0  0  0  0  0  0  0  0  0  0  0
   32.2337   15.7615  -11.6619 C   0  0  0  0  0  0  0  0  0  0  0  0
   33.5993   15.8606  -12.0780 N   0  0  0  0  0  0  0  0  0  0  0  0
   33.7567   16.1255  -13.0533 H   0  0  0  0  0  0  0  0  0  0  0  0
   35.9759   16.5925  -12.1953 O   0  0  0  0  0  0  0  0  0  0  0  0
   36.5558   17.6270  -11.5194 C   0  0  0  0  0  0  0  0  0  0  0  0
 33 34  1  0  0  0
 34  1  1  0  0  0
  1  2  1  0  0  0
  2  3  1  0  0  0
  3  4  1  0  0  0
  4  5  1  0  0  0
  5  6  1  0  0  0
  5  7  1  0  0  0
  7 36  1  0  0  0
 36 37  1  0  0  0
  5  8  1  0  0  0
  8  9  1  0  0  0
  9 10  2  0  0  0
 10 11  1  0  0  0
 11 12  2  0  0  0
 12 13  1  0  0  0
 13 14  2  0  0  0
 14 15  1  0  0  0
 15 16  2  0  0  0
 16 17  1  0  0  0
 17 18  1  0  0  0
 18 19  1  0  0  0
 19 20  2  0  0  0
 19 21  1  0  0  0
 21 22  2  0  0  0
 22 23  1  0  0  0
 23 24  2  0  0  0
 24 25  1  0  0  0
 25 26  2  0  0  0
 26 27  1  0  0  0
 27 28  2  0  0  0
 28 29  1  0  0  0
 29 30  1  0  0  0
 30 31  2  0  0  0
  7  1  1  0  0  0
 31  8  1  0  0  0
 29  3  1  0  0  0
 14  9  1  0  0  0
 31 15  1  0  0  0
 21 16  1  0  0  0
 30 22  1  0  0  0
 28 23  1  0  0  0
 34 35  1  0  0  0
 18 32  1  0  0  0
M  END
> <minimizedAffinity>
-9.33298

> <CNNscore>
0.5296071172

> <CNNaffinity>
7.1289467812

> <CNN_VS>
3.7755410671

> <CNNaffinity_variance>
0.1689954996

$$$$
[H]c1c([H])c([H])c2c(c1[H])c1c3c(c4c5c([H])c([H])c([H])c([H])c5n5c4c1n2[C@]1([H])O[C@]5(C([H])([H])[H])[C@@]([H])(OC([H])([H])[H])[C@@]([H])(N([H])C([H])([H])[H])C1([H])[H])C([H])([H])N([H])C3=O


 37 44  0  0  0  0  0  0  0  0999 V2000
   36.1765   14.7597  -11.6313 C   0  0  0  0  0  0  0  0  0  0  0  0
   37.5670   15.4766  -11.5445 C   0  0  0  0  0  0  0  0  0  0  0  0
   38.2209   14.9499  -12.6287 C   0  0  0  0  0  0  0  0  0  0  0  0
   37.4298   15.3099  -13.7105 O   0  0  0  0  0  0  0  0  0  0  0  0
   36.6834   14.1316  -14.0404 C   0  0  0  0  0  0  0  0  0  0  0  0
   35.6074   14.7619  -14.9935 C   0  0  0  0  0  0  0  0  0  0  0  0
   36.1069   13.7244  -12.7813 C   0  0  0  0  0  0  0  0  0  0  0  0
   37.5697   13.3218  -14.8344 N   0  0  0  0  0  0  0  0  0  0  0  0
   37.1856   12.4582  -15.8028 C   0  0  0  0  0  0  0  0  0  0  0  0
   35.9589   11.9743  -16.2391 C   0  0  0  0  0  0  0  0  0  0  0  0
   35.8672   11.0606  -17.2850 C   0  0  0  0  0  0  0  0  0  0  0  0
   36.9979   10.6032  -17.9250 C   0  0  0  0  0  0  0  0  0  0  0  0
   38.2315   11.0627  -17.5165 C   0  0  0  0  0  0  0  0  0  0  0  0
   38.2832   11.9597  -16.4864 C   0  0  0  0  0  0  0  0  0  0  0  0
   39.3769   12.5340  -15.9140 C   0  0  0  0  0  0  0  0  0  0  0  0
   40.7628   12.5126  -16.1216 C   0  0  0  0  0  0  0  0  0  0  0  0
   41.5145   11.7399  -17.1261 C   0  0  0  0  0  0  0  0  0  0  0  0
   42.9007   12.0582  -16.8989 N   0  0  0  0  0  0  0  0  0  0  0  0
   43.0074   13.0111  -15.8196 C   0  0  0  0  0  0  0  0  0  0  0  0
   44.1238   13.4265  -15.4777 O   0  0  0  0  0  0  0  0  0  0  0  0
   41.6554   13.2587  -15.3726 C   0  0  0  0  0  0  0  0  0  0  0  0
   41.1972   14.0809  -14.3519 C   0  0  0  0  0  0  0  0  0  0  0  0
   41.7448   14.8930  -13.4015 C   0  0  0  0  0  0  0  0  0  0  0  0
   43.0164   15.2692  -13.1110 C   0  0  0  0  0  0  0  0  0  0  0  0
   43.2127   16.1463  -12.0287 C   0  0  0  0  0  0  0  0  0  0  0  0
   42.1517   16.6100  -11.2860 C   0  0  0  0  0  0  0  0  0  0  0  0
   40.8489   16.2208  -11.5886 C   0  0  0  0  0  0  0  0  0  0  0  0
   40.6844   15.3643  -12.6498 C   0  0  0  0  0  0  0  0  0  0  0  0
   39.5381   14.8812  -13.0990 N   0  0  0  0  0  0  0  0  0  0  0  0
   39.8404   14.0891  -14.1624 C   0  0  0  0  0  0  0  0  0  0  0  0
   38.9376   13.3341  -14.9332 C   0  0  0  0  0  0  0  0  0  0  0  0
   43.6698   11.6313  -17.4633 H   0  0  0  0  0  0  0  0  0  0  0  0
   36.2628   14.7350   -9.2156 C   0  0  0  0  0  0  0  0  0  0  0  0
   36.0394   13.9850  -10.4137 N   0  0  0  0  0  0  0  0  0  0  0  0
   36.4579   13.0524  -10.4479 H   0  0  0  0  0  0  0  0  0  0  0  0
   36.2412   12.4244  -12.3428 O   0  0  0  0  0  0  0  0  0  0  0  0
   35.3588   11.5099  -12.8410 C   0  0  0  0  0  0  0  0  0  0  0  0
 33 34  1  0  0  0
 34  1  1  0  0  0
  1  2  1  0  0  0
  2  3  1  0  0  0
  3  4  1  0  0  0
  4  5  1  0  0  0
  5  6  1  0  0  0
  5  7  1  0  0  0
  7 36  1  0  0  0
 36 37  1  0  0  0
  5  8  1  0  0  0
  8  9  1  0  0  0
  9 10  2  0  0  0
 10 11  1  0  0  0
 11 12  2  0  0  0
 12 13  1  0  0  0
 13 14  2  0  0  0
 14 15  1  0  0  0
 15 16  2  0  0  0
 16 17  1  0  0  0
 17 18  1  0  0  0
 18 19  1  0  0  0
 19 20  2  0  0  0
 19 21  1  0  0  0
 21 22  2  0  0  0
 22 23  1  0  0  0
 23 24  2  0  0  0
 24 25  1  0  0  0
 25 26  2  0  0  0
 26 27  1  0  0  0
 27 28  2  0  0  0
 28 29  1  0  0  0
 29 30  1  0  0  0
 30 31  2  0  0  0
  7  1  1  0  0  0
 31  8  1  0  0  0
 29  3  1  0  0  0
 14  9  1  0  0  0
 31 15  1  0  0  0
 21 16  1  0  0  0
 30 22  1  0  0  0
 28 23  1  0  0  0
 34 35  1  0  0  0
 18 32  1  0  0  0
M  END
> <minimizedAffinity>
-11.24602

> <CNNscore>
0.3376271725

> <CNNaffinity>
6.7868905067

> <CNN_VS>
2.2914385796

> <CNNaffinity_variance>
0.0638231486

$$$$
[H]c1c([H])c([H])c2c(c1[H])c1c3c(c4c5c([H])c([H])c([H])c([H])c5n5c4c1n2[C@]1([H])O[C@]5(C([H])([H])[H])[C@@]([H])(OC([H])([H])[H])[C@@]([H])(N([H])C([H])([H])[H])C1([H])[H])C([H])([H])N([H])C3=O


 37 44  0  0  0  0  0  0  0  0999 V2000
   44.0565   14.1538  -12.0577 C   0  0  0  0  0  0  0  0  0  0  0  0
   44.6942   12.7539  -11.7599 C   0  0  0  0  0  0  0  0  0  0  0  0
   45.0609   12.8880  -10.4453 C   0  0  0  0  0  0  0  0  0  0  0  0
   43.8694   13.1542   -9.7857 O   0  0  0  0  0  0  0  0  0  0  0  0
   43.8725   14.5693   -9.5580 C   0  0  0  0  0  0  0  0  0  0  0  0
   42.3679   14.7736   -9.1608 C   0  0  0  0  0  0  0  0  0  0  0  0
   44.1610   15.1274  -10.8575 C   0  0  0  0  0  0  0  0  0  0  0  0
   44.6799   14.7705   -8.3836 N   0  0  0  0  0  0  0  0  0  0  0  0
   44.5259   15.7744   -7.4894 C   0  0  0  0  0  0  0  0  0  0  0  0
   43.7425   16.9206   -7.4442 C   0  0  0  0  0  0  0  0  0  0  0  0
   43.8009   17.8001   -6.3672 C   0  0  0  0  0  0  0  0  0  0  0  0
   44.6439   17.5610   -5.3043 C   0  0  0  0  0  0  0  0  0  0  0  0
   45.4357   16.4329   -5.3175 C   0  0  0  0  0  0  0  0  0  0  0  0
   45.3517   15.5916   -6.3915 C   0  0  0  0  0  0  0  0  0  0  0  0
   46.0381   14.4389   -6.6236 C   0  0  0  0  0  0  0  0  0  0  0  0
   46.9820   13.6618   -5.9384 C   0  0  0  0  0  0  0  0  0  0  0  0
   47.5906   13.9301   -4.6236 C   0  0  0  0  0  0  0  0  0  0  0  0
   48.5055   12.8419   -4.3931 N   0  0  0  0  0  0  0  0  0  0  0  0
   48.4483   11.9190   -5.5019 C   0  0  0  0  0  0  0  0  0  0  0  0
   49.1547   10.9009   -5.4881 O   0  0  0  0  0  0  0  0  0  0  0  0
   47.4907   12.4735   -6.4317 C   0  0  0  0  0  0  0  0  0  0  0  0
   47.0741   11.9919   -7.6656 C   0  0  0  0  0  0  0  0  0  0  0  0
   47.3698   10.9352   -8.4771 C   0  0  0  0  0  0  0  0  0  0  0  0
   48.1922    9.8622   -8.3548 C   0  0  0  0  0  0  0  0  0  0  0  0
   48.2447    8.9476   -9.4226 C   0  0  0  0  0  0  0  0  0  0  0  0
   47.4879    9.1320  -10.5564 C   0  0  0  0  0  0  0  0  0  0  0  0
   46.6456   10.2350  -10.6765 C   0  0  0  0  0  0  0  0  0  0  0  0
   46.6125   11.1125   -9.6202 C   0  0  0  0  0  0  0  0  0  0  0  0
   45.8824   12.2119   -9.5349 N   0  0  0  0  0  0  0  0  0  0  0  0
   46.1520   12.7642   -8.3217 C   0  0  0  0  0  0  0  0  0  0  0  0
   45.6327   13.9676   -7.8104 C   0  0  0  0  0  0  0  0  0  0  0  0
   49.0961   12.7836   -3.5328 H   0  0  0  0  0  0  0  0  0  0  0  0
   45.0896   13.8978  -14.2282 C   0  0  0  0  0  0  0  0  0  0  0  0
   44.8593   14.7541  -13.1050 N   0  0  0  0  0  0  0  0  0  0  0  0
   45.6635   15.2930  -12.7750 H   0  0  0  0  0  0  0  0  0  0  0  0
   45.1663   16.0586  -11.0070 O   0  0  0  0  0  0  0  0  0  0  0  0
   44.8083   17.3732  -10.9237 C   0  0  0  0  0  0  0  0  0  0  0  0
 33 34  1  0  0  0
 34  1  1  0  0  0
  1  2  1  0  0  0
  2  3  1  0  0  0
  3  4  1  0  0  0
  4  5  1  0  0  0
  5  6  1  0  0  0
  5  7  1  0  0  0
  7 36  1  0  0  0
 36 37  1  0  0  0
  5  8  1  0  0  0
  8  9  1  0  0  0
  9 10  2  0  0  0
 10 11  1  0  0  0
 11 12  2  0  0  0
 12 13  1  0  0  0
 13 14  2  0  0  0
 14 15  1  0  0  0
 15 16  2  0  0  0
 16 17  1  0  0  0
 17 18  1  0  0  0
 18 19  1  0  0  0
 19 20  2  0  0  0
 19 21  1  0  0  0
 21 22  2  0  0  0
 22 23  1  0  0  0
 23 24  2  0  0  0
 24 25  1  0  0  0
 25 26  2  0  0  0
 26 27  1  0  0  0
 27 28  2  0  0  0
 28 29  1  0  0  0
 29 30  1  0  0  0
 30 31  2  0  0  0
  7  1  1  0  0  0
 31  8  1  0  0  0
 29  3  1  0  0  0
 14  9  1  0  0  0
 31 15  1  0  0  0
 21 16  1  0  0  0
 30 22  1  0  0  0
 28 23  1  0  0  0
 34 35  1  0  0  0
 18 32  1  0  0  0
M  END
> <minimizedAffinity>
-4.92918

> <CNNscore>
0.2746373117

> <CNNaffinity>
5.3435573578

> <CNN_VS>
1.4675402641

> <CNNaffinity_variance>
0.2052818537

$$$$
[H]c1c([H])c([H])c2c(c1[H])c1c3c(c4c5c([H])c([H])c([H])c([H])c5n5c4c1n2[C@]1([H])O[C@]5(C([H])([H])[H])[C@@]([H])(OC([H])([H])[H])[C@@]([H])(N([H])C([H])([H])[H])C1([H])[H])C([H])([H])N([H])C3=O


 37 44  0  0  0  0  0  0  0  0999 V2000
   44.4603   12.7547   -5.5702 C   0  0  0  0  0  0  0  0  0  0  0  0
   44.9497   13.2437   -6.9760 C   0  0  0  0  0  0  0  0  0  0  0  0
   43.8915   14.0123   -7.3884 C   0  0  0  0  0  0  0  0  0  0  0  0
   43.7876   14.9970   -6.4162 O   0  0  0  0  0  0  0  0  0  0  0  0
   42.6996   14.5864   -5.5783 C   0  0  0  0  0  0  0  0  0  0  0  0
   42.9281   15.5510   -4.3615 C   0  0  0  0  0  0  0  0  0  0  0  0
   43.0195   13.2196   -5.2423 C   0  0  0  0  0  0  0  0  0  0  0  0
   41.5046   15.0019   -6.2646 N   0  0  0  0  0  0  0  0  0  0  0  0
   40.3396   15.3482   -5.6696 C   0  0  0  0  0  0  0  0  0  0  0  0
   39.8651   15.2983   -4.3651 C   0  0  0  0  0  0  0  0  0  0  0  0
   38.5826   15.7306   -4.0400 C   0  0  0  0  0  0  0  0  0  0  0  0
   37.7367   16.2246   -5.0083 C   0  0  0  0  0  0  0  0  0  0  0  0
   38.1758   16.2875   -6.3133 C   0  0  0  0  0  0  0  0  0  0  0  0
   39.4412   15.8544   -6.5956 C   0  0  0  0  0  0  0  0  0  0  0  0
   40.0761   15.8121   -7.7992 C   0  0  0  0  0  0  0  0  0  0  0  0
   39.7836   16.1891   -9.1171 C   0  0  0  0  0  0  0  0  0  0  0  0
   38.5372   16.7828   -9.6319 C   0  0  0  0  0  0  0  0  0  0  0  0
   38.7477   16.9546  -11.0464 N   0  0  0  0  0  0  0  0  0  0  0  0
   40.0783   16.5153  -11.3941 C   0  0  0  0  0  0  0  0  0  0  0  0
   40.4619   16.5957  -12.5697 O   0  0  0  0  0  0  0  0  0  0  0  0
   40.6775   16.0498  -10.1639 C   0  0  0  0  0  0  0  0  0  0  0  0
   41.9376   15.5108   -9.9417 C   0  0  0  0  0  0  0  0  0  0  0  0
   43.0287   15.1793  -10.6917 C   0  0  0  0  0  0  0  0  0  0  0  0
   43.3342   15.3079  -12.0081 C   0  0  0  0  0  0  0  0  0  0  0  0
   44.5889   14.8422  -12.4415 C   0  0  0  0  0  0  0  0  0  0  0  0
   45.4806   14.2737  -11.5616 C   0  0  0  0  0  0  0  0  0  0  0  0
   45.1619   14.1444  -10.2118 C   0  0  0  0  0  0  0  0  0  0  0  0
   43.9311   14.6069   -9.8144 C   0  0  0  0  0  0  0  0  0  0  0  0
   43.4411   14.5805   -8.5863 N   0  0  0  0  0  0  0  0  0  0  0  0
   42.2063   15.1473   -8.6485 C   0  0  0  0  0  0  0  0  0  0  0  0
   41.2956   15.2994   -7.5870 C   0  0  0  0  0  0  0  0  0  0  0  0
   38.0100   17.3442  -11.6759 H   0  0  0  0  0  0  0  0  0  0  0  0
   45.2054   10.6317   -4.6860 C   0  0  0  0  0  0  0  0  0  0  0  0
   44.3855   11.3088   -5.6437 N   0  0  0  0  0  0  0  0  0  0  0  0
   44.3878   10.9257   -6.5920 H   0  0  0  0  0  0  0  0  0  0  0  0
   42.0818   12.2237   -5.4123 O   0  0  0  0  0  0  0  0  0  0  0  0
   41.5898   12.0469   -6.6733 C   0  0  0  0  0  0  0  0  0  0  0  0
 33 34  1  0  0  0
 34  1  1  0  0  0
  1  2  1  0  0  0
  2  3  1  0  0  0
  3  4  1  0  0  0
  4  5  1  0  0  0
  5  6  1  0  0  0
  5  7  1  0  0  0
  7 36  1  0  0  0
 36 37  1  0  0  0
  5  8  1  0  0  0
  8  9  1  0  0  0
  9 10  2  0  0  0
 10 11  1  0  0  0
 11 12  2  0  0  0
 12 13  1  0  0  0
 13 14  2  0  0  0
 14 15  1  0  0  0
 15 16  2  0  0  0
 16 17  1  0  0  0
 17 18  1  0  0  0
 18 19  1  0  0  0
 19 20  2  0  0  0
 19 21  1  0  0  0
 21 22  2  0  0  0
 22 23  1  0  0  0
 23 24  2  0  0  0
 24 25  1  0  0  0
 25 26  2  0  0  0
 26 27  1  0  0  0
 27 28  2  0  0  0
 28 29  1  0  0  0
 29 30  1  0  0  0
 30 31  2  0  0  0
  7  1  1  0  0  0
 31  8  1  0  0  0
 29  3  1  0  0  0
 14  9  1  0  0  0
 31 15  1  0  0  0
 21 16  1  0  0  0
 30 22  1  0  0  0
 28 23  1  0  0  0
 34 35  1  0  0  0
 18 32  1  0  0  0
M  END
> <minimizedAffinity>
-6.81358

> <CNNscore>
0.1510924250

> <CNNaffinity>
5.0983948708

> <CNN_VS>
0.7703288198

> <CNNaffinity_variance>
0.2933849692

$$$$
[H]c1c([H])c([H])c2c(c1[H])c1c3c(c4c5c([H])c([H])c([H])c([H])c5n5c4c1n2[C@]1([H])O[C@]5(C([H])([H])[H])[C@@]([H])(OC([H])([H])[H])[C@@]([H])(N([H])C([H])([H])[H])C1([H])[H])C([H])([H])N([H])C3=O


 37 44  0  0  0  0  0  0  0  0999 V2000
   44.3480   14.0658  -13.1609 C   0  0  0  0  0  0  0  0  0  0  0  0
   43.7395   13.5739  -14.5183 C   0  0  0  0  0  0  0  0  0  0  0  0
   42.4073   13.8481  -14.3430 C   0  0  0  0  0  0  0  0  0  0  0  0
   42.3676   15.2191  -14.1324 O   0  0  0  0  0  0  0  0  0  0  0  0
   42.2190   15.3789  -12.7159 C   0  0  0  0  0  0  0  0  0  0  0  0
   42.5520   16.9074  -12.5887 C   0  0  0  0  0  0  0  0  0  0  0  0
   43.2692   14.5570  -12.1637 C   0  0  0  0  0  0  0  0  0  0  0  0
   40.8155   15.2001  -12.4514 N   0  0  0  0  0  0  0  0  0  0  0  0
   40.1275   15.7842  -11.4432 C   0  0  0  0  0  0  0  0  0  0  0  0
   40.4860   16.5506  -10.3416 C   0  0  0  0  0  0  0  0  0  0  0  0
   39.5341   17.0232   -9.4428 C   0  0  0  0  0  0  0  0  0  0  0  0
   38.1967   16.7436   -9.6178 C   0  0  0  0  0  0  0  0  0  0  0  0
   37.8066   15.9850  -10.7005 C   0  0  0  0  0  0  0  0  0  0  0  0
   38.7688   15.5382  -11.5624 C   0  0  0  0  0  0  0  0  0  0  0  0
   38.6205   14.7734  -12.6789 C   0  0  0  0  0  0  0  0  0  0  0  0
   37.5529   14.2102  -13.3914 C   0  0  0  0  0  0  0  0  0  0  0  0
   36.1167   14.2749  -13.0688 C   0  0  0  0  0  0  0  0  0  0  0  0
   35.4554   13.5186  -14.1008 N   0  0  0  0  0  0  0  0  0  0  0  0
   36.4333   13.0288  -15.0432 C   0  0  0  0  0  0  0  0  0  0  0  0
   36.0620   12.3631  -16.0204 O   0  0  0  0  0  0  0  0  0  0  0  0
   37.7163   13.4840  -14.5577 C   0  0  0  0  0  0  0  0  0  0  0  0
   38.9853   13.2761  -15.0814 C   0  0  0  0  0  0  0  0  0  0  0  0
   39.5336   12.6008  -16.1330 C   0  0  0  0  0  0  0  0  0  0  0  0
   39.0111   11.8787  -17.1569 C   0  0  0  0  0  0  0  0  0  0  0  0
   39.9032   11.3101  -18.0842 C   0  0  0  0  0  0  0  0  0  0  0  0
   41.2629   11.4785  -17.9603 C   0  0  0  0  0  0  0  0  0  0  0  0
   41.7936   12.2206  -16.9077 C   0  0  0  0  0  0  0  0  0  0  0  0
   40.9015   12.7652  -16.0164 C   0  0  0  0  0  0  0  0  0  0  0  0
   41.1983   13.5003  -14.9579 N   0  0  0  0  0  0  0  0  0  0  0  0
   40.0168   13.8327  -14.3720 C   0  0  0  0  0  0  0  0  0  0  0  0
   39.8428   14.5772  -13.1910 C   0  0  0  0  0  0  0  0  0  0  0  0
   34.4196   13.3798  -14.1125 H   0  0  0  0  0  0  0  0  0  0  0  0
   46.1443   12.4480  -13.1654 C   0  0  0  0  0  0  0  0  0  0  0  0
   44.9429   12.9018  -12.5341 N   0  0  0  0  0  0  0  0  0  0  0  0
   44.2778   12.1770  -12.2540 H   0  0  0  0  0  0  0  0  0  0  0  0
   42.9854   13.6331  -11.1809 O   0  0  0  0  0  0  0  0  0  0  0  0
   43.2349   14.0060   -9.8917 C   0  0  0  0  0  0  0  0  0  0  0  0
 33 34  1  0  0  0
 34  1  1  0  0  0
  1  2  1  0  0  0
  2  3  1  0  0  0
  3  4  1  0  0  0
  4  5  1  0  0  0
  5  6  1  0  0  0
  5  7  1  0  0  0
  7 36  1  0  0  0
 36 37  1  0  0  0
  5  8  1  0  0  0
  8  9  1  0  0  0
  9 10  2  0  0  0
 10 11  1  0  0  0
 11 12  2  0  0  0
 12 13  1  0  0  0
 13 14  2  0  0  0
 14 15  1  0  0  0
 15 16  2  0  0  0
 16 17  1  0  0  0
 17 18  1  0  0  0
 18 19  1  0  0  0
 19 20  2  0  0  0
 19 21  1  0  0  0
 21 22  2  0  0  0
 22 23  1  0  0  0
 23 24  2  0  0  0
 24 25  1  0  0  0
 25 26  2  0  0  0
 26 27  1  0  0  0
 27 28  2  0  0  0
 28 29  1  0  0  0
 29 30  1  0  0  0
 30 31  2  0  0  0
  7  1  1  0  0  0
 31  8  1  0  0  0
 29  3  1  0  0  0
 14  9  1  0  0  0
 31 15  1  0  0  0
 21 16  1  0  0  0
 30 22  1  0  0  0
 28 23  1  0  0  0
 34 35  1  0  0  0
 18 32  1  0  0  0
M  END
> <minimizedAffinity>
-9.05141

> <CNNscore>
0.0932731628

> <CNNaffinity>
5.9926137924

> <CNN_VS>
0.5589500666

> <CNNaffinity_variance>
0.3839968443

$$$$
[H]c1c([H])c([H])c2c(c1[H])c1c3c(c4c5c([H])c([H])c([H])c([H])c5n5c4c1n2[C@]1([H])O[C@]5(C([H])([H])[H])[C@@]([H])(OC([H])([H])[H])[C@@]([H])(N([H])C([H])([H])[H])C1([H])[H])C([H])([H])N([H])C3=O


 37 44  0  0  0  0  0  0  0  0999 V2000
   43.0588   14.8831   -4.3786 C   0  0  0  0  0  0  0  0  0  0  0  0
   41.7040   15.2979   -5.0475 C   0  0  0  0  0  0  0  0  0  0  0  0
   41.9704   15.0819   -6.3752 C   0  0  0  0  0  0  0  0  0  0  0  0
   42.2817   13.7313   -6.4440 O   0  0  0  0  0  0  0  0  0  0  0  0
   43.7121   13.6773   -6.5174 C   0  0  0  0  0  0  0  0  0  0  0  0
   43.9317   12.1513   -6.2234 C   0  0  0  0  0  0  0  0  0  0  0  0
   44.1457   14.5004   -5.4138 C   0  0  0  0  0  0  0  0  0  0  0  0
   44.0382   13.9218   -7.8978 N   0  0  0  0  0  0  0  0  0  0  0  0
   45.1217   13.4341   -8.5452 C   0  0  0  0  0  0  0  0  0  0  0  0
   46.2551   12.7360   -8.1483 C   0  0  0  0  0  0  0  0  0  0  0  0
   47.2358   12.3607   -9.0619 C   0  0  0  0  0  0  0  0  0  0  0  0
   47.1134   12.6721  -10.3980 C   0  0  0  0  0  0  0  0  0  0  0  0
   46.0012   13.3649  -10.8256 C   0  0  0  0  0  0  0  0  0  0  0  0
   45.0585   13.7168   -9.9005 C   0  0  0  0  0  0  0  0  0  0  0  0
   43.8990   14.4052  -10.0885 C   0  0  0  0  0  0  0  0  0  0  0  0
   43.2061   14.9521  -11.1771 C   0  0  0  0  0  0  0  0  0  0  0  0
   43.6096   14.9591  -12.5942 C   0  0  0  0  0  0  0  0  0  0  0  0
   42.5625   15.6622  -13.2897 N   0  0  0  0  0  0  0  0  0  0  0  0
   41.5357   16.0508  -12.3522 C   0  0  0  0  0  0  0  0  0  0  0  0
   40.5342   16.6577  -12.7578 O   0  0  0  0  0  0  0  0  0  0  0  0
   41.9831   15.5881  -11.0580 C   0  0  0  0  0  0  0  0  0  0  0  0
   41.3780   15.7154   -9.8148 C   0  0  0  0  0  0  0  0  0  0  0  0
   40.2521   16.2955   -9.3066 C   0  0  0  0  0  0  0  0  0  0  0  0
   39.2082   16.9605   -9.8641 C   0  0  0  0  0  0  0  0  0  0  0  0
   38.1953   17.4316   -9.0089 C   0  0  0  0  0  0  0  0  0  0  0  0
   38.2576   17.2266   -7.6501 C   0  0  0  0  0  0  0  0  0  0  0  0
   39.3311   16.5434   -7.0834 C   0  0  0  0  0  0  0  0  0  0  0  0
   40.3064   16.0938   -7.9398 C   0  0  0  0  0  0  0  0  0  0  0  0
   41.3980   15.4259   -7.6060 N   0  0  0  0  0  0  0  0  0  0  0  0
   42.0693   15.1759   -8.7621 C   0  0  0  0  0  0  0  0  0  0  0  0
   43.3088   14.5232   -8.8915 C   0  0  0  0  0  0  0  0  0  0  0  0
   42.5967   15.8348  -14.3199 H   0  0  0  0  0  0  0  0  0  0  0  0
   42.5562   17.0178   -3.3614 C   0  0  0  0  0  0  0  0  0  0  0  0
   43.5664   16.0678   -3.7149 N   0  0  0  0  0  0  0  0  0  0  0  0
   44.4262   16.4501   -4.1157 H   0  0  0  0  0  0  0  0  0  0  0  0
   45.0727   15.5007   -5.6142 O   0  0  0  0  0  0  0  0  0  0  0  0
   46.3847   15.1739   -5.4264 C   0  0  0  0  0  0  0  0  0  0  0  0
 33 34  1  0  0  0
 34  1  1  0  0  0
  1  2  1  0  0  0
  2  3  1  0  0  0
  3  4  1  0  0  0
  4  5  1  0  0  0
  5  6  1  0  0  0
  5  7  1  0  0  0
  7 36  1  0  0  0
 36 37  1  0  0  0
  5  8  1  0  0  0
  8  9  1  0  0  0
  9 10  2  0  0  0
 10 11  1  0  0  0
 11 12  2  0  0  0
 12 13  1  0  0  0
 13 14  2  0  0  0
 14 15  1  0  0  0
 15 16  2  0  0  0
 16 17  1  0  0  0
 17 18  1  0  0  0
 18 19  1  0  0  0
 19 20  2  0  0  0
 19 21  1  0  0  0
 21 22  2  0  0  0
 22 23  1  0  0  0
 23 24  2  0  0  0
 24 25  1  0  0  0
 25 26  2  0  0  0
 26 27  1  0  0  0
 27 28  2  0  0  0
 28 29  1  0  0  0
 29 30  1  0  0  0
 30 31  2  0  0  0
  7  1  1  0  0  0
 31  8  1  0  0  0
 29  3  1  0  0  0
 14  9  1  0  0  0
 31 15  1  0  0  0
 21 16  1  0  0  0
 30 22  1  0  0  0
 28 23  1  0  0  0
 34 35  1  0  0  0
 18 32  1  0  0  0
M  END
> <minimizedAffinity>
-5.79725

> <CNNscore>
0.0926158279

> <CNNaffinity>
5.1757884026

> <CNN_VS>
0.4793599248

> <CNNaffinity_variance>
0.2142124474

$$$$
[H]c1c([H])c([H])c2c(c1[H])c1c3c(c4c5c([H])c([H])c([H])c([H])c5n5c4c1n2[C@]1([H])O[C@]5(C([H])([H])[H])[C@@]([H])(OC([H])([H])[H])[C@@]([H])(N([H])C([H])([H])[H])C1([H])[H])C([H])([H])N([H])C3=O


 37 44  0  0  0  0  0  0  0  0999 V2000
   39.1522   15.8299  -10.4568 C   0  0  0  0  0  0  0  0  0  0  0  0
   39.8149   15.3500  -11.7929 C   0  0  0  0  0  0  0  0  0  0  0  0
   38.7260   14.9161  -12.5047 C   0  0  0  0  0  0  0  0  0  0  0  0
   37.9182   16.0396  -12.6084 O   0  0  0  0  0  0  0  0  0  0  0  0
   36.8944   15.8604  -11.6215 C   0  0  0  0  0  0  0  0  0  0  0  0
   36.3000   17.3127  -11.5944 C   0  0  0  0  0  0  0  0  0  0  0  0
   37.6272   15.5619  -10.4142 C   0  0  0  0  0  0  0  0  0  0  0  0
   35.9229   14.9871  -12.2259 N   0  0  0  0  0  0  0  0  0  0  0  0
   34.5968   14.9846  -11.9568 C   0  0  0  0  0  0  0  0  0  0  0  0
   33.7968   15.6249  -11.0190 C   0  0  0  0  0  0  0  0  0  0  0  0
   32.4211   15.4188  -10.9737 C   0  0  0  0  0  0  0  0  0  0  0  0
   31.8045   14.5668  -11.8632 C   0  0  0  0  0  0  0  0  0  0  0  0
   32.5691   13.9147  -12.8066 C   0  0  0  0  0  0  0  0  0  0  0  0
   33.9170   14.1415  -12.8215 C   0  0  0  0  0  0  0  0  0  0  0  0
   34.8596   13.6060  -13.6450 C   0  0  0  0  0  0  0  0  0  0  0  0
   34.8746   12.7328  -14.7412 C   0  0  0  0  0  0  0  0  0  0  0  0
   33.7307   12.0431  -15.3633 C   0  0  0  0  0  0  0  0  0  0  0  0
   34.2903   11.2541  -16.4304 N   0  0  0  0  0  0  0  0  0  0  0  0
   35.7172   11.4654  -16.4911 C   0  0  0  0  0  0  0  0  0  0  0  0
   36.3859   10.8840  -17.3574 O   0  0  0  0  0  0  0  0  0  0  0  0
   36.0282   12.3886  -15.4233 C   0  0  0  0  0  0  0  0  0  0  0  0
   37.2545   12.9096  -15.0329 C   0  0  0  0  0  0  0  0  0  0  0  0
   38.5610   12.7743  -15.4036 C   0  0  0  0  0  0  0  0  0  0  0  0
   39.1881   12.0798  -16.3870 C   0  0  0  0  0  0  0  0  0  0  0  0
   40.5887   12.1796  -16.4734 C   0  0  0  0  0  0  0  0  0  0  0  0
   41.3035   12.9555  -15.5905 C   0  0  0  0  0  0  0  0  0  0  0  0
   40.6547   13.6661  -14.5833 C   0  0  0  0  0  0  0  0  0  0  0  0
   39.2873   13.5519  -14.5208 C   0  0  0  0  0  0  0  0  0  0  0  0
   38.4888   14.1432  -13.6480 N   0  0  0  0  0  0  0  0  0  0  0  0
   37.2214   13.7605  -13.9596 C   0  0  0  0  0  0  0  0  0  0  0  0
   36.0436   14.1127  -13.2757 C   0  0  0  0  0  0  0  0  0  0  0  0
   33.7011   10.6396  -17.0366 H   0  0  0  0  0  0  0  0  0  0  0  0
   40.3438   15.7471   -8.3550 C   0  0  0  0  0  0  0  0  0  0  0  0
   39.7123   15.0059   -9.4037 N   0  0  0  0  0  0  0  0  0  0  0  0
   40.2061   14.1708   -9.7278 H   0  0  0  0  0  0  0  0  0  0  0  0
   37.2961   14.4609   -9.6538 O   0  0  0  0  0  0  0  0  0  0  0  0
   36.4148   14.6590   -8.6305 C   0  0  0  0  0  0  0  0  0  0  0  0
 33 34  1  0  0  0
 34  1  1  0  0  0
  1  2  1  0  0  0
  2  3  1  0  0  0
  3  4  1  0  0  0
  4  5  1  0  0  0
  5  6  1  0  0  0
  5  7  1  0  0  0
  7 36  1  0  0  0
 36 37  1  0  0  0
  5  8  1  0  0  0
  8  9  1  0  0  0
  9 10  2  0  0  0
 10 11  1  0  0  0
 11 12  2  0  0  0
 12 13  1  0  0  0
 13 14  2  0  0  0
 14 15  1  0  0  0
 15 16  2  0  0  0
 16 17  1  0  0  0
 17 18  1  0  0  0
 18 19  1  0  0  0
 19 20  2  0  0  0
 19 21  1  0  0  0
 21 22  2  0  0  0
 22 23  1  0  0  0
 23 24  2  0  0  0
 24 25  1  0  0  0
 25 26  2  0  0  0
 26 27  1  0  0  0
 27 28  2  0  0  0
 28 29  1  0  0  0
 29 30  1  0  0  0
 30 31  2  0  0  0
  7  1  1  0  0  0
 31  8  1  0  0  0
 29  3  1  0  0  0
 14  9  1  0  0  0
 31 15  1  0  0  0
 21 16  1  0  0  0
 30 22  1  0  0  0
 28 23  1  0  0  0
 34 35  1  0  0  0
 18 32  1  0  0  0
M  END
> <minimizedAffinity>
-10.38368

> <CNNscore>
0.0875671059

> <CNNaffinity>
6.0879526138

> <CNN_VS>
0.5331044197

> <CNNaffinity_variance>
0.4226034582

$$$$
[H]c1c([H])c([H])c2c(c1[H])c1c3c(c4c5c([H])c([H])c([H])c([H])c5n5c4c1n2[C@]1([H])O[C@]5(C([H])([H])[H])[C@@]([H])(OC([H])([H])[H])[C@@]([H])(N([H])C([H])([H])[H])C1([H])[H])C([H])([H])N([H])C3=O


 37 44  0  0  0  0  0  0  0  0999 V2000
   35.4241   18.5454   -5.1182 C   0  0  0  0  0  0  0  0  0  0  0  0
   33.9544   18.0151   -5.0011 C   0  0  0  0  0  0  0  0  0  0  0  0
   33.8083   17.3338   -6.1823 C   0  0  0  0  0  0  0  0  0  0  0  0
   34.7989   16.3630   -6.1392 O   0  0  0  0  0  0  0  0  0  0  0  0
   35.8528   16.8624   -6.9725 C   0  0  0  0  0  0  0  0  0  0  0  0
   37.0059   15.8852   -6.5496 C   0  0  0  0  0  0  0  0  0  0  0  0
   36.0793   18.1995   -6.4784 C   0  0  0  0  0  0  0  0  0  0  0  0
   35.4638   16.5434   -8.3211 N   0  0  0  0  0  0  0  0  0  0  0  0
   36.3142   16.2940   -9.3437 C   0  0  0  0  0  0  0  0  0  0  0  0
   37.6910   16.3852   -9.5037 C   0  0  0  0  0  0  0  0  0  0  0  0
   38.3069   16.0590  -10.7084 C   0  0  0  0  0  0  0  0  0  0  0  0
   37.5658   15.6329  -11.7884 C   0  0  0  0  0  0  0  0  0  0  0  0
   36.1969   15.5317  -11.6640 C   0  0  0  0  0  0  0  0  0  0  0  0
   35.6265   15.8602  -10.4660 C   0  0  0  0  0  0  0  0  0  0  0  0
   34.3097   15.8481  -10.1202 C   0  0  0  0  0  0  0  0  0  0  0  0
   33.1004   15.4931  -10.7334 C   0  0  0  0  0  0  0  0  0  0  0  0
   32.8936   15.0011  -12.1068 C   0  0  0  0  0  0  0  0  0  0  0  0
   31.4721   14.8096  -12.2376 N   0  0  0  0  0  0  0  0  0  0  0  0
   30.8231   15.1388  -10.9908 C   0  0  0  0  0  0  0  0  0  0  0  0
   29.5930   15.0249  -10.8921 O   0  0  0  0  0  0  0  0  0  0  0  0
   31.8757   15.5571  -10.0929 C   0  0  0  0  0  0  0  0  0  0  0  0
   31.7954   15.9927   -8.7770 C   0  0  0  0  0  0  0  0  0  0  0  0
   30.8112   16.2330   -7.8626 C   0  0  0  0  0  0  0  0  0  0  0  0
   29.4628   16.0770   -7.8755 C   0  0  0  0  0  0  0  0  0  0  0  0
   28.7469   16.4385   -6.7197 C   0  0  0  0  0  0  0  0  0  0  0  0
   29.3899   16.9349   -5.6095 C   0  0  0  0  0  0  0  0  0  0  0  0
   30.7739   17.0928   -5.6017 C   0  0  0  0  0  0  0  0  0  0  0  0
   31.4492   16.7324   -6.7422 C   0  0  0  0  0  0  0  0  0  0  0  0
   32.7556   16.8012   -6.9365 N   0  0  0  0  0  0  0  0  0  0  0  0
   32.9864   16.3362   -8.1935 C   0  0  0  0  0  0  0  0  0  0  0  0
   34.2295   16.2608   -8.8481 C   0  0  0  0  0  0  0  0  0  0  0  0
   31.0343   14.4796  -13.1274 H   0  0  0  0  0  0  0  0  0  0  0  0
   34.2894   20.5028   -4.2667 C   0  0  0  0  0  0  0  0  0  0  0  0
   35.3395   19.9924   -5.0941 N   0  0  0  0  0  0  0  0  0  0  0  0
   35.4595   20.4454   -6.0032 H   0  0  0  0  0  0  0  0  0  0  0  0
   36.1056   19.2677   -7.3492 O   0  0  0  0  0  0  0  0  0  0  0  0
   37.3249   19.6333   -7.8421 C   0  0  0  0  0  0  0  0  0  0  0  0
 33 34  1  0  0  0
 34  1  1  0  0  0
  1  2  1  0  0  0
  2  3  1  0  0  0
  3  4  1  0  0  0
  4  5  1  0  0  0
  5  6  1  0  0  0
  5  7  1  0  0  0
  7 36  1  0  0  0
 36 37  1  0  0  0
  5  8  1  0  0  0
  8  9  1  0  0  0
  9 10  2  0  0  0
 10 11  1  0  0  0
 11 12  2  0  0  0
 12 13  1  0  0  0
 13 14  2  0  0  0
 14 15  1  0  0  0
 15 16  2  0  0  0
 16 17  1  0  0  0
 17 18  1  0  0  0
 18 19  1  0  0  0
 19 20  2  0  0  0
 19 21  1  0  0  0
 21 22  2  0  0  0
 22 23  1  0  0  0
 23 24  2  0  0  0
 24 25  1  0  0  0
 25 26  2  0  0  0
 26 27  1  0  0  0
 27 28  2  0  0  0
 28 29  1  0  0  0
 29 30  1  0  0  0
 30 31  2  0  0  0
  7  1  1  0  0  0
 31  8  1  0  0  0
 29  3  1  0  0  0
 14  9  1  0  0  0
 31 15  1  0  0  0
 21 16  1  0  0  0
 30 22  1  0  0  0
 28 23  1  0  0  0
 34 35  1  0  0  0
 18 32  1  0  0  0
M  END
> <minimizedAffinity>
-8.06042

> <CNNscore>
0.0773155615

> <CNNaffinity>
5.3249530792

> <CNN_VS>
0.4117017388

> <CNNaffinity_variance>
0.7641055584

$$$$
[H]c1c([H])c([H])c2c(c1[H])c1c3c(c4c5c([H])c([H])c([H])c([H])c5n5c4c1n2[C@]1([H])O[C@]5(C([H])([H])[H])[C@@]([H])(OC([H])([H])[H])[C@@]([H])(N([H])C([H])([H])[H])C1([H])[H])C([H])([H])N([H])C3=O


 37 44  0  0  0  0  0  0  0  0999 V2000
   44.4670   10.8315   -4.3826 C   0  0  0  0  0  0  0  0  0  0  0  0
   45.3094   10.6186   -5.6864 C   0  0  0  0  0  0  0  0  0  0  0  0
   44.8596   11.6425   -6.4800 C   0  0  0  0  0  0  0  0  0  0  0  0
   45.1575   12.7888   -5.7568 O   0  0  0  0  0  0  0  0  0  0  0  0
   43.9188   13.1885   -5.1565 C   0  0  0  0  0  0  0  0  0  0  0  0
   44.4576   14.2308   -4.1142 C   0  0  0  0  0  0  0  0  0  0  0  0
   43.4440   11.9873   -4.5123 C   0  0  0  0  0  0  0  0  0  0  0  0
   43.2052   13.9039   -6.1816 N   0  0  0  0  0  0  0  0  0  0  0  0
   42.3216   14.9061   -5.9672 C   0  0  0  0  0  0  0  0  0  0  0  0
   41.7307   15.4517   -4.8347 C   0  0  0  0  0  0  0  0  0  0  0  0
   40.8254   16.5053   -4.9218 C   0  0  0  0  0  0  0  0  0  0  0  0
   40.4835   17.0441   -6.1425 C   0  0  0  0  0  0  0  0  0  0  0  0
   41.0511   16.5258   -7.2866 C   0  0  0  0  0  0  0  0  0  0  0  0
   41.9362   15.4915   -7.1628 C   0  0  0  0  0  0  0  0  0  0  0  0
   42.6030   14.8218   -8.1429 C   0  0  0  0  0  0  0  0  0  0  0  0
   42.7136   14.9056   -9.5375 C   0  0  0  0  0  0  0  0  0  0  0  0
   42.0269   15.8425  -10.4441 C   0  0  0  0  0  0  0  0  0  0  0  0
   42.4704   15.4918  -11.7688 N   0  0  0  0  0  0  0  0  0  0  0  0
   43.4157   14.4034  -11.6900 C   0  0  0  0  0  0  0  0  0  0  0  0
   43.9292   13.9620  -12.7279 O   0  0  0  0  0  0  0  0  0  0  0  0
   43.5304   14.0773  -10.2865 C   0  0  0  0  0  0  0  0  0  0  0  0
   44.2936   13.0980   -9.6650 C   0  0  0  0  0  0  0  0  0  0  0  0
   45.1414   12.0994  -10.0479 C   0  0  0  0  0  0  0  0  0  0  0  0
   45.6310   11.6956  -11.2478 C   0  0  0  0  0  0  0  0  0  0  0  0
   46.5092   10.5966  -11.2647 C   0  0  0  0  0  0  0  0  0  0  0  0
   46.8626    9.9492  -10.1035 C   0  0  0  0  0  0  0  0  0  0  0  0
   46.3572   10.3679   -8.8749 C   0  0  0  0  0  0  0  0  0  0  0  0
   45.5023   11.4430   -8.8858 C   0  0  0  0  0  0  0  0  0  0  0  0
   44.9199   11.9942   -7.8341 N   0  0  0  0  0  0  0  0  0  0  0  0
   44.1727   13.0297   -8.3020 C   0  0  0  0  0  0  0  0  0  0  0  0
   43.3463   13.8807   -7.5456 C   0  0  0  0  0  0  0  0  0  0  0  0
   42.1242   15.9873  -12.6214 H   0  0  0  0  0  0  0  0  0  0  0  0
   44.4210    8.4778   -3.8330 C   0  0  0  0  0  0  0  0  0  0  0  0
   43.6678    9.6340   -4.2123 N   0  0  0  0  0  0  0  0  0  0  0  0
   42.9493    9.4914   -4.9261 H   0  0  0  0  0  0  0  0  0  0  0  0
   42.1570   11.5439   -4.7292 O   0  0  0  0  0  0  0  0  0  0  0  0
   41.7879   11.3283   -6.0256 C   0  0  0  0  0  0  0  0  0  0  0  0
 33 34  1  0  0  0
 34  1  1  0  0  0
  1  2  1  0  0  0
  2  3  1  0  0  0
  3  4  1  0  0  0
  4  5  1  0  0  0
  5  6  1  0  0  0
  5  7  1  0  0  0
  7 36  1  0  0  0
 36 37  1  0  0  0
  5  8  1  0  0  0
  8  9  1  0  0  0
  9 10  2  0  0  0
 10 11  1  0  0  0
 11 12  2  0  0  0
 12 13  1  0  0  0
 13 14  2  0  0  0
 14 15  1  0  0  0
 15 16  2  0  0  0
 16 17  1  0  0  0
 17 18  1  0  0  0
 18 19  1  0  0  0
 19 20  2  0  0  0
 19 21  1  0  0  0
 21 22  2  0  0  0
 22 23  1  0  0  0
 23 24  2  0  0  0
 24 25  1  0  0  0
 25 26  2  0  0  0
 26 27  1  0  0  0
 27 28  2  0  0  0
 28 29  1  0  0  0
 29 30  1  0  0  0
 30 31  2  0  0  0
  7  1  1  0  0  0
 31  8  1  0  0  0
 29  3  1  0  0  0
 14  9  1  0  0  0
 31 15  1  0  0  0
 21 16  1  0  0  0
 30 22  1  0  0  0
 28 23  1  0  0  0
 34 35  1  0  0  0
 18 32  1  0  0  0
M  END
> <minimizedAffinity>
-6.34554

> <CNNscore>
0.0770667419

> <CNNaffinity>
4.7676668167

> <CNN_VS>
0.3674285412

> <CNNaffinity_variance>
0.5808447599

$$$$
[H]c1nc(Oc2c([H])c([H])c(N([H])C(=O)N([H])c3c([H])c([H])c(C([H])([H])N4C([H])([H])C([H])([H])N(C([H])([H])C([H])([H])[H])C([H])([H])C4([H])[H])c(C(F)(F)F)c3[H])c([H])c2[H])c([H])c(N([H])C([H])([H])[H])n1


 41 44  0  0  0  0  0  0  0  0999 V2000
   33.1869   15.0875  -12.5766 N   0  0  0  0  0  0  0  0  0  0  0  0
   33.9591   14.0782  -13.2069 C   0  0  0  0  0  0  0  0  0  0  0  0
   34.8617   13.4460  -12.6226 O   0  0  0  0  0  0  0  0  0  0  0  0
   33.6915   13.7751  -14.5651 N   0  0  0  0  0  0  0  0  0  0  0  0
   32.4457   15.5683  -13.1554 H   0  0  0  0  0  0  0  0  0  0  0  0
   32.9155   14.3188  -15.0422 H   0  0  0  0  0  0  0  0  0  0  0  0
   33.3804   16.2340   -8.5295 C   0  0  0  0  0  0  0  0  0  0  0  0
   34.5376   16.1832   -9.2453 C   0  0  0  0  0  0  0  0  0  0  0  0
   34.5076   15.7951  -10.5955 C   0  0  0  0  0  0  0  0  0  0  0  0
   33.3600   15.4605  -11.2441 C   0  0  0  0  0  0  0  0  0  0  0  0
   32.1957   15.5275  -10.4683 C   0  0  0  0  0  0  0  0  0  0  0  0
   32.1696   15.8984   -9.1503 C   0  0  0  0  0  0  0  0  0  0  0  0
   30.8922   15.9375   -8.4089 C   0  0  0  0  0  0  0  0  0  0  0  0
   29.8691   15.5524   -9.2908 F   0  0  0  0  0  0  0  0  0  0  0  0
   30.5263   17.1760   -7.9656 F   0  0  0  0  0  0  0  0  0  0  0  0
   30.8197   14.9560   -7.4109 F   0  0  0  0  0  0  0  0  0  0  0  0
   33.3931   16.6613   -7.1361 C   0  0  0  0  0  0  0  0  0  0  0  0
   34.6238   16.2810   -3.4329 N   0  0  0  0  0  0  0  0  0  0  0  0
   33.3200   15.8540   -3.8274 C   0  0  0  0  0  0  0  0  0  0  0  0
   33.2505   15.2139   -5.1924 C   0  0  0  0  0  0  0  0  0  0  0  0
   34.0465   15.8438   -6.1858 N   0  0  0  0  0  0  0  0  0  0  0  0
   35.2456   16.4801   -5.7232 C   0  0  0  0  0  0  0  0  0  0  0  0
   35.6474   15.9200   -4.3762 C   0  0  0  0  0  0  0  0  0  0  0  0
   33.2823   18.1413   -2.5472 C   0  0  0  0  0  0  0  0  0  0  0  0
   34.5761   17.7092   -3.1869 C   0  0  0  0  0  0  0  0  0  0  0  0
   34.3958   12.8083  -15.2958 C   0  0  0  0  0  0  0  0  0  0  0  0
   35.7459   13.0850  -15.5378 C   0  0  0  0  0  0  0  0  0  0  0  0
   36.5043   12.1743  -16.2200 C   0  0  0  0  0  0  0  0  0  0  0  0
   36.0197   10.9732  -16.6977 C   0  0  0  0  0  0  0  0  0  0  0  0
   34.6975   10.7112  -16.4555 C   0  0  0  0  0  0  0  0  0  0  0  0
   33.9027   11.6275  -15.7596 C   0  0  0  0  0  0  0  0  0  0  0  0
   36.8350   10.0630  -17.3962 O   0  0  0  0  0  0  0  0  0  0  0  0
   37.9382   10.6098  -18.0560 C   0  0  0  0  0  0  0  0  0  0  0  0
   39.0319   11.0782  -17.3599 C   0  0  0  0  0  0  0  0  0  0  0  0
   40.1077   11.6149  -18.0685 C   0  0  0  0  0  0  0  0  0  0  0  0
   40.0166   11.6455  -19.4047 N   0  0  0  0  0  0  0  0  0  0  0  0
   38.9555   11.1917  -20.0906 C   0  0  0  0  0  0  0  0  0  0  0  0
   37.9279   10.6782  -19.3980 N   0  0  0  0  0  0  0  0  0  0  0  0
   41.2531   12.1088  -17.4026 N   0  0  0  0  0  0  0  0  0  0  0  0
   41.0887   12.8241  -16.1611 C   0  0  0  0  0  0  0  0  0  0  0  0
   42.2042   11.9617  -17.7972 H   0  0  0  0  0  0  0  0  0  0  0  0
 24 25  1  0  0  0
 25 18  1  0  0  0
 18 19  1  0  0  0
 19 20  1  0  0  0
 20 21  1  0  0  0
 21 17  1  0  0  0
 17  7  1  0  0  0
  7  8  2  0  0  0
  8  9  1  0  0  0
  9 10  2  0  0  0
 10  1  1  0  0  0
  1  2  1  0  0  0
  2  3  2  0  0  0
  2  4  1  0  0  0
  4 26  1  0  0  0
 26 27  2  0  0  0
 27 28  1  0  0  0
 28 29  2  0  0  0
 29 32  1  0  0  0
 32 33  1  0  0  0
 33 34  2  0  0  0
 34 35  1  0  0  0
 35 39  1  0  0  0
 39 40  1  0  0  0
 35 36  2  0  0  0
 36 37  1  0  0  0
 37 38  2  0  0  0
 29 30  1  0  0  0
 30 31  2  0  0  0
 10 11  1  0  0  0
 11 12  2  0  0  0
 12 13  1  0  0  0
 13 14  1  0  0  0
 13 15  1  0  0  0
 13 16  1  0  0  0
 21 22  1  0  0  0
 22 23  1  0  0  0
 23 18  1  0  0  0
 12  7  1  0  0  0
 31 26  1  0  0  0
 38 33  1  0  0  0
  1  5  1  0  0  0
  4  6  1  0  0  0
 39 41  1  0  0  0
M  END
> <minimizedAffinity>
-9.03026

> <CNNscore>
0.6296988726

> <CNNaffinity>
6.8364310265

> <CNN_VS>
4.3048930168

> <CNNaffinity_variance>
0.2448466271

$$$$
[H]c1nc(Oc2c([H])c([H])c(N([H])C(=O)N([H])c3c([H])c([H])c(C([H])([H])N4C([H])([H])C([H])([H])N(C([H])([H])C([H])([H])[H])C([H])([H])C4([H])[H])c(C(F)(F)F)c3[H])c([H])c2[H])c([H])c(N([H])C([H])([H])[H])n1


 41 44  0  0  0  0  0  0  0  0999 V2000
   33.1207   15.1426  -12.6364 N   0  0  0  0  0  0  0  0  0  0  0  0
   33.8923   14.1153  -13.2378 C   0  0  0  0  0  0  0  0  0  0  0  0
   34.7490   13.4544  -12.6173 O   0  0  0  0  0  0  0  0  0  0  0  0
   33.6788   13.8276  -14.6089 N   0  0  0  0  0  0  0  0  0  0  0  0
   32.4207   15.6476  -13.2451 H   0  0  0  0  0  0  0  0  0  0  0  0
   32.9412   14.3959  -15.1171 H   0  0  0  0  0  0  0  0  0  0  0  0
   33.8178   16.2220   -8.6265 C   0  0  0  0  0  0  0  0  0  0  0  0
   32.5467   15.9112   -9.0030 C   0  0  0  0  0  0  0  0  0  0  0  0
   32.2798   15.5563  -10.3361 C   0  0  0  0  0  0  0  0  0  0  0  0
   33.2429   15.5029  -11.2949 C   0  0  0  0  0  0  0  0  0  0  0  0
   34.5340   15.8303  -10.8614 C   0  0  0  0  0  0  0  0  0  0  0  0
   34.8478   16.1831   -9.5760 C   0  0  0  0  0  0  0  0  0  0  0  0
   36.2400   16.5159   -9.2098 C   0  0  0  0  0  0  0  0  0  0  0  0
   37.0145   16.4815  -10.3810 F   0  0  0  0  0  0  0  0  0  0  0  0
   36.8380   15.6239   -8.3666 F   0  0  0  0  0  0  0  0  0  0  0  0
   36.3821   17.8455   -8.7895 F   0  0  0  0  0  0  0  0  0  0  0  0
   34.1138   16.5652   -7.2412 C   0  0  0  0  0  0  0  0  0  0  0  0
   35.1736   14.8018   -3.9034 N   0  0  0  0  0  0  0  0  0  0  0  0
   34.4588   16.0374   -3.8935 C   0  0  0  0  0  0  0  0  0  0  0  0
   33.3957   16.1613   -4.9577 C   0  0  0  0  0  0  0  0  0  0  0  0
   33.7631   15.6437   -6.2283 N   0  0  0  0  0  0  0  0  0  0  0  0
   34.6808   14.5417   -6.2189 C   0  0  0  0  0  0  0  0  0  0  0  0
   34.6668   13.8623   -4.8669 C   0  0  0  0  0  0  0  0  0  0  0  0
   37.4729   14.2637   -3.2187 C   0  0  0  0  0  0  0  0  0  0  0  0
   36.5796   15.0951   -4.1023 C   0  0  0  0  0  0  0  0  0  0  0  0
   34.3884   12.8453  -15.3134 C   0  0  0  0  0  0  0  0  0  0  0  0
   35.7366   13.1235  -15.5643 C   0  0  0  0  0  0  0  0  0  0  0  0
   36.4999   12.1989  -16.2219 C   0  0  0  0  0  0  0  0  0  0  0  0
   36.0222   10.9822  -16.6657 C   0  0  0  0  0  0  0  0  0  0  0  0
   34.7019   10.7190  -16.4150 C   0  0  0  0  0  0  0  0  0  0  0  0
   33.9021   11.6492  -15.7439 C   0  0  0  0  0  0  0  0  0  0  0  0
   36.8425   10.0580  -17.3397 O   0  0  0  0  0  0  0  0  0  0  0  0
   37.9343   10.5944  -18.0264 C   0  0  0  0  0  0  0  0  0  0  0  0
   39.0344   11.0844  -17.3558 C   0  0  0  0  0  0  0  0  0  0  0  0
   40.0983   11.6095  -18.0908 C   0  0  0  0  0  0  0  0  0  0  0  0
   39.9898   11.6082  -19.4260 N   0  0  0  0  0  0  0  0  0  0  0  0
   38.9223   11.1332  -20.0872 C   0  0  0  0  0  0  0  0  0  0  0  0
   37.9064   10.6312  -19.3694 N   0  0  0  0  0  0  0  0  0  0  0  0
   41.2495   12.1245  -17.4515 N   0  0  0  0  0  0  0  0  0  0  0  0
   41.1000   12.8445  -16.2109 C   0  0  0  0  0  0  0  0  0  0  0  0
   42.1944   11.9894  -17.8650 H   0  0  0  0  0  0  0  0  0  0  0  0
 24 25  1  0  0  0
 25 18  1  0  0  0
 18 19  1  0  0  0
 19 20  1  0  0  0
 20 21  1  0  0  0
 21 17  1  0  0  0
 17  7  1  0  0  0
  7  8  2  0  0  0
  8  9  1  0  0  0
  9 10  2  0  0  0
 10  1  1  0  0  0
  1  2  1  0  0  0
  2  3  2  0  0  0
  2  4  1  0  0  0
  4 26  1  0  0  0
 26 27  2  0  0  0
 27 28  1  0  0  0
 28 29  2  0  0  0
 29 32  1  0  0  0
 32 33  1  0  0  0
 33 34  2  0  0  0
 34 35  1  0  0  0
 35 39  1  0  0  0
 39 40  1  0  0  0
 35 36  2  0  0  0
 36 37  1  0  0  0
 37 38  2  0  0  0
 29 30  1  0  0  0
 30 31  2  0  0  0
 10 11  1  0  0  0
 11 12  2  0  0  0
 12 13  1  0  0  0
 13 14  1  0  0  0
 13 15  1  0  0  0
 13 16  1  0  0  0
 21 22  1  0  0  0
 22 23  1  0  0  0
 23 18  1  0  0  0
 12  7  1  0  0  0
 31 26  1  0  0  0
 38 33  1  0  0  0
  1  5  1  0  0  0
  4  6  1  0  0  0
 39 41  1  0  0  0
M  END
> <minimizedAffinity>
-9.01409

> <CNNscore>
0.5826467872

> <CNNaffinity>
6.9367208481

> <CNN_VS>
4.0416579247

> <CNNaffinity_variance>
0.2513284087

$$$$
[H]c1nc(Oc2c([H])c([H])c(N([H])C(=O)N([H])c3c([H])c([H])c(C([H])([H])N4C([H])([H])C([H])([H])N(C([H])([H])C([H])([H])[H])C([H])([H])C4([H])[H])c(C(F)(F)F)c3[H])c([H])c2[H])c([H])c(N([H])C([H])([H])[H])n1


 41 44  0  0  0  0  0  0  0  0999 V2000
   34.4474   15.6327  -11.6165 N   0  0  0  0  0  0  0  0  0  0  0  0
   35.1245   14.6257  -12.3514 C   0  0  0  0  0  0  0  0  0  0  0  0
   36.0428   13.9321  -11.8705 O   0  0  0  0  0  0  0  0  0  0  0  0
   34.7383   14.3984  -13.6958 N   0  0  0  0  0  0  0  0  0  0  0  0
   33.6839   16.1687  -12.1116 H   0  0  0  0  0  0  0  0  0  0  0  0
   33.9507   14.9938  -14.0840 H   0  0  0  0  0  0  0  0  0  0  0  0
   35.0276   16.4404   -7.5248 C   0  0  0  0  0  0  0  0  0  0  0  0
   35.9656   16.8749   -8.4112 C   0  0  0  0  0  0  0  0  0  0  0  0
   35.8057   16.6129   -9.7824 C   0  0  0  0  0  0  0  0  0  0  0  0
   34.7404   15.9345  -10.2870 C   0  0  0  0  0  0  0  0  0  0  0  0
   33.8022   15.5076   -9.3385 C   0  0  0  0  0  0  0  0  0  0  0  0
   33.9102   15.7357   -7.9926 C   0  0  0  0  0  0  0  0  0  0  0  0
   32.8711   15.2443   -7.0643 C   0  0  0  0  0  0  0  0  0  0  0  0
   32.2588   16.3607   -6.4715 F   0  0  0  0  0  0  0  0  0  0  0  0
   33.3428   14.5050   -6.0178 F   0  0  0  0  0  0  0  0  0  0  0  0
   31.8026   14.6288   -7.7308 F   0  0  0  0  0  0  0  0  0  0  0  0
   35.1667   16.7290   -6.1029 C   0  0  0  0  0  0  0  0  0  0  0  0
   36.6699   15.1370   -2.8503 N   0  0  0  0  0  0  0  0  0  0  0  0
   36.2258   14.3234   -3.9359 C   0  0  0  0  0  0  0  0  0  0  0  0
   36.5238   14.8804   -5.3066 C   0  0  0  0  0  0  0  0  0  0  0  0
   36.3291   16.2814   -5.4344 N   0  0  0  0  0  0  0  0  0  0  0  0
   36.5528   17.0598   -4.2508 C   0  0  0  0  0  0  0  0  0  0  0  0
   37.4166   16.2901   -3.2755 C   0  0  0  0  0  0  0  0  0  0  0  0
   34.2159   15.0985   -2.7044 C   0  0  0  0  0  0  0  0  0  0  0  0
   35.5145   15.4901   -2.0485 C   0  0  0  0  0  0  0  0  0  0  0  0
   35.3415   13.4414  -14.5232 C   0  0  0  0  0  0  0  0  0  0  0  0
   34.4936   12.4564  -15.0417 C   0  0  0  0  0  0  0  0  0  0  0  0
   35.0060   11.5054  -15.8802 C   0  0  0  0  0  0  0  0  0  0  0  0
   36.3321   11.4479  -16.2595 C   0  0  0  0  0  0  0  0  0  0  0  0
   37.1538   12.4164  -15.7473 C   0  0  0  0  0  0  0  0  0  0  0  0
   36.6520   13.3992  -14.8884 C   0  0  0  0  0  0  0  0  0  0  0  0
   36.8192   10.4509  -17.1255 O   0  0  0  0  0  0  0  0  0  0  0  0
   37.9430   10.7917  -17.8819 C   0  0  0  0  0  0  0  0  0  0  0  0
   39.0932   11.2637  -17.2868 C   0  0  0  0  0  0  0  0  0  0  0  0
   40.1875   11.5895  -18.0894 C   0  0  0  0  0  0  0  0  0  0  0  0
   40.0574   11.4230  -19.4123 N   0  0  0  0  0  0  0  0  0  0  0  0
   38.9412   10.9641  -20.0002 C   0  0  0  0  0  0  0  0  0  0  0  0
   37.8964   10.6545  -19.2179 N   0  0  0  0  0  0  0  0  0  0  0  0
   41.3904   12.0774  -17.5289 N   0  0  0  0  0  0  0  0  0  0  0  0
   41.3466   12.7587  -16.2585 C   0  0  0  0  0  0  0  0  0  0  0  0
   42.2980   11.9502  -18.0209 H   0  0  0  0  0  0  0  0  0  0  0  0
 24 25  1  0  0  0
 25 18  1  0  0  0
 18 19  1  0  0  0
 19 20  1  0  0  0
 20 21  1  0  0  0
 21 17  1  0  0  0
 17  7  1  0  0  0
  7  8  2  0  0  0
  8  9  1  0  0  0
  9 10  2  0  0  0
 10  1  1  0  0  0
  1  2  1  0  0  0
  2  3  2  0  0  0
  2  4  1  0  0  0
  4 26  1  0  0  0
 26 27  2  0  0  0
 27 28  1  0  0  0
 28 29  2  0  0  0
 29 32  1  0  0  0
 32 33  1  0  0  0
 33 34  2  0  0  0
 34 35  1  0  0  0
 35 39  1  0  0  0
 39 40  1  0  0  0
 35 36  2  0  0  0
 36 37  1  0  0  0
 37 38  2  0  0  0
 29 30  1  0  0  0
 30 31  2  0  0  0
 10 11  1  0  0  0
 11 12  2  0  0  0
 12 13  1  0  0  0
 13 14  1  0  0  0
 13 15  1  0  0  0
 13 16  1  0  0  0
 21 22  1  0  0  0
 22 23  1  0  0  0
 23 18  1  0  0  0
 12  7  1  0  0  0
 31 26  1  0  0  0
 38 33  1  0  0  0
  1  5  1  0  0  0
  4  6  1  0  0  0
 39 41  1  0  0  0
M  END
> <minimizedAffinity>
-8.59852

> <CNNscore>
0.4619879723

> <CNNaffinity>
6.6145200729

> <CNN_VS>
3.0558288097

> <CNNaffinity_variance>
0.3325930536

$$$$
[H]c1nc(Oc2c([H])c([H])c(N([H])C(=O)N([H])c3c([H])c([H])c(C([H])([H])N4C([H])([H])C([H])([H])N(C([H])([H])C([H])([H])[H])C([H])([H])C4([H])[H])c(C(F)(F)F)c3[H])c([H])c2[H])c([H])c(N([H])C([H])([H])[H])n1


 41 44  0  0  0  0  0  0  0  0999 V2000
   43.9771   13.4619  -15.8097 N   0  0  0  0  0  0  0  0  0  0  0  0
   42.6008   13.1226  -15.7536 C   0  0  0  0  0  0  0  0  0  0  0  0
   41.8890   13.3264  -14.7498 O   0  0  0  0  0  0  0  0  0  0  0  0
   42.0079   12.5235  -16.8928 N   0  0  0  0  0  0  0  0  0  0  0  0
   44.4967   13.2482  -16.7040 H   0  0  0  0  0  0  0  0  0  0  0  0
   42.6282   12.3649  -17.7386 H   0  0  0  0  0  0  0  0  0  0  0  0
   45.9402   15.0182  -12.4252 C   0  0  0  0  0  0  0  0  0  0  0  0
   45.8428   15.8005  -13.5354 C   0  0  0  0  0  0  0  0  0  0  0  0
   45.2019   15.3065  -14.6843 C   0  0  0  0  0  0  0  0  0  0  0  0
   44.6591   14.0614  -14.7513 C   0  0  0  0  0  0  0  0  0  0  0  0
   44.7832   13.2936  -13.5864 C   0  0  0  0  0  0  0  0  0  0  0  0
   45.3978   13.7261  -12.4416 C   0  0  0  0  0  0  0  0  0  0  0  0
   45.4845   12.8439  -11.2595 C   0  0  0  0  0  0  0  0  0  0  0  0
   44.5798   11.7854  -11.4434 F   0  0  0  0  0  0  0  0  0  0  0  0
   45.1097   13.4264  -10.0829 F   0  0  0  0  0  0  0  0  0  0  0  0
   46.7163   12.1805  -11.1732 F   0  0  0  0  0  0  0  0  0  0  0  0
   46.5779   15.5275  -11.2175 C   0  0  0  0  0  0  0  0  0  0  0  0
   49.7753   16.4164  -13.3053 N   0  0  0  0  0  0  0  0  0  0  0  0
   49.0272   17.4274  -12.6301 C   0  0  0  0  0  0  0  0  0  0  0  0
   48.4908   17.0208  -11.2792 C   0  0  0  0  0  0  0  0  0  0  0  0
   47.9813   15.6966  -11.2157 N   0  0  0  0  0  0  0  0  0  0  0  0
   48.5985   14.7409  -12.0890 C   0  0  0  0  0  0  0  0  0  0  0  0
   49.9654   15.2300  -12.5153 C   0  0  0  0  0  0  0  0  0  0  0  0
   48.6739   17.3955  -15.2733 C   0  0  0  0  0  0  0  0  0  0  0  0
   49.1226   16.1407  -14.5704 C   0  0  0  0  0  0  0  0  0  0  0  0
   40.6627   12.1341  -16.9508 C   0  0  0  0  0  0  0  0  0  0  0  0
   40.2636   11.4780  -18.1206 C   0  0  0  0  0  0  0  0  0  0  0  0
   38.9724   11.0431  -18.2371 C   0  0  0  0  0  0  0  0  0  0  0  0
   38.0130   11.2100  -17.2587 C   0  0  0  0  0  0  0  0  0  0  0  0
   38.4132   11.8527  -16.1176 C   0  0  0  0  0  0  0  0  0  0  0  0
   39.7286   12.3058  -15.9759 C   0  0  0  0  0  0  0  0  0  0  0  0
   36.6935   10.7469  -17.4191 O   0  0  0  0  0  0  0  0  0  0  0  0
   35.7361   11.3210  -16.5794 C   0  0  0  0  0  0  0  0  0  0  0  0
   35.9909   12.4885  -15.8923 C   0  0  0  0  0  0  0  0  0  0  0  0
   34.9991   13.0195  -15.0664 C   0  0  0  0  0  0  0  0  0  0  0  0
   33.8382   12.3559  -14.9861 N   0  0  0  0  0  0  0  0  0  0  0  0
   33.5816   11.2185  -15.6516 C   0  0  0  0  0  0  0  0  0  0  0  0
   34.5430   10.7183  -16.4421 N   0  0  0  0  0  0  0  0  0  0  0  0
   35.2097   14.2143  -14.3402 N   0  0  0  0  0  0  0  0  0  0  0  0
   36.0461   14.1830  -13.1656 C   0  0  0  0  0  0  0  0  0  0  0  0
   34.7704   15.1071  -14.6434 H   0  0  0  0  0  0  0  0  0  0  0  0
 24 25  1  0  0  0
 25 18  1  0  0  0
 18 19  1  0  0  0
 19 20  1  0  0  0
 20 21  1  0  0  0
 21 17  1  0  0  0
 17  7  1  0  0  0
  7  8  2  0  0  0
  8  9  1  0  0  0
  9 10  2  0  0  0
 10  1  1  0  0  0
  1  2  1  0  0  0
  2  3  2  0  0  0
  2  4  1  0  0  0
  4 26  1  0  0  0
 26 27  2  0  0  0
 27 28  1  0  0  0
 28 29  2  0  0  0
 29 32  1  0  0  0
 32 33  1  0  0  0
 33 34  2  0  0  0
 34 35  1  0  0  0
 35 39  1  0  0  0
 39 40  1  0  0  0
 35 36  2  0  0  0
 36 37  1  0  0  0
 37 38  2  0  0  0
 29 30  1  0  0  0
 30 31  2  0  0  0
 10 11  1  0  0  0
 11 12  2  0  0  0
 12 13  1  0  0  0
 13 14  1  0  0  0
 13 15  1  0  0  0
 13 16  1  0  0  0
 21 22  1  0  0  0
 22 23  1  0  0  0
 23 18  1  0  0  0
 12  7  1  0  0  0
 31 26  1  0  0  0
 38 33  1  0  0  0
  1  5  1  0  0  0
  4  6  1  0  0  0
 39 41  1  0  0  0
M  END
> <minimizedAffinity>
-8.10061

> <CNNscore>
0.3779548109

> <CNNaffinity>
6.7467865944

> <CNN_VS>
2.5499804020

> <CNNaffinity_variance>
0.0759241432

$$$$
[H]c1nc(Oc2c([H])c([H])c(N([H])C(=O)N([H])c3c([H])c([H])c(C([H])([H])N4C([H])([H])C([H])([H])N(C([H])([H])C([H])([H])[H])C([H])([H])C4([H])[H])c(C(F)(F)F)c3[H])c([H])c2[H])c([H])c(N([H])C([H])([H])[H])n1


 41 44  0  0  0  0  0  0  0  0999 V2000
   34.6291   15.6906  -11.7929 N   0  0  0  0  0  0  0  0  0  0  0  0
   35.1387   14.6008  -12.5447 C   0  0  0  0  0  0  0  0  0  0  0  0
   35.9959   13.8098  -12.1028 O   0  0  0  0  0  0  0  0  0  0  0  0
   34.6501   14.4030  -13.8601 N   0  0  0  0  0  0  0  0  0  0  0  0
   33.9061   16.3066  -12.2546 H   0  0  0  0  0  0  0  0  0  0  0  0
   33.9166   15.0822  -14.2149 H   0  0  0  0  0  0  0  0  0  0  0  0
   36.1397   16.6412   -7.9791 C   0  0  0  0  0  0  0  0  0  0  0  0
   34.9532   15.9778   -8.0600 C   0  0  0  0  0  0  0  0  0  0  0  0
   34.4178   15.6545   -9.3184 C   0  0  0  0  0  0  0  0  0  0  0  0
   35.0331   15.9732  -10.4886 C   0  0  0  0  0  0  0  0  0  0  0  0
   36.2499   16.6544  -10.3559 C   0  0  0  0  0  0  0  0  0  0  0  0
   36.8148   16.9937   -9.1555 C   0  0  0  0  0  0  0  0  0  0  0  0
   38.1028   17.7164   -9.1121 C   0  0  0  0  0  0  0  0  0  0  0  0
   38.4759   18.0136  -10.4331 F   0  0  0  0  0  0  0  0  0  0  0  0
   39.1460   16.9953   -8.6060 F   0  0  0  0  0  0  0  0  0  0  0  0
   37.9863   18.9883   -8.5348 F   0  0  0  0  0  0  0  0  0  0  0  0
   36.7203   16.9586   -6.6804 C   0  0  0  0  0  0  0  0  0  0  0  0
   36.9114   13.6791   -4.5399 N   0  0  0  0  0  0  0  0  0  0  0  0
   36.8627   13.6309   -5.9658 C   0  0  0  0  0  0  0  0  0  0  0  0
   37.6481   14.7154   -6.6622 C   0  0  0  0  0  0  0  0  0  0  0  0
   37.5524   15.9985   -6.0607 N   0  0  0  0  0  0  0  0  0  0  0  0
   37.3593   16.0161   -4.6398 C   0  0  0  0  0  0  0  0  0  0  0  0
   37.7937   14.6976   -4.0377 C   0  0  0  0  0  0  0  0  0  0  0  0
   34.5338   13.8058   -5.1532 C   0  0  0  0  0  0  0  0  0  0  0  0
   35.5561   13.8279   -4.0466 C   0  0  0  0  0  0  0  0  0  0  0  0
   35.0871   13.3703  -14.7010 C   0  0  0  0  0  0  0  0  0  0  0  0
   36.4202   13.4428  -15.1202 C   0  0  0  0  0  0  0  0  0  0  0  0
   36.9254   12.4549  -15.9194 C   0  0  0  0  0  0  0  0  0  0  0  0
   36.1953   11.3659  -16.3515 C   0  0  0  0  0  0  0  0  0  0  0  0
   34.8920   11.3036  -15.9356 C   0  0  0  0  0  0  0  0  0  0  0  0
   34.3538   12.3021  -15.1178 C   0  0  0  0  0  0  0  0  0  0  0  0
   36.7543   10.3702  -17.1746 O   0  0  0  0  0  0  0  0  0  0  0  0
   37.8795   10.7455  -17.9124 C   0  0  0  0  0  0  0  0  0  0  0  0
   39.0219   11.2076  -17.2949 C   0  0  0  0  0  0  0  0  0  0  0  0
   40.1180   11.5691  -18.0795 C   0  0  0  0  0  0  0  0  0  0  0  0
   39.9974   11.4452  -19.4079 N   0  0  0  0  0  0  0  0  0  0  0  0
   38.8888   10.9962  -20.0176 C   0  0  0  0  0  0  0  0  0  0  0  0
   37.8421   10.6520  -19.2524 N   0  0  0  0  0  0  0  0  0  0  0  0
   41.3132   12.0487  -17.4957 N   0  0  0  0  0  0  0  0  0  0  0  0
   41.2425   12.7883  -16.2596 C   0  0  0  0  0  0  0  0  0  0  0  0
   42.2343   11.8741  -17.9465 H   0  0  0  0  0  0  0  0  0  0  0  0
 24 25  1  0  0  0
 25 18  1  0  0  0
 18 19  1  0  0  0
 19 20  1  0  0  0
 20 21  1  0  0  0
 21 17  1  0  0  0
 17  7  1  0  0  0
  7  8  2  0  0  0
  8  9  1  0  0  0
  9 10  2  0  0  0
 10  1  1  0  0  0
  1  2  1  0  0  0
  2  3  2  0  0  0
  2  4  1  0  0  0
  4 26  1  0  0  0
 26 27  2  0  0  0
 27 28  1  0  0  0
 28 29  2  0  0  0
 29 32  1  0  0  0
 32 33  1  0  0  0
 33 34  2  0  0  0
 34 35  1  0  0  0
 35 39  1  0  0  0
 39 40  1  0  0  0
 35 36  2  0  0  0
 36 37  1  0  0  0
 37 38  2  0  0  0
 29 30  1  0  0  0
 30 31  2  0  0  0
 10 11  1  0  0  0
 11 12  2  0  0  0
 12 13  1  0  0  0
 13 14  1  0  0  0
 13 15  1  0  0  0
 13 16  1  0  0  0
 21 22  1  0  0  0
 22 23  1  0  0  0
 23 18  1  0  0  0
 12  7  1  0  0  0
 31 26  1  0  0  0
 38 33  1  0  0  0
  1  5  1  0  0  0
  4  6  1  0  0  0
 39 41  1  0  0  0
M  END
> <minimizedAffinity>
-9.20135

> <CNNscore>
0.3484655619

> <CNNaffinity>
6.7293534279

> <CNN_VS>
2.3449478149

> <CNNaffinity_variance>
0.1757206172

$$$$
[H]c1nc(Oc2c([H])c([H])c(N([H])C(=O)N([H])c3c([H])c([H])c(C([H])([H])N4C([H])([H])C([H])([H])N(C([H])([H])C([H])([H])[H])C([H])([H])C4([H])[H])c(C(F)(F)F)c3[H])c([H])c2[H])c([H])c(N([H])C([H])([H])[H])n1


 41 44  0  0  0  0  0  0  0  0999 V2000
   44.1007   13.4892  -15.8832 N   0  0  0  0  0  0  0  0  0  0  0  0
   42.7411   13.0866  -15.8414 C   0  0  0  0  0  0  0  0  0  0  0  0
   42.0472   13.1362  -14.8061 O   0  0  0  0  0  0  0  0  0  0  0  0
   42.1443   12.6051  -17.0331 N   0  0  0  0  0  0  0  0  0  0  0  0
   44.6058   13.4082  -16.8072 H   0  0  0  0  0  0  0  0  0  0  0  0
   42.7489   12.5773  -17.9043 H   0  0  0  0  0  0  0  0  0  0  0  0
   46.1785   14.6752  -12.4182 C   0  0  0  0  0  0  0  0  0  0  0  0
   45.6660   15.6411  -13.2296 C   0  0  0  0  0  0  0  0  0  0  0  0
   44.9755   15.2779  -14.3984 C   0  0  0  0  0  0  0  0  0  0  0  0
   44.7845   13.9846  -14.7735 C   0  0  0  0  0  0  0  0  0  0  0  0
   45.3288   13.0267  -13.9086 C   0  0  0  0  0  0  0  0  0  0  0  0
   46.0100   13.3263  -12.7592 C   0  0  0  0  0  0  0  0  0  0  0  0
   46.5530   12.2476  -11.9080 C   0  0  0  0  0  0  0  0  0  0  0  0
   45.6917   12.0893  -10.8099 F   0  0  0  0  0  0  0  0  0  0  0  0
   47.7755   12.5119  -11.3605 F   0  0  0  0  0  0  0  0  0  0  0  0
   46.4912   10.9917  -12.5273 F   0  0  0  0  0  0  0  0  0  0  0  0
   46.8729   15.0367  -11.1887 C   0  0  0  0  0  0  0  0  0  0  0  0
   46.8514   16.5718   -7.5809 N   0  0  0  0  0  0  0  0  0  0  0  0
   46.6535   17.3890   -8.7345 C   0  0  0  0  0  0  0  0  0  0  0  0
   45.8279   16.7525   -9.8260 C   0  0  0  0  0  0  0  0  0  0  0  0
   46.1020   15.3777  -10.0539 N   0  0  0  0  0  0  0  0  0  0  0  0
   46.5350   14.6235   -8.9136 C   0  0  0  0  0  0  0  0  0  0  0  0
   46.1308   15.3287   -7.6373 C   0  0  0  0  0  0  0  0  0  0  0  0
   48.6268   15.8950   -6.0204 C   0  0  0  0  0  0  0  0  0  0  0  0
   48.2775   16.3778   -7.4042 C   0  0  0  0  0  0  0  0  0  0  0  0
   40.8148   12.1680  -17.1112 C   0  0  0  0  0  0  0  0  0  0  0  0
   40.4621   11.4815  -18.2784 C   0  0  0  0  0  0  0  0  0  0  0  0
   39.1894   10.9999  -18.4132 C   0  0  0  0  0  0  0  0  0  0  0  0
   38.2055   11.1472  -17.4561 C   0  0  0  0  0  0  0  0  0  0  0  0
   38.5605   11.8199  -16.3174 C   0  0  0  0  0  0  0  0  0  0  0  0
   39.8562   12.3209  -16.1572 C   0  0  0  0  0  0  0  0  0  0  0  0
   36.9063   10.6358  -17.6350 O   0  0  0  0  0  0  0  0  0  0  0  0
   35.9332   11.1131  -16.7538 C   0  0  0  0  0  0  0  0  0  0  0  0
   36.2680   11.8929  -15.6677 C   0  0  0  0  0  0  0  0  0  0  0  0
   35.2563   12.3436  -14.8187 C   0  0  0  0  0  0  0  0  0  0  0  0
   33.9980   11.9884  -15.1105 N   0  0  0  0  0  0  0  0  0  0  0  0
   33.6629   11.2293  -16.1659 C   0  0  0  0  0  0  0  0  0  0  0  0
   34.6445   10.8024  -16.9744 N   0  0  0  0  0  0  0  0  0  0  0  0
   35.5463   13.1461  -13.6912 N   0  0  0  0  0  0  0  0  0  0  0  0
   36.2480   14.3921  -13.8789 C   0  0  0  0  0  0  0  0  0  0  0  0
   35.2604   12.8478  -12.7366 H   0  0  0  0  0  0  0  0  0  0  0  0
 24 25  1  0  0  0
 25 18  1  0  0  0
 18 19  1  0  0  0
 19 20  1  0  0  0
 20 21  1  0  0  0
 21 17  1  0  0  0
 17  7  1  0  0  0
  7  8  2  0  0  0
  8  9  1  0  0  0
  9 10  2  0  0  0
 10  1  1  0  0  0
  1  2  1  0  0  0
  2  3  2  0  0  0
  2  4  1  0  0  0
  4 26  1  0  0  0
 26 27  2  0  0  0
 27 28  1  0  0  0
 28 29  2  0  0  0
 29 32  1  0  0  0
 32 33  1  0  0  0
 33 34  2  0  0  0
 34 35  1  0  0  0
 35 39  1  0  0  0
 39 40  1  0  0  0
 35 36  2  0  0  0
 36 37  1  0  0  0
 37 38  2  0  0  0
 29 30  1  0  0  0
 30 31  2  0  0  0
 10 11  1  0  0  0
 11 12  2  0  0  0
 12 13  1  0  0  0
 13 14  1  0  0  0
 13 15  1  0  0  0
 13 16  1  0  0  0
 21 22  1  0  0  0
 22 23  1  0  0  0
 23 18  1  0  0  0
 12  7  1  0  0  0
 31 26  1  0  0  0
 38 33  1  0  0  0
  1  5  1  0  0  0
  4  6  1  0  0  0
 39 41  1  0  0  0
M  END
> <minimizedAffinity>
-8.11874

> <CNNscore>
0.3311254978

> <CNNaffinity>
6.6687364578

> <CNN_VS>
2.2081887722

> <CNNaffinity_variance>
0.0746243745

$$$$
[H]c1nc(Oc2c([H])c([H])c(N([H])C(=O)N([H])c3c([H])c([H])c(C([H])([H])N4C([H])([H])C([H])([H])N(C([H])([H])C([H])([H])[H])C([H])([H])C4([H])[H])c(C(F)(F)F)c3[H])c([H])c2[H])c([H])c(N([H])C([H])([H])[H])n1


 41 44  0  0  0  0  0  0  0  0999 V2000
   34.7094   15.6126  -10.0652 N   0  0  0  0  0  0  0  0  0  0  0  0
   35.1670   14.6735  -11.0249 C   0  0  0  0  0  0  0  0  0  0  0  0
   36.1294   13.9062  -10.8226 O   0  0  0  0  0  0  0  0  0  0  0  0
   34.4982   14.6051  -12.2724 N   0  0  0  0  0  0  0  0  0  0  0  0
   33.8874   16.2205  -10.3301 H   0  0  0  0  0  0  0  0  0  0  0  0
   33.6780   15.2610  -12.4224 H   0  0  0  0  0  0  0  0  0  0  0  0
   36.4357   16.3827   -6.3026 C   0  0  0  0  0  0  0  0  0  0  0  0
   36.4367   15.1026   -6.7670 C   0  0  0  0  0  0  0  0  0  0  0  0
   35.8598   14.8116   -8.0148 C   0  0  0  0  0  0  0  0  0  0  0  0
   35.2877   15.7593   -8.8049 C   0  0  0  0  0  0  0  0  0  0  0  0
   35.3103   17.0603   -8.2864 C   0  0  0  0  0  0  0  0  0  0  0  0
   35.8582   17.3975   -7.0776 C   0  0  0  0  0  0  0  0  0  0  0  0
   35.8336   18.7986   -6.6093 C   0  0  0  0  0  0  0  0  0  0  0  0
   35.4274   19.6061   -7.6844 F   0  0  0  0  0  0  0  0  0  0  0  0
   37.0480   19.2974   -6.2342 F   0  0  0  0  0  0  0  0  0  0  0  0
   34.8301   19.0299   -5.6584 F   0  0  0  0  0  0  0  0  0  0  0  0
   37.0549   16.7035   -5.0227 C   0  0  0  0  0  0  0  0  0  0  0  0
   34.0264   14.8039   -3.4126 N   0  0  0  0  0  0  0  0  0  0  0  0
   35.1430   14.0958   -3.9508 C   0  0  0  0  0  0  0  0  0  0  0  0
   36.4823   14.7467   -3.7050 C   0  0  0  0  0  0  0  0  0  0  0  0
   36.4914   16.1600   -3.8457 N   0  0  0  0  0  0  0  0  0  0  0  0
   35.2671   16.8338   -3.5235 C   0  0  0  0  0  0  0  0  0  0  0  0
   34.4054   15.9569   -2.6414 C   0  0  0  0  0  0  0  0  0  0  0  0
   33.0979   14.0693   -5.5674 C   0  0  0  0  0  0  0  0  0  0  0  0
   33.1339   15.1376   -4.5056 C   0  0  0  0  0  0  0  0  0  0  0  0
   34.8670   13.7277  -13.3014 C   0  0  0  0  0  0  0  0  0  0  0  0
   33.8164   13.0856  -13.9663 C   0  0  0  0  0  0  0  0  0  0  0  0
   34.0982   12.2366  -15.0006 C   0  0  0  0  0  0  0  0  0  0  0  0
   35.3761   11.9624  -15.4448 C   0  0  0  0  0  0  0  0  0  0  0  0
   36.3974   12.5958  -14.7880 C   0  0  0  0  0  0  0  0  0  0  0  0
   36.1333   13.4686  -13.7279 C   0  0  0  0  0  0  0  0  0  0  0  0
   35.6227   11.0808  -16.5140 O   0  0  0  0  0  0  0  0  0  0  0  0
   36.8985   11.1446  -17.0792 C   0  0  0  0  0  0  0  0  0  0  0  0
   37.9583   11.7048  -16.3989 C   0  0  0  0  0  0  0  0  0  0  0  0
   39.2124   11.7430  -17.0100 C   0  0  0  0  0  0  0  0  0  0  0  0
   39.3182   11.2258  -18.2412 N   0  0  0  0  0  0  0  0  0  0  0  0
   38.2915   10.6784  -18.9110 C   0  0  0  0  0  0  0  0  0  0  0  0
   37.0912   10.6477  -18.3128 N   0  0  0  0  0  0  0  0  0  0  0  0
   40.3319   12.3064  -16.3553 N   0  0  0  0  0  0  0  0  0  0  0  0
   40.6976   13.6719  -16.6410 C   0  0  0  0  0  0  0  0  0  0  0  0
   40.8885   11.7492  -15.6758 H   0  0  0  0  0  0  0  0  0  0  0  0
 24 25  1  0  0  0
 25 18  1  0  0  0
 18 19  1  0  0  0
 19 20  1  0  0  0
 20 21  1  0  0  0
 21 17  1  0  0  0
 17  7  1  0  0  0
  7  8  2  0  0  0
  8  9  1  0  0  0
  9 10  2  0  0  0
 10  1  1  0  0  0
  1  2  1  0  0  0
  2  3  2  0  0  0
  2  4  1  0  0  0
  4 26  1  0  0  0
 26 27  2  0  0  0
 27 28  1  0  0  0
 28 29  2  0  0  0
 29 32  1  0  0  0
 32 33  1  0  0  0
 33 34  2  0  0  0
 34 35  1  0  0  0
 35 39  1  0  0  0
 39 40  1  0  0  0
 35 36  2  0  0  0
 36 37  1  0  0  0
 37 38  2  0  0  0
 29 30  1  0  0  0
 30 31  2  0  0  0
 10 11  1  0  0  0
 11 12  2  0  0  0
 12 13  1  0  0  0
 13 14  1  0  0  0
 13 15  1  0  0  0
 13 16  1  0  0  0
 21 22  1  0  0  0
 22 23  1  0  0  0
 23 18  1  0  0  0
 12  7  1  0  0  0
 31 26  1  0  0  0
 38 33  1  0  0  0
  1  5  1  0  0  0
  4  6  1  0  0  0
 39 41  1  0  0  0
M  END
> <minimizedAffinity>
-8.30188

> <CNNscore>
0.3277513981

> <CNNaffinity>
6.6432251930

> <CNN_VS>
2.1773264408

> <CNNaffinity_variance>
0.2606047690

$$$$
[H]c1nc(Oc2c([H])c([H])c(N([H])C(=O)N([H])c3c([H])c([H])c(C([H])([H])N4C([H])([H])C([H])([H])N(C([H])([H])C([H])([H])[H])C([H])([H])C4([H])[H])c(C(F)(F)F)c3[H])c([H])c2[H])c([H])c(N([H])C([H])([H])[H])n1


 41 44  0  0  0  0  0  0  0  0999 V2000
   44.0631   13.6259  -15.5719 N   0  0  0  0  0  0  0  0  0  0  0  0
   42.7253   13.1559  -15.5296 C   0  0  0  0  0  0  0  0  0  0  0  0
   42.0971   12.9828  -14.4660 O   0  0  0  0  0  0  0  0  0  0  0  0
   42.0730   12.8695  -16.7546 N   0  0  0  0  0  0  0  0  0  0  0  0
   44.5113   13.7388  -16.5215 H   0  0  0  0  0  0  0  0  0  0  0  0
   42.6218   13.0298  -17.6481 H   0  0  0  0  0  0  0  0  0  0  0  0
   46.1476   14.8939  -12.1400 C   0  0  0  0  0  0  0  0  0  0  0  0
   46.4609   13.6833  -12.6789 C   0  0  0  0  0  0  0  0  0  0  0  0
   45.7768   13.2276  -13.8186 C   0  0  0  0  0  0  0  0  0  0  0  0
   44.7963   13.9453  -14.4295 C   0  0  0  0  0  0  0  0  0  0  0  0
   44.5087   15.1831  -13.8405 C   0  0  0  0  0  0  0  0  0  0  0  0
   45.1440   15.6734  -12.7309 C   0  0  0  0  0  0  0  0  0  0  0  0
   44.7715   16.9912  -12.1761 C   0  0  0  0  0  0  0  0  0  0  0  0
   43.7251   17.5084  -12.9574 F   0  0  0  0  0  0  0  0  0  0  0  0
   45.7555   17.9358  -12.2367 F   0  0  0  0  0  0  0  0  0  0  0  0
   44.1846   16.8936  -10.9070 F   0  0  0  0  0  0  0  0  0  0  0  0
   46.8680   15.3913  -10.9746 C   0  0  0  0  0  0  0  0  0  0  0  0
   45.8283   15.4093   -7.1941 N   0  0  0  0  0  0  0  0  0  0  0  0
   44.9045   15.0303   -8.2143 C   0  0  0  0  0  0  0  0  0  0  0  0
   45.5029   14.2242   -9.3413 C   0  0  0  0  0  0  0  0  0  0  0  0
   46.7857   14.6596   -9.7679 N   0  0  0  0  0  0  0  0  0  0  0  0
   47.6135   15.2620   -8.7636 C   0  0  0  0  0  0  0  0  0  0  0  0
   47.1413   14.8548   -7.3849 C   0  0  0  0  0  0  0  0  0  0  0  0
   44.5755   17.4776   -7.6383 C   0  0  0  0  0  0  0  0  0  0  0  0
   45.8446   16.8570   -7.1148 C   0  0  0  0  0  0  0  0  0  0  0  0
   40.7591   12.3887  -16.8380 C   0  0  0  0  0  0  0  0  0  0  0  0
   40.4321   11.6962  -18.0091 C   0  0  0  0  0  0  0  0  0  0  0  0
   39.1765   11.1732  -18.1494 C   0  0  0  0  0  0  0  0  0  0  0  0
   38.1860   11.2832  -17.1941 C   0  0  0  0  0  0  0  0  0  0  0  0
   38.5156   11.9622  -16.0514 C   0  0  0  0  0  0  0  0  0  0  0  0
   39.7936   12.5053  -15.8857 C   0  0  0  0  0  0  0  0  0  0  0  0
   36.9050   10.7297  -17.3785 O   0  0  0  0  0  0  0  0  0  0  0  0
   35.8812   11.2831  -16.6059 C   0  0  0  0  0  0  0  0  0  0  0  0
   36.0494   12.4786  -15.9406 C   0  0  0  0  0  0  0  0  0  0  0  0
   34.9939   12.9870  -15.1823 C   0  0  0  0  0  0  0  0  0  0  0  0
   33.8598   12.2751  -15.1426 N   0  0  0  0  0  0  0  0  0  0  0  0
   33.6873   11.1102  -15.7872 C   0  0  0  0  0  0  0  0  0  0  0  0
   34.7094   10.6321  -16.5126 N   0  0  0  0  0  0  0  0  0  0  0  0
   35.1148   14.2088  -14.4810 N   0  0  0  0  0  0  0  0  0  0  0  0
   36.1128   14.3280  -13.4467 C   0  0  0  0  0  0  0  0  0  0  0  0
   34.4956   15.0146  -14.7030 H   0  0  0  0  0  0  0  0  0  0  0  0
 24 25  1  0  0  0
 25 18  1  0  0  0
 18 19  1  0  0  0
 19 20  1  0  0  0
 20 21  1  0  0  0
 21 17  1  0  0  0
 17  7  1  0  0  0
  7  8  2  0  0  0
  8  9  1  0  0  0
  9 10  2  0  0  0
 10  1  1  0  0  0
  1  2  1  0  0  0
  2  3  2  0  0  0
  2  4  1  0  0  0
  4 26  1  0  0  0
 26 27  2  0  0  0
 27 28  1  0  0  0
 28 29  2  0  0  0
 29 32  1  0  0  0
 32 33  1  0  0  0
 33 34  2  0  0  0
 34 35  1  0  0  0
 35 39  1  0  0  0
 39 40  1  0  0  0
 35 36  2  0  0  0
 36 37  1  0  0  0
 37 38  2  0  0  0
 29 30  1  0  0  0
 30 31  2  0  0  0
 10 11  1  0  0  0
 11 12  2  0  0  0
 12 13  1  0  0  0
 13 14  1  0  0  0
 13 15  1  0  0  0
 13 16  1  0  0  0
 21 22  1  0  0  0
 22 23  1  0  0  0
 23 18  1  0  0  0
 12  7  1  0  0  0
 31 26  1  0  0  0
 38 33  1  0  0  0
  1  5  1  0  0  0
  4  6  1  0  0  0
 39 41  1  0  0  0
M  END
> <minimizedAffinity>
-8.10425

> <CNNscore>
0.3198502660

> <CNNaffinity>
6.6998991966

> <CNN_VS>
2.1429646015

> <CNNaffinity_variance>
0.0677371994

$$$$
[H]c1nc(Oc2c([H])c([H])c(N([H])C(=O)N([H])c3c([H])c([H])c(C([H])([H])N4C([H])([H])C([H])([H])N(C([H])([H])C([H])([H])[H])C([H])([H])C4([H])[H])c(C(F)(F)F)c3[H])c([H])c2[H])c([H])c(N([H])C([H])([H])[H])n1


 41 44  0  0  0  0  0  0  0  0999 V2000
   44.0366   13.3394  -16.2477 N   0  0  0  0  0  0  0  0  0  0  0  0
   42.6778   13.0397  -15.9714 C   0  0  0  0  0  0  0  0  0  0  0  0
   42.1687   13.1657  -14.8397 O   0  0  0  0  0  0  0  0  0  0  0  0
   41.8614   12.5750  -17.0323 N   0  0  0  0  0  0  0  0  0  0  0  0
   44.3760   13.1989  -17.2379 H   0  0  0  0  0  0  0  0  0  0  0  0
   42.3112   12.4813  -17.9885 H   0  0  0  0  0  0  0  0  0  0  0  0
   46.9396   14.5356  -13.4420 C   0  0  0  0  0  0  0  0  0  0  0  0
   45.6787   15.0360  -13.3242 C   0  0  0  0  0  0  0  0  0  0  0  0
   44.6897   14.6635  -14.2503 C   0  0  0  0  0  0  0  0  0  0  0  0
   44.9260   13.8097  -15.2822 C   0  0  0  0  0  0  0  0  0  0  0  0
   46.2362   13.3209  -15.3632 C   0  0  0  0  0  0  0  0  0  0  0  0
   47.2364   13.6519  -14.4884 C   0  0  0  0  0  0  0  0  0  0  0  0
   48.5923   13.0886  -14.6538 C   0  0  0  0  0  0  0  0  0  0  0  0
   48.7279   12.0185  -13.7544 F   0  0  0  0  0  0  0  0  0  0  0  0
   49.6089   13.9438  -14.3385 F   0  0  0  0  0  0  0  0  0  0  0  0
   48.7675   12.4658  -15.8972 F   0  0  0  0  0  0  0  0  0  0  0  0
   47.9681   14.8917  -12.4725 C   0  0  0  0  0  0  0  0  0  0  0  0
   47.0773   18.6928  -12.8347 N   0  0  0  0  0  0  0  0  0  0  0  0
   47.0126   18.0344  -11.5698 C   0  0  0  0  0  0  0  0  0  0  0  0
   48.1088   17.0263  -11.3250 C   0  0  0  0  0  0  0  0  0  0  0  0
   48.4405   16.2238  -12.4489 N   0  0  0  0  0  0  0  0  0  0  0  0
   48.2668   16.8359  -13.7342 C   0  0  0  0  0  0  0  0  0  0  0  0
   48.2459   18.3426  -13.5961 C   0  0  0  0  0  0  0  0  0  0  0  0
   44.7454   19.3828  -13.1967 C   0  0  0  0  0  0  0  0  0  0  0  0
   45.8468   18.4176  -13.5506 C   0  0  0  0  0  0  0  0  0  0  0  0
   40.5102   12.2357  -16.8779 C   0  0  0  0  0  0  0  0  0  0  0  0
   39.7860   13.0030  -15.9586 C   0  0  0  0  0  0  0  0  0  0  0  0
   38.4549   12.7485  -15.7756 C   0  0  0  0  0  0  0  0  0  0  0  0
   37.7598   11.7648  -16.4500 C   0  0  0  0  0  0  0  0  0  0  0  0
   38.4770   11.0197  -17.3477 C   0  0  0  0  0  0  0  0  0  0  0  0
   39.8390   11.2621  -17.5518 C   0  0  0  0  0  0  0  0  0  0  0  0
   36.3883   11.5353  -16.2314 O   0  0  0  0  0  0  0  0  0  0  0  0
   35.8581   12.0670  -15.0535 C   0  0  0  0  0  0  0  0  0  0  0  0
   34.6260   12.6848  -15.0353 C   0  0  0  0  0  0  0  0  0  0  0  0
   34.1429   13.1989  -13.8311 C   0  0  0  0  0  0  0  0  0  0  0  0
   34.9143   13.0615  -12.7445 N   0  0  0  0  0  0  0  0  0  0  0  0
   36.1152   12.4614  -12.7532 C   0  0  0  0  0  0  0  0  0  0  0  0
   36.5683   11.9714  -13.9168 N   0  0  0  0  0  0  0  0  0  0  0  0
   32.8856   13.8416  -13.7583 N   0  0  0  0  0  0  0  0  0  0  0  0
   32.4346   14.3588  -12.4898 C   0  0  0  0  0  0  0  0  0  0  0  0
   32.2891   13.9435  -14.6044 H   0  0  0  0  0  0  0  0  0  0  0  0
 24 25  1  0  0  0
 25 18  1  0  0  0
 18 19  1  0  0  0
 19 20  1  0  0  0
 20 21  1  0  0  0
 21 17  1  0  0  0
 17  7  1  0  0  0
  7  8  2  0  0  0
  8  9  1  0  0  0
  9 10  2  0  0  0
 10  1  1  0  0  0
  1  2  1  0  0  0
  2  3  2  0  0  0
  2  4  1  0  0  0
  4 26  1  0  0  0
 26 27  2  0  0  0
 27 28  1  0  0  0
 28 29  2  0  0  0
 29 32  1  0  0  0
 32 33  1  0  0  0
 33 34  2  0  0  0
 34 35  1  0  0  0
 35 39  1  0  0  0
 39 40  1  0  0  0
 35 36  2  0  0  0
 36 37  1  0  0  0
 37 38  2  0  0  0
 29 30  1  0  0  0
 30 31  2  0  0  0
 10 11  1  0  0  0
 11 12  2  0  0  0
 12 13  1  0  0  0
 13 14  1  0  0  0
 13 15  1  0  0  0
 13 16  1  0  0  0
 21 22  1  0  0  0
 22 23  1  0  0  0
 23 18  1  0  0  0
 12  7  1  0  0  0
 31 26  1  0  0  0
 38 33  1  0  0  0
  1  5  1  0  0  0
  4  6  1  0  0  0
 39 41  1  0  0  0
M  END
> <minimizedAffinity>
-8.22932

> <CNNscore>
0.3109903634

> <CNNaffinity>
6.6302580833

> <CNN_VS>
2.0619463921

> <CNNaffinity_variance>
0.0560621545

$$$$
[H]O[C@@]([H])(C([H])([H])N([H])C(=O)c1c(C([H])([H])[H])c(/C([H])=C2\C(=O)N([H])c3c([H])c([H])c(F)c([H])c32)n([H])c1C([H])([H])[H])C([H])([H])N1C([H])([H])C([H])([H])OC([H])([H])C1([H])[H]


 36 39  0  0  0  0  0  0  0  0999 V2000
   44.8658   12.1101  -17.5492 C   0  0  0  0  0  0  0  0  0  0  0  0
   43.7348   12.4763  -16.6564 C   0  0  0  0  0  0  0  0  0  0  0  0
   42.4261   12.1021  -16.8684 N   0  0  0  0  0  0  0  0  0  0  0  0
   41.6675   12.6083  -15.9195 C   0  0  0  0  0  0  0  0  0  0  0  0
   42.4792   13.3164  -15.0840 C   0  0  0  0  0  0  0  0  0  0  0  0
   42.0570   14.0697  -13.8606 C   0  0  0  0  0  0  0  0  0  0  0  0
   43.8313   13.2503  -15.5334 C   0  0  0  0  0  0  0  0  0  0  0  0
   42.1501   11.5062  -17.7007 H   0  0  0  0  0  0  0  0  0  0  0  0
   40.2440   12.4597  -15.7311 C   0  0  0  0  0  0  0  0  0  0  0  0
   39.4043   11.9176  -16.5918 C   0  0  0  0  0  0  0  0  0  0  0  0
   39.7285   11.3539  -17.8938 C   0  0  0  0  0  0  0  0  0  0  0  0
   40.8617   11.2472  -18.4442 O   0  0  0  0  0  0  0  0  0  0  0  0
   38.4764   10.9279  -18.4447 N   0  0  0  0  0  0  0  0  0  0  0  0
   37.4097   11.2021  -17.5461 C   0  0  0  0  0  0  0  0  0  0  0  0
   36.0308   10.9850  -17.6112 C   0  0  0  0  0  0  0  0  0  0  0  0
   35.2204   11.3622  -16.5655 C   0  0  0  0  0  0  0  0  0  0  0  0
   35.7297   11.9583  -15.4330 C   0  0  0  0  0  0  0  0  0  0  0  0
   34.9147   12.3277  -14.4020 F   0  0  0  0  0  0  0  0  0  0  0  0
   37.0919   12.1600  -15.3960 C   0  0  0  0  0  0  0  0  0  0  0  0
   37.9405   11.7969  -16.4234 C   0  0  0  0  0  0  0  0  0  0  0  0
   38.3899   10.4815  -19.3779 H   0  0  0  0  0  0  0  0  0  0  0  0
   44.9335   13.8667  -14.8393 C   0  0  0  0  0  0  0  0  0  0  0  0
   45.5718   13.1413  -14.0061 O   0  0  0  0  0  0  0  0  0  0  0  0
   45.3775   15.1738  -14.9860 N   0  0  0  0  0  0  0  0  0  0  0  0
   44.8421   15.7505  -15.7189 H   0  0  0  0  0  0  0  0  0  0  0  0
   46.4606   15.8044  -14.2945 C   0  0  0  0  0  0  0  0  0  0  0  0
   46.2242   16.7503  -13.2083 C   0  0  0  0  0  0  0  0  0  0  0  0
   46.5301   18.0829  -13.3822 O   0  0  0  0  0  0  0  0  0  0  0  0
   47.3447   18.2725  -12.8537 H   0  0  0  0  0  0  0  0  0  0  0  0
   46.3699   16.3438  -11.7921 C   0  0  0  0  0  0  0  0  0  0  0  0
   47.2152   17.1202  -10.9345 N   0  0  0  0  0  0  0  0  0  0  0  0
   46.4202   17.4091   -9.7326 C   0  0  0  0  0  0  0  0  0  0  0  0
   47.2101   18.1090   -8.6853 C   0  0  0  0  0  0  0  0  0  0  0  0
   48.5973   18.0221   -8.9290 O   0  0  0  0  0  0  0  0  0  0  0  0
   48.8292   16.6643   -9.1443 C   0  0  0  0  0  0  0  0  0  0  0  0
   48.3877   16.3571  -10.5721 C   0  0  0  0  0  0  0  0  0  0  0  0
  1  2  1  0  0  0
  2  3  1  0  0  0
  3  4  1  0  0  0
  4  9  1  0  0  0
  9 10  2  0  0  0
 10 11  1  0  0  0
 11 12  2  0  0  0
 11 13  1  0  0  0
 13 14  1  0  0  0
 14 15  2  0  0  0
 15 16  1  0  0  0
 16 17  2  0  0  0
 17 18  1  0  0  0
 17 19  1  0  0  0
 19 20  2  0  0  0
  4  5  2  0  0  0
  5  6  1  0  0  0
  5  7  1  0  0  0
  7 22  1  0  0  0
 22 23  2  0  0  0
 22 24  1  0  0  0
 24 26  1  0  0  0
 26 27  1  0  0  0
 27 28  1  0  0  0
 27 30  1  0  0  0
 30 31  1  0  0  0
 31 32  1  0  0  0
 32 33  1  0  0  0
 33 34  1  0  0  0
 34 35  1  0  0  0
 35 36  1  0  0  0
  7  2  2  0  0  0
 36 31  1  0  0  0
 20 10  1  0  0  0
 20 14  1  0  0  0
  3  8  1  0  0  0
 13 21  1  0  0  0
 24 25  1  0  0  0
 28 29  1  0  0  0
M  END
> <minimizedAffinity>
-8.32965

> <CNNscore>
0.8832298517

> <CNNaffinity>
6.7098212242

> <CNN_VS>
5.9263143539

> <CNNaffinity_variance>
0.2912890017

$$$$
[H]O[C@@]([H])(C([H])([H])N([H])C(=O)c1c(C([H])([H])[H])c(/C([H])=C2\C(=O)N([H])c3c([H])c([H])c(F)c([H])c32)n([H])c1C([H])([H])[H])C([H])([H])N1C([H])([H])C([H])([H])OC([H])([H])C1([H])[H]


 36 39  0  0  0  0  0  0  0  0999 V2000
   44.8087   12.0957  -17.5136 C   0  0  0  0  0  0  0  0  0  0  0  0
   43.6893   12.4885  -16.6174 C   0  0  0  0  0  0  0  0  0  0  0  0
   42.3746   12.1268  -16.8135 N   0  0  0  0  0  0  0  0  0  0  0  0
   41.6297   12.6561  -15.8663 C   0  0  0  0  0  0  0  0  0  0  0  0
   42.4564   13.3667  -15.0479 C   0  0  0  0  0  0  0  0  0  0  0  0
   42.0530   14.1431  -13.8326 C   0  0  0  0  0  0  0  0  0  0  0  0
   43.8040   13.2779  -15.5069 C   0  0  0  0  0  0  0  0  0  0  0  0
   42.0849   11.5220  -17.6346 H   0  0  0  0  0  0  0  0  0  0  0  0
   40.2061   12.5273  -15.6646 C   0  0  0  0  0  0  0  0  0  0  0  0
   39.3609   11.9355  -16.4862 C   0  0  0  0  0  0  0  0  0  0  0  0
   39.6778   11.2880  -17.7504 C   0  0  0  0  0  0  0  0  0  0  0  0
   40.8086   11.1404  -18.2963 O   0  0  0  0  0  0  0  0  0  0  0  0
   38.4219   10.8342  -18.2692 N   0  0  0  0  0  0  0  0  0  0  0  0
   37.3595   11.1709  -17.3867 C   0  0  0  0  0  0  0  0  0  0  0  0
   35.9793   10.9572  -17.4337 C   0  0  0  0  0  0  0  0  0  0  0  0
   35.1743   11.4048  -16.4119 C   0  0  0  0  0  0  0  0  0  0  0  0
   35.6904   12.0695  -15.3214 C   0  0  0  0  0  0  0  0  0  0  0  0
   34.8806   12.5084  -14.3137 F   0  0  0  0  0  0  0  0  0  0  0  0
   37.0536   12.2661  -15.3014 C   0  0  0  0  0  0  0  0  0  0  0  0
   37.8970   11.8336  -16.3061 C   0  0  0  0  0  0  0  0  0  0  0  0
   38.3300   10.3294  -19.1715 H   0  0  0  0  0  0  0  0  0  0  0  0
   44.9189   13.8914  -14.8307 C   0  0  0  0  0  0  0  0  0  0  0  0
   45.5417   13.1779  -13.9757 O   0  0  0  0  0  0  0  0  0  0  0  0
   45.3905   15.1838  -15.0162 N   0  0  0  0  0  0  0  0  0  0  0  0
   44.8674   15.7495  -15.7664 H   0  0  0  0  0  0  0  0  0  0  0  0
   46.4866   15.8117  -14.3431 C   0  0  0  0  0  0  0  0  0  0  0  0
   46.3054   17.0349  -13.5674 C   0  0  0  0  0  0  0  0  0  0  0  0
   47.2491   18.0369  -13.6389 O   0  0  0  0  0  0  0  0  0  0  0  0
   47.7543   18.0308  -12.7882 H   0  0  0  0  0  0  0  0  0  0  0  0
   45.6414   17.0126  -12.2443 C   0  0  0  0  0  0  0  0  0  0  0  0
   44.8542   15.8704  -11.8861 N   0  0  0  0  0  0  0  0  0  0  0  0
   45.6468   15.1232  -10.8993 C   0  0  0  0  0  0  0  0  0  0  0  0
   44.9035   13.9661  -10.3343 C   0  0  0  0  0  0  0  0  0  0  0  0
   43.5198   14.0528  -10.5973 O   0  0  0  0  0  0  0  0  0  0  0  0
   43.1667   15.3376  -10.1874 C   0  0  0  0  0  0  0  0  0  0  0  0
   43.6080   16.2950  -11.2903 C   0  0  0  0  0  0  0  0  0  0  0  0
  1  2  1  0  0  0
  2  3  1  0  0  0
  3  4  1  0  0  0
  4  9  1  0  0  0
  9 10  2  0  0  0
 10 11  1  0  0  0
 11 12  2  0  0  0
 11 13  1  0  0  0
 13 14  1  0  0  0
 14 15  2  0  0  0
 15 16  1  0  0  0
 16 17  2  0  0  0
 17 18  1  0  0  0
 17 19  1  0  0  0
 19 20  2  0  0  0
  4  5  2  0  0  0
  5  6  1  0  0  0
  5  7  1  0  0  0
  7 22  1  0  0  0
 22 23  2  0  0  0
 22 24  1  0  0  0
 24 26  1  0  0  0
 26 27  1  0  0  0
 27 28  1  0  0  0
 27 30  1  0  0  0
 30 31  1  0  0  0
 31 32  1  0  0  0
 32 33  1  0  0  0
 33 34  1  0  0  0
 34 35  1  0  0  0
 35 36  1  0  0  0
  7  2  2  0  0  0
 36 31  1  0  0  0
 20 10  1  0  0  0
 20 14  1  0  0  0
  3  8  1  0  0  0
 13 21  1  0  0  0
 24 25  1  0  0  0
 28 29  1  0  0  0
M  END
> <minimizedAffinity>
-8.83807

> <CNNscore>
0.8716324568

> <CNNaffinity>
6.9945268631

> <CNN_VS>
6.0966567993

> <CNNaffinity_variance>
0.1907142997

$$$$
[H]O[C@@]([H])(C([H])([H])N([H])C(=O)c1c(C([H])([H])[H])c(/C([H])=C2\C(=O)N([H])c3c([H])c([H])c(F)c([H])c32)n([H])c1C([H])([H])[H])C([H])([H])N1C([H])([H])C([H])([H])OC([H])([H])C1([H])[H]


 36 39  0  0  0  0  0  0  0  0999 V2000
   44.5745   12.0465  -17.5144 C   0  0  0  0  0  0  0  0  0  0  0  0
   43.4763   12.4582  -16.6009 C   0  0  0  0  0  0  0  0  0  0  0  0
   42.1472   12.1552  -16.7991 N   0  0  0  0  0  0  0  0  0  0  0  0
   41.4288   12.6867  -15.8329 C   0  0  0  0  0  0  0  0  0  0  0  0
   42.2874   13.3401  -14.9997 C   0  0  0  0  0  0  0  0  0  0  0  0
   41.9215   14.0971  -13.7606 C   0  0  0  0  0  0  0  0  0  0  0  0
   43.6280   13.2105  -15.4692 C   0  0  0  0  0  0  0  0  0  0  0  0
   41.8293   11.5860  -17.6352 H   0  0  0  0  0  0  0  0  0  0  0  0
   40.0021   12.6093  -15.6262 C   0  0  0  0  0  0  0  0  0  0  0  0
   39.1445   11.9690  -16.3971 C   0  0  0  0  0  0  0  0  0  0  0  0
   39.4483   11.2077  -17.5997 C   0  0  0  0  0  0  0  0  0  0  0  0
   40.5762   10.9870  -18.1264 O   0  0  0  0  0  0  0  0  0  0  0  0
   38.1828   10.7405  -18.0822 N   0  0  0  0  0  0  0  0  0  0  0  0
   37.1272   11.1769  -17.2361 C   0  0  0  0  0  0  0  0  0  0  0  0
   35.7424   10.9926  -17.2698 C   0  0  0  0  0  0  0  0  0  0  0  0
   34.9464   11.5453  -16.2934 C   0  0  0  0  0  0  0  0  0  0  0  0
   35.4762   12.2892  -15.2622 C   0  0  0  0  0  0  0  0  0  0  0  0
   34.6754   12.8322  -14.2991 F   0  0  0  0  0  0  0  0  0  0  0  0
   36.8437   12.4546  -15.2540 C   0  0  0  0  0  0  0  0  0  0  0  0
   37.6784   11.9174  -16.2144 C   0  0  0  0  0  0  0  0  0  0  0  0
   38.0806   10.1622  -18.9381 H   0  0  0  0  0  0  0  0  0  0  0  0
   44.7700   13.7594  -14.7827 C   0  0  0  0  0  0  0  0  0  0  0  0
   45.0119   14.9994  -14.9608 O   0  0  0  0  0  0  0  0  0  0  0  0
   45.6369   13.0766  -13.9406 N   0  0  0  0  0  0  0  0  0  0  0  0
   45.3885   12.0422  -13.7831 H   0  0  0  0  0  0  0  0  0  0  0  0
   46.7824   13.6037  -13.2631 C   0  0  0  0  0  0  0  0  0  0  0  0
   47.9563   12.7787  -12.9948 C   0  0  0  0  0  0  0  0  0  0  0  0
   48.3740   11.8574  -13.9310 O   0  0  0  0  0  0  0  0  0  0  0  0
   48.1419   10.9588  -13.5881 H   0  0  0  0  0  0  0  0  0  0  0  0
   48.2864   12.3386  -11.6202 C   0  0  0  0  0  0  0  0  0  0  0  0
   47.9429   11.0063  -11.2208 N   0  0  0  0  0  0  0  0  0  0  0  0
   48.9435   10.6109  -10.2193 C   0  0  0  0  0  0  0  0  0  0  0  0
   48.6459    9.2864   -9.6131 C   0  0  0  0  0  0  0  0  0  0  0  0
   47.3183    8.8803   -9.8659 O   0  0  0  0  0  0  0  0  0  0  0  0
   46.5413    9.9756   -9.4914 C   0  0  0  0  0  0  0  0  0  0  0  0
   46.6257   10.9916  -10.6265 C   0  0  0  0  0  0  0  0  0  0  0  0
  1  2  1  0  0  0
  2  3  1  0  0  0
  3  4  1  0  0  0
  4  9  1  0  0  0
  9 10  2  0  0  0
 10 11  1  0  0  0
 11 12  2  0  0  0
 11 13  1  0  0  0
 13 14  1  0  0  0
 14 15  2  0  0  0
 15 16  1  0  0  0
 16 17  2  0  0  0
 17 18  1  0  0  0
 17 19  1  0  0  0
 19 20  2  0  0  0
  4  5  2  0  0  0
  5  6  1  0  0  0
  5  7  1  0  0  0
  7 22  1  0  0  0
 22 23  2  0  0  0
 22 24  1  0  0  0
 24 26  1  0  0  0
 26 27  1  0  0  0
 27 28  1  0  0  0
 27 30  1  0  0  0
 30 31  1  0  0  0
 31 32  1  0  0  0
 32 33  1  0  0  0
 33 34  1  0  0  0
 34 35  1  0  0  0
 35 36  1  0  0  0
  7  2  2  0  0  0
 36 31  1  0  0  0
 20 10  1  0  0  0
 20 14  1  0  0  0
  3  8  1  0  0  0
 13 21  1  0  0  0
 24 25  1  0  0  0
 28 29  1  0  0  0
M  END
> <minimizedAffinity>
-9.34537

> <CNNscore>
0.7883448601

> <CNNaffinity>
6.7768731117

> <CNN_VS>
5.3425130844

> <CNNaffinity_variance>
0.2495191991

$$$$
[H]O[C@@]([H])(C([H])([H])N([H])C(=O)c1c(C([H])([H])[H])c(/C([H])=C2\C(=O)N([H])c3c([H])c([H])c(F)c([H])c32)n([H])c1C([H])([H])[H])C([H])([H])N1C([H])([H])C([H])([H])OC([H])([H])C1([H])[H]


 36 39  0  0  0  0  0  0  0  0999 V2000
   44.4934   12.0599  -17.5274 C   0  0  0  0  0  0  0  0  0  0  0  0
   43.3964   12.4763  -16.6145 C   0  0  0  0  0  0  0  0  0  0  0  0
   42.0670   12.1722  -16.8094 N   0  0  0  0  0  0  0  0  0  0  0  0
   41.3499   12.7086  -15.8449 C   0  0  0  0  0  0  0  0  0  0  0  0
   42.2096   13.3664  -15.0163 C   0  0  0  0  0  0  0  0  0  0  0  0
   41.8454   14.1297  -13.7806 C   0  0  0  0  0  0  0  0  0  0  0  0
   43.5496   13.2343  -15.4870 C   0  0  0  0  0  0  0  0  0  0  0  0
   41.7481   11.5987  -17.6421 H   0  0  0  0  0  0  0  0  0  0  0  0
   39.9235   12.6323  -15.6359 C   0  0  0  0  0  0  0  0  0  0  0  0
   39.0677   11.9701  -16.3900 C   0  0  0  0  0  0  0  0  0  0  0  0
   39.3735   11.1793  -17.5729 C   0  0  0  0  0  0  0  0  0  0  0  0
   40.5019   10.9487  -18.0942 O   0  0  0  0  0  0  0  0  0  0  0  0
   38.1093   10.6963  -18.0431 N   0  0  0  0  0  0  0  0  0  0  0  0
   37.0525   11.1509  -17.2080 C   0  0  0  0  0  0  0  0  0  0  0  0
   35.6683   10.9616  -17.2366 C   0  0  0  0  0  0  0  0  0  0  0  0
   34.8709   11.5366  -16.2743 C   0  0  0  0  0  0  0  0  0  0  0  0
   35.3987   12.3081  -15.2626 C   0  0  0  0  0  0  0  0  0  0  0  0
   34.5964   12.8730  -14.3134 F   0  0  0  0  0  0  0  0  0  0  0  0
   36.7657   12.4777  -15.2590 C   0  0  0  0  0  0  0  0  0  0  0  0
   37.6018   11.9188  -16.2057 C   0  0  0  0  0  0  0  0  0  0  0  0
   38.0085   10.0960  -18.8840 H   0  0  0  0  0  0  0  0  0  0  0  0
   44.6925   13.7868  -14.8049 C   0  0  0  0  0  0  0  0  0  0  0  0
   45.0994   14.9328  -15.1910 O   0  0  0  0  0  0  0  0  0  0  0  0
   45.3986   13.2004  -13.7634 N   0  0  0  0  0  0  0  0  0  0  0  0
   45.0123   12.2512  -13.4373 H   0  0  0  0  0  0  0  0  0  0  0  0
   46.5429   13.7294  -13.0855 C   0  0  0  0  0  0  0  0  0  0  0  0
   46.4075   14.5380  -11.8778 C   0  0  0  0  0  0  0  0  0  0  0  0
   46.4528   13.9330  -10.6403 O   0  0  0  0  0  0  0  0  0  0  0  0
   45.5326   13.9298  -10.2769 H   0  0  0  0  0  0  0  0  0  0  0  0
   45.5532   15.7471  -11.8562 C   0  0  0  0  0  0  0  0  0  0  0  0
   45.9697   16.8999  -12.5978 N   0  0  0  0  0  0  0  0  0  0  0  0
   44.9764   17.9459  -12.3158 C   0  0  0  0  0  0  0  0  0  0  0  0
   45.3427   19.2534  -12.9214 C   0  0  0  0  0  0  0  0  0  0  0  0
   46.6971   19.2875  -13.3160 O   0  0  0  0  0  0  0  0  0  0  0  0
   47.3987   18.8522  -12.1927 C   0  0  0  0  0  0  0  0  0  0  0  0
   47.2739   17.3322  -12.1500 C   0  0  0  0  0  0  0  0  0  0  0  0
  1  2  1  0  0  0
  2  3  1  0  0  0
  3  4  1  0  0  0
  4  9  1  0  0  0
  9 10  2  0  0  0
 10 11  1  0  0  0
 11 12  2  0  0  0
 11 13  1  0  0  0
 13 14  1  0  0  0
 14 15  2  0  0  0
 15 16  1  0  0  0
 16 17  2  0  0  0
 17 18  1  0  0  0
 17 19  1  0  0  0
 19 20  2  0  0  0
  4  5  2  0  0  0
  5  6  1  0  0  0
  5  7  1  0  0  0
  7 22  1  0  0  0
 22 23  2  0  0  0
 22 24  1  0  0  0
 24 26  1  0  0  0
 26 27  1  0  0  0
 27 28  1  0  0  0
 27 30  1  0  0  0
 30 31  1  0  0  0
 31 32  1  0  0  0
 32 33  1  0  0  0
 33 34  1  0  0  0
 34 35  1  0  0  0
 35 36  1  0  0  0
  7  2  2  0  0  0
 36 31  1  0  0  0
 20 10  1  0  0  0
 20 14  1  0  0  0
  3  8  1  0  0  0
 13 21  1  0  0  0
 24 25  1  0  0  0
 28 29  1  0  0  0
M  END
> <minimizedAffinity>
-8.96360

> <CNNscore>
0.7648271918

> <CNNaffinity>
6.8192267418

> <CNN_VS>
5.2155299187

> <CNNaffinity_variance>
0.2761266828

$$$$
[H]O[C@@]([H])(C([H])([H])N([H])C(=O)c1c(C([H])([H])[H])c(/C([H])=C2\C(=O)N([H])c3c([H])c([H])c(F)c([H])c32)n([H])c1C([H])([H])[H])C([H])([H])N1C([H])([H])C([H])([H])OC([H])([H])C1([H])[H]


 36 39  0  0  0  0  0  0  0  0999 V2000
   44.6397   12.3503  -16.9414 C   0  0  0  0  0  0  0  0  0  0  0  0
   43.4507   12.7460  -16.1414 C   0  0  0  0  0  0  0  0  0  0  0  0
   42.1677   12.3105  -16.3905 N   0  0  0  0  0  0  0  0  0  0  0  0
   41.3430   12.8632  -15.5266 C   0  0  0  0  0  0  0  0  0  0  0  0
   42.0854   13.6632  -14.7098 C   0  0  0  0  0  0  0  0  0  0  0  0
   41.5737   14.4956  -13.5750 C   0  0  0  0  0  0  0  0  0  0  0  0
   43.4615   13.6093  -15.0812 C   0  0  0  0  0  0  0  0  0  0  0  0
   41.9563   11.6413  -17.1852 H   0  0  0  0  0  0  0  0  0  0  0  0
   39.9165   12.6801  -15.4014 C   0  0  0  0  0  0  0  0  0  0  0  0
   39.1435   12.0369  -16.2548 C   0  0  0  0  0  0  0  0  0  0  0  0
   39.5571   11.3765  -17.4840 C   0  0  0  0  0  0  0  0  0  0  0  0
   40.7219   11.2642  -17.9624 O   0  0  0  0  0  0  0  0  0  0  0  0
   38.3516   10.8605  -18.0611 N   0  0  0  0  0  0  0  0  0  0  0  0
   37.2284   11.1716  -17.2472 C   0  0  0  0  0  0  0  0  0  0  0  0
   35.8628   10.9002  -17.3659 C   0  0  0  0  0  0  0  0  0  0  0  0
   34.9840   11.3356  -16.4012 C   0  0  0  0  0  0  0  0  0  0  0  0
   35.4106   12.0439  -15.2995 C   0  0  0  0  0  0  0  0  0  0  0  0
   34.5282   12.4701  -14.3489 F   0  0  0  0  0  0  0  0  0  0  0  0
   36.7616   12.2968  -15.2083 C   0  0  0  0  0  0  0  0  0  0  0  0
   37.6771   11.8784  -16.1541 C   0  0  0  0  0  0  0  0  0  0  0  0
   38.3312   10.3334  -18.9552 H   0  0  0  0  0  0  0  0  0  0  0  0
   44.5044   14.3171  -14.3825 C   0  0  0  0  0  0  0  0  0  0  0  0
   44.6319   14.0779  -13.1357 O   0  0  0  0  0  0  0  0  0  0  0  0
   45.3918   15.2344  -14.9285 N   0  0  0  0  0  0  0  0  0  0  0  0
   45.2823   15.3902  -15.9868 H   0  0  0  0  0  0  0  0  0  0  0  0
   46.4229   15.9554  -14.2458 C   0  0  0  0  0  0  0  0  0  0  0  0
   47.8355   15.6791  -14.4887 C   0  0  0  0  0  0  0  0  0  0  0  0
   48.3549   15.8322  -15.7561 O   0  0  0  0  0  0  0  0  0  0  0  0
   48.5117   14.9274  -16.1246 H   0  0  0  0  0  0  0  0  0  0  0  0
   48.5508   14.6234  -13.7364 C   0  0  0  0  0  0  0  0  0  0  0  0
   47.8251   13.8500  -12.7731 N   0  0  0  0  0  0  0  0  0  0  0  0
   47.7577   12.4852  -13.3143 C   0  0  0  0  0  0  0  0  0  0  0  0
   47.1365   11.5277  -12.3616 C   0  0  0  0  0  0  0  0  0  0  0  0
   47.0793   12.0527  -11.0530 O   0  0  0  0  0  0  0  0  0  0  0  0
   48.3751   12.5005  -10.7999 C   0  0  0  0  0  0  0  0  0  0  0  0
   48.5313   13.8405  -11.5123 C   0  0  0  0  0  0  0  0  0  0  0  0
  1  2  1  0  0  0
  2  3  1  0  0  0
  3  4  1  0  0  0
  4  9  1  0  0  0
  9 10  2  0  0  0
 10 11  1  0  0  0
 11 12  2  0  0  0
 11 13  1  0  0  0
 13 14  1  0  0  0
 14 15  2  0  0  0
 15 16  1  0  0  0
 16 17  2  0  0  0
 17 18  1  0  0  0
 17 19  1  0  0  0
 19 20  2  0  0  0
  4  5  2  0  0  0
  5  6  1  0  0  0
  5  7  1  0  0  0
  7 22  1  0  0  0
 22 23  2  0  0  0
 22 24  1  0  0  0
 24 26  1  0  0  0
 26 27  1  0  0  0
 27 28  1  0  0  0
 27 30  1  0  0  0
 30 31  1  0  0  0
 31 32  1  0  0  0
 32 33  1  0  0  0
 33 34  1  0  0  0
 34 35  1  0  0  0
 35 36  1  0  0  0
  7  2  2  0  0  0
 36 31  1  0  0  0
 20 10  1  0  0  0
 20 14  1  0  0  0
  3  8  1  0  0  0
 13 21  1  0  0  0
 24 25  1  0  0  0
 28 29  1  0  0  0
M  END
> <minimizedAffinity>
-8.64456

> <CNNscore>
0.7384432554

> <CNNaffinity>
6.7835335732

> <CNN_VS>
5.0092544556

> <CNNaffinity_variance>
0.3449824154

$$$$
[H]O[C@@]([H])(C([H])([H])N([H])C(=O)c1c(C([H])([H])[H])c(/C([H])=C2\C(=O)N([H])c3c([H])c([H])c(F)c([H])c32)n([H])c1C([H])([H])[H])C([H])([H])N1C([H])([H])C([H])([H])OC([H])([H])C1([H])[H]


 36 39  0  0  0  0  0  0  0  0999 V2000
   43.8482   11.9893  -16.9944 C   0  0  0  0  0  0  0  0  0  0  0  0
   42.7047   12.4935  -16.1891 C   0  0  0  0  0  0  0  0  0  0  0  0
   41.3943   12.1134  -16.3790 N   0  0  0  0  0  0  0  0  0  0  0  0
   40.6244   12.7583  -15.5284 C   0  0  0  0  0  0  0  0  0  0  0  0
   41.4304   13.5634  -14.7797 C   0  0  0  0  0  0  0  0  0  0  0  0
   40.9953   14.4861  -13.6835 C   0  0  0  0  0  0  0  0  0  0  0  0
   42.7906   13.4148  -15.1825 C   0  0  0  0  0  0  0  0  0  0  0  0
   41.1258   11.4116  -17.1269 H   0  0  0  0  0  0  0  0  0  0  0  0
   39.1945   12.6591  -15.3561 C   0  0  0  0  0  0  0  0  0  0  0  0
   38.3712   11.9694  -16.1216 C   0  0  0  0  0  0  0  0  0  0  0  0
   38.7227   11.1657  -17.2829 C   0  0  0  0  0  0  0  0  0  0  0  0
   39.8687   10.9476  -17.7703 O   0  0  0  0  0  0  0  0  0  0  0  0
   37.4805   10.6521  -17.7785 N   0  0  0  0  0  0  0  0  0  0  0  0
   36.3937   11.1004  -16.9792 C   0  0  0  0  0  0  0  0  0  0  0  0
   35.0144   10.8853  -17.0414 C   0  0  0  0  0  0  0  0  0  0  0  0
   34.1813   11.4608  -16.1101 C   0  0  0  0  0  0  0  0  0  0  0  0
   34.6679   12.2578  -15.0975 C   0  0  0  0  0  0  0  0  0  0  0  0
   33.8304   12.8229  -14.1793 F   0  0  0  0  0  0  0  0  0  0  0  0
   36.0310   12.4526  -15.0605 C   0  0  0  0  0  0  0  0  0  0  0  0
   36.9020   11.8941  -15.9754 C   0  0  0  0  0  0  0  0  0  0  0  0
   37.4131   10.0368  -18.6118 H   0  0  0  0  0  0  0  0  0  0  0  0
   43.8884   14.1051  -14.5539 C   0  0  0  0  0  0  0  0  0  0  0  0
   44.6574   14.7831  -15.3135 O   0  0  0  0  0  0  0  0  0  0  0  0
   44.1959   14.1121  -13.2002 N   0  0  0  0  0  0  0  0  0  0  0  0
   43.5113   13.5603  -12.5812 H   0  0  0  0  0  0  0  0  0  0  0  0
   45.2895   14.7807  -12.5629 C   0  0  0  0  0  0  0  0  0  0  0  0
   46.2282   14.0619  -11.7069 C   0  0  0  0  0  0  0  0  0  0  0  0
   47.1033   13.1533  -12.2621 O   0  0  0  0  0  0  0  0  0  0  0  0
   46.7861   12.2482  -12.0191 H   0  0  0  0  0  0  0  0  0  0  0  0
   45.8691   13.6870  -10.3203 C   0  0  0  0  0  0  0  0  0  0  0  0
   44.6243   14.1478   -9.7810 N   0  0  0  0  0  0  0  0  0  0  0  0
   43.9954   12.9778   -9.1517 C   0  0  0  0  0  0  0  0  0  0  0  0
   42.7416   13.3264   -8.4328 C   0  0  0  0  0  0  0  0  0  0  0  0
   42.6293   14.7167   -8.2183 O   0  0  0  0  0  0  0  0  0  0  0  0
   43.8486   15.0813   -7.6492 C   0  0  0  0  0  0  0  0  0  0  0  0
   44.8633   15.1677   -8.7853 C   0  0  0  0  0  0  0  0  0  0  0  0
  1  2  1  0  0  0
  2  3  1  0  0  0
  3  4  1  0  0  0
  4  9  1  0  0  0
  9 10  2  0  0  0
 10 11  1  0  0  0
 11 12  2  0  0  0
 11 13  1  0  0  0
 13 14  1  0  0  0
 14 15  2  0  0  0
 15 16  1  0  0  0
 16 17  2  0  0  0
 17 18  1  0  0  0
 17 19  1  0  0  0
 19 20  2  0  0  0
  4  5  2  0  0  0
  5  6  1  0  0  0
  5  7  1  0  0  0
  7 22  1  0  0  0
 22 23  2  0  0  0
 22 24  1  0  0  0
 24 26  1  0  0  0
 26 27  1  0  0  0
 27 28  1  0  0  0
 27 30  1  0  0  0
 30 31  1  0  0  0
 31 32  1  0  0  0
 32 33  1  0  0  0
 33 34  1  0  0  0
 34 35  1  0  0  0
 35 36  1  0  0  0
  7  2  2  0  0  0
 36 31  1  0  0  0
 20 10  1  0  0  0
 20 14  1  0  0  0
  3  8  1  0  0  0
 13 21  1  0  0  0
 24 25  1  0  0  0
 28 29  1  0  0  0
M  END
> <minimizedAffinity>
-8.30009

> <CNNscore>
0.6787315607

> <CNNaffinity>
6.8077216148

> <CNN_VS>
4.6206154823

> <CNNaffinity_variance>
0.2460395098

$$$$
[H]O[C@@]([H])(C([H])([H])N([H])C(=O)c1c(C([H])([H])[H])c(/C([H])=C2\C(=O)N([H])c3c([H])c([H])c(F)c([H])c32)n([H])c1C([H])([H])[H])C([H])([H])N1C([H])([H])C([H])([H])OC([H])([H])C1([H])[H]


 36 39  0  0  0  0  0  0  0  0999 V2000
   39.1282   16.4028  -10.4926 C   0  0  0  0  0  0  0  0  0  0  0  0
   38.4107   15.3922  -11.3138 C   0  0  0  0  0  0  0  0  0  0  0  0
   38.8863   14.8757  -12.4989 N   0  0  0  0  0  0  0  0  0  0  0  0
   38.0064   14.0302  -12.9918 C   0  0  0  0  0  0  0  0  0  0  0  0
   36.9513   13.9922  -12.1294 C   0  0  0  0  0  0  0  0  0  0  0  0
   35.7097   13.1685  -12.2782 C   0  0  0  0  0  0  0  0  0  0  0  0
   37.1822   14.8657  -11.0256 C   0  0  0  0  0  0  0  0  0  0  0  0
   39.8234   15.1744  -12.8948 H   0  0  0  0  0  0  0  0  0  0  0  0
   38.0931   13.2443  -14.1996 C   0  0  0  0  0  0  0  0  0  0  0  0
   39.1630   13.1136  -14.9598 C   0  0  0  0  0  0  0  0  0  0  0  0
   40.4690   13.7182  -14.7437 C   0  0  0  0  0  0  0  0  0  0  0  0
   40.8452   14.4565  -13.7887 O   0  0  0  0  0  0  0  0  0  0  0  0
   41.2697   13.2984  -15.8551 N   0  0  0  0  0  0  0  0  0  0  0  0
   40.5194   12.4703  -16.7339 C   0  0  0  0  0  0  0  0  0  0  0  0
   40.8343   11.8216  -17.9308 C   0  0  0  0  0  0  0  0  0  0  0  0
   39.8844   11.0676  -18.5803 C   0  0  0  0  0  0  0  0  0  0  0  0
   38.6078   10.9260  -18.0828 C   0  0  0  0  0  0  0  0  0  0  0  0
   37.6743   10.1746  -18.7369 F   0  0  0  0  0  0  0  0  0  0  0  0
   38.3254   11.5762  -16.9017 C   0  0  0  0  0  0  0  0  0  0  0  0
   39.2490   12.3428  -16.2184 C   0  0  0  0  0  0  0  0  0  0  0  0
   42.2622   13.5770  -15.9765 H   0  0  0  0  0  0  0  0  0  0  0  0
   36.2660   15.0176   -9.9236 C   0  0  0  0  0  0  0  0  0  0  0  0
   36.4299   14.2428   -8.9232 O   0  0  0  0  0  0  0  0  0  0  0  0
   35.2203   15.9262   -9.8353 N   0  0  0  0  0  0  0  0  0  0  0  0
   35.1278   16.5879  -10.6779 H   0  0  0  0  0  0  0  0  0  0  0  0
   34.2941   16.0799   -8.7548 C   0  0  0  0  0  0  0  0  0  0  0  0
   34.5097   17.0655   -7.7000 C   0  0  0  0  0  0  0  0  0  0  0  0
   33.5139   17.9672   -7.3918 O   0  0  0  0  0  0  0  0  0  0  0  0
   33.7930   18.8496   -7.7415 H   0  0  0  0  0  0  0  0  0  0  0  0
   35.8519   17.6367   -7.4468 C   0  0  0  0  0  0  0  0  0  0  0  0
   36.0745   19.0250   -7.7220 N   0  0  0  0  0  0  0  0  0  0  0  0
   36.3358   19.6607   -6.4229 C   0  0  0  0  0  0  0  0  0  0  0  0
   36.7112   21.0929   -6.5580 C   0  0  0  0  0  0  0  0  0  0  0  0
   37.0713   21.4179   -7.8832 O   0  0  0  0  0  0  0  0  0  0  0  0
   38.0058   20.4465   -8.2388 C   0  0  0  0  0  0  0  0  0  0  0  0
   37.2255   19.1810   -8.5819 C   0  0  0  0  0  0  0  0  0  0  0  0
  1  2  1  0  0  0
  2  3  1  0  0  0
  3  4  1  0  0  0
  4  9  1  0  0  0
  9 10  2  0  0  0
 10 11  1  0  0  0
 11 12  2  0  0  0
 11 13  1  0  0  0
 13 14  1  0  0  0
 14 15  2  0  0  0
 15 16  1  0  0  0
 16 17  2  0  0  0
 17 18  1  0  0  0
 17 19  1  0  0  0
 19 20  2  0  0  0
  4  5  2  0  0  0
  5  6  1  0  0  0
  5  7  1  0  0  0
  7 22  1  0  0  0
 22 23  2  0  0  0
 22 24  1  0  0  0
 24 26  1  0  0  0
 26 27  1  0  0  0
 27 28  1  0  0  0
 27 30  1  0  0  0
 30 31  1  0  0  0
 31 32  1  0  0  0
 32 33  1  0  0  0
 33 34  1  0  0  0
 34 35  1  0  0  0
 35 36  1  0  0  0
  7  2  2  0  0  0
 36 31  1  0  0  0
 20 10  1  0  0  0
 20 14  1  0  0  0
  3  8  1  0  0  0
 13 21  1  0  0  0
 24 25  1  0  0  0
 28 29  1  0  0  0
M  END
> <minimizedAffinity>
-9.24305

> <CNNscore>
0.5000809431

> <CNNaffinity>
6.2887430191

> <CNN_VS>
3.1448805332

> <CNNaffinity_variance>
0.2544036508

$$$$
[H]O[C@@]([H])(C([H])([H])N([H])C(=O)c1c(C([H])([H])[H])c(/C([H])=C2\C(=O)N([H])c3c([H])c([H])c(F)c([H])c32)n([H])c1C([H])([H])[H])C([H])([H])N1C([H])([H])C([H])([H])OC([H])([H])C1([H])[H]


 36 39  0  0  0  0  0  0  0  0999 V2000
   32.8826   15.4868  -11.8621 C   0  0  0  0  0  0  0  0  0  0  0  0
   34.2784   15.0586  -12.1430 C   0  0  0  0  0  0  0  0  0  0  0  0
   34.7048   14.5441  -13.3477 N   0  0  0  0  0  0  0  0  0  0  0  0
   35.9816   14.2363  -13.2642 C   0  0  0  0  0  0  0  0  0  0  0  0
   36.3938   14.5485  -12.0028 C   0  0  0  0  0  0  0  0  0  0  0  0
   37.7729   14.3694  -11.4475 C   0  0  0  0  0  0  0  0  0  0  0  0
   35.3107   15.0872  -11.2470 C   0  0  0  0  0  0  0  0  0  0  0  0
   34.0406   14.4323  -14.1664 H   0  0  0  0  0  0  0  0  0  0  0  0
   36.8436   13.6902  -14.2854 C   0  0  0  0  0  0  0  0  0  0  0  0
   36.5127   12.7561  -15.1557 C   0  0  0  0  0  0  0  0  0  0  0  0
   35.2243   12.0902  -15.2771 C   0  0  0  0  0  0  0  0  0  0  0  0
   34.1721   12.2853  -14.6039 O   0  0  0  0  0  0  0  0  0  0  0  0
   35.3848   11.1453  -16.3419 N   0  0  0  0  0  0  0  0  0  0  0  0
   36.7018   11.2028  -16.8740 C   0  0  0  0  0  0  0  0  0  0  0  0
   37.3457   10.5037  -17.8984 C   0  0  0  0  0  0  0  0  0  0  0  0
   38.6592   10.7763  -18.2032 C   0  0  0  0  0  0  0  0  0  0  0  0
   39.3774   11.7334  -17.5210 C   0  0  0  0  0  0  0  0  0  0  0  0
   40.6804   11.9947  -17.8335 F   0  0  0  0  0  0  0  0  0  0  0  0
   38.7177   12.4069  -16.5166 C   0  0  0  0  0  0  0  0  0  0  0  0
   37.4008   12.1639  -16.1786 C   0  0  0  0  0  0  0  0  0  0  0  0
   34.6238   10.5158  -16.6612 H   0  0  0  0  0  0  0  0  0  0  0  0
   35.4386   15.5491   -9.8880 C   0  0  0  0  0  0  0  0  0  0  0  0
   35.5687   14.6587   -8.9834 O   0  0  0  0  0  0  0  0  0  0  0  0
   35.4386   16.8692   -9.4585 N   0  0  0  0  0  0  0  0  0  0  0  0
   35.3615   17.5976  -10.2458 H   0  0  0  0  0  0  0  0  0  0  0  0
   35.5506   17.3432   -8.1125 C   0  0  0  0  0  0  0  0  0  0  0  0
   34.4106   17.3274   -7.2011 C   0  0  0  0  0  0  0  0  0  0  0  0
   33.5780   18.4233   -7.1273 O   0  0  0  0  0  0  0  0  0  0  0  0
   33.7647   18.8814   -6.2704 H   0  0  0  0  0  0  0  0  0  0  0  0
   34.4724   16.6088   -5.9081 C   0  0  0  0  0  0  0  0  0  0  0  0
   35.4258   15.5509   -5.7512 N   0  0  0  0  0  0  0  0  0  0  0  0
   36.1762   15.8579   -4.5253 C   0  0  0  0  0  0  0  0  0  0  0  0
   37.1281   14.7766   -4.1577 C   0  0  0  0  0  0  0  0  0  0  0  0
   36.8495   13.5764   -4.8457 O   0  0  0  0  0  0  0  0  0  0  0  0
   35.4870   13.3648   -4.6400 C   0  0  0  0  0  0  0  0  0  0  0  0
   34.7422   14.2865   -5.6009 C   0  0  0  0  0  0  0  0  0  0  0  0
  1  2  1  0  0  0
  2  3  1  0  0  0
  3  4  1  0  0  0
  4  9  1  0  0  0
  9 10  2  0  0  0
 10 11  1  0  0  0
 11 12  2  0  0  0
 11 13  1  0  0  0
 13 14  1  0  0  0
 14 15  2  0  0  0
 15 16  1  0  0  0
 16 17  2  0  0  0
 17 18  1  0  0  0
 17 19  1  0  0  0
 19 20  2  0  0  0
  4  5  2  0  0  0
  5  6  1  0  0  0
  5  7  1  0  0  0
  7 22  1  0  0  0
 22 23  2  0  0  0
 22 24  1  0  0  0
 24 26  1  0  0  0
 26 27  1  0  0  0
 27 28  1  0  0  0
 27 30  1  0  0  0
 30 31  1  0  0  0
 31 32  1  0  0  0
 32 33  1  0  0  0
 33 34  1  0  0  0
 34 35  1  0  0  0
 35 36  1  0  0  0
  7  2  2  0  0  0
 36 31  1  0  0  0
 20 10  1  0  0  0
 20 14  1  0  0  0
  3  8  1  0  0  0
 13 21  1  0  0  0
 24 25  1  0  0  0
 28 29  1  0  0  0
M  END
> <minimizedAffinity>
-8.85512

> <CNNscore>
0.3454539776

> <CNNaffinity>
6.2082910538

> <CNN_VS>
2.1446788311

> <CNNaffinity_variance>
0.1448918283

$$$$
[H]O[C@@]([H])(C([H])([H])N([H])C(=O)c1c(C([H])([H])[H])c(/C([H])=C2\C(=O)N([H])c3c([H])c([H])c(F)c([H])c32)n([H])c1C([H])([H])[H])C([H])([H])N1C([H])([H])C([H])([H])OC([H])([H])C1([H])[H]


 36 39  0  0  0  0  0  0  0  0999 V2000
   39.2158   16.4291  -10.5307 C   0  0  0  0  0  0  0  0  0  0  0  0
   38.4730   15.4282  -11.3411 C   0  0  0  0  0  0  0  0  0  0  0  0
   38.9371   14.8845  -12.5187 N   0  0  0  0  0  0  0  0  0  0  0  0
   38.0356   14.0570  -13.0033 C   0  0  0  0  0  0  0  0  0  0  0  0
   36.9781   14.0582  -12.1431 C   0  0  0  0  0  0  0  0  0  0  0  0
   35.7150   13.2664  -12.2849 C   0  0  0  0  0  0  0  0  0  0  0  0
   37.2301   14.9387  -11.0495 C   0  0  0  0  0  0  0  0  0  0  0  0
   39.8827   15.1529  -12.9159 H   0  0  0  0  0  0  0  0  0  0  0  0
   38.1037   13.2542  -14.2012 C   0  0  0  0  0  0  0  0  0  0  0  0
   39.1566   13.1259  -14.9851 C   0  0  0  0  0  0  0  0  0  0  0  0
   40.4593   13.7506  -14.8097 C   0  0  0  0  0  0  0  0  0  0  0  0
   40.8485   14.5079  -13.8751 O   0  0  0  0  0  0  0  0  0  0  0  0
   41.2384   13.3245  -15.9339 N   0  0  0  0  0  0  0  0  0  0  0  0
   40.4783   12.4736  -16.7819 C   0  0  0  0  0  0  0  0  0  0  0  0
   40.7728   11.8111  -17.9765 C   0  0  0  0  0  0  0  0  0  0  0  0
   39.8177   11.0352  -18.5915 C   0  0  0  0  0  0  0  0  0  0  0  0
   38.5554   10.8846  -18.0611 C   0  0  0  0  0  0  0  0  0  0  0  0
   37.6166   10.1114  -18.6812 F   0  0  0  0  0  0  0  0  0  0  0  0
   38.2930   11.5488  -16.8832 C   0  0  0  0  0  0  0  0  0  0  0  0
   39.2225   12.3374  -16.2339 C   0  0  0  0  0  0  0  0  0  0  0  0
   42.2240   13.6140  -16.0835 H   0  0  0  0  0  0  0  0  0  0  0  0
   36.3161   15.1287   -9.9518 C   0  0  0  0  0  0  0  0  0  0  0  0
   36.2337   14.1854   -9.0966 O   0  0  0  0  0  0  0  0  0  0  0  0
   35.5140   16.2388   -9.7248 N   0  0  0  0  0  0  0  0  0  0  0  0
   35.6296   17.0309  -10.4428 H   0  0  0  0  0  0  0  0  0  0  0  0
   34.5918   16.4366   -8.6480 C   0  0  0  0  0  0  0  0  0  0  0  0
   34.9372   17.2532   -7.4885 C   0  0  0  0  0  0  0  0  0  0  0  0
   34.5522   18.5759   -7.4436 O   0  0  0  0  0  0  0  0  0  0  0  0
   35.3615   19.1263   -7.5886 H   0  0  0  0  0  0  0  0  0  0  0  0
   36.1972   17.0326   -6.7430 C   0  0  0  0  0  0  0  0  0  0  0  0
   36.4344   15.7488   -6.1529 N   0  0  0  0  0  0  0  0  0  0  0  0
   37.8741   15.4928   -6.3004 C   0  0  0  0  0  0  0  0  0  0  0  0
   38.3000   14.2416   -5.6195 C   0  0  0  0  0  0  0  0  0  0  0  0
   37.3246   13.7818   -4.7093 O   0  0  0  0  0  0  0  0  0  0  0  0
   37.0226   14.8970   -3.9290 C   0  0  0  0  0  0  0  0  0  0  0  0
   36.0849   15.7760   -4.7509 C   0  0  0  0  0  0  0  0  0  0  0  0
  1  2  1  0  0  0
  2  3  1  0  0  0
  3  4  1  0  0  0
  4  9  1  0  0  0
  9 10  2  0  0  0
 10 11  1  0  0  0
 11 12  2  0  0  0
 11 13  1  0  0  0
 13 14  1  0  0  0
 14 15  2  0  0  0
 15 16  1  0  0  0
 16 17  2  0  0  0
 17 18  1  0  0  0
 17 19  1  0  0  0
 19 20  2  0  0  0
  4  5  2  0  0  0
  5  6  1  0  0  0
  5  7  1  0  0  0
  7 22  1  0  0  0
 22 23  2  0  0  0
 22 24  1  0  0  0
 24 26  1  0  0  0
 26 27  1  0  0  0
 27 28  1  0  0  0
 27 30  1  0  0  0
 30 31  1  0  0  0
 31 32  1  0  0  0
 32 33  1  0  0  0
 33 34  1  0  0  0
 34 35  1  0  0  0
 35 36  1  0  0  0
  7  2  2  0  0  0
 36 31  1  0  0  0
 20 10  1  0  0  0
 20 14  1  0  0  0
  3  8  1  0  0  0
 13 21  1  0  0  0
 24 25  1  0  0  0
 28 29  1  0  0  0
M  END
> <minimizedAffinity>
-9.27134

> <CNNscore>
0.2896406949

> <CNNaffinity>
5.9078125954

> <CNN_VS>
1.7111428976

> <CNNaffinity_variance>
0.2594555914

$$$$
[H]c1nc2c([H])c(OC([H])([H])C([H])([H])C([H])([H])N3C([H])([H])C([H])([H])N(C([H])([H])[H])C([H])([H])C3([H])[H])c(OC([H])([H])[H])c([H])c2c(N([H])c2c([H])c(OC([H])([H])[H])c(Cl)c([H])c2Cl)c1C#N


 37 40  0  0  0  0  0  0  0  0999 V2000
   38.3003   11.8200  -15.6582 C   0  0  0  0  0  0  0  0  0  0  0  0
   37.6383   11.3469  -16.7740 C   0  0  0  0  0  0  0  0  0  0  0  0
   38.3389   11.3955  -17.9804 C   0  0  0  0  0  0  0  0  0  0  0  0
   39.5922   11.8787  -18.0472 N   0  0  0  0  0  0  0  0  0  0  0  0
   40.2175   12.3345  -16.9465 C   0  0  0  0  0  0  0  0  0  0  0  0
   41.5176   12.8425  -16.9804 C   0  0  0  0  0  0  0  0  0  0  0  0
   42.1512   13.3081  -15.8461 C   0  0  0  0  0  0  0  0  0  0  0  0
   41.4977   13.2799  -14.6292 C   0  0  0  0  0  0  0  0  0  0  0  0
   40.2018   12.7788  -14.5674 C   0  0  0  0  0  0  0  0  0  0  0  0
   39.5924   12.3200  -15.7170 C   0  0  0  0  0  0  0  0  0  0  0  0
   37.6152   11.7815  -14.4296 N   0  0  0  0  0  0  0  0  0  0  0  0
   37.3875   10.8695  -13.9786 H   0  0  0  0  0  0  0  0  0  0  0  0
   37.7716   15.0425  -12.5824 C   0  0  0  0  0  0  0  0  0  0  0  0
   38.1063   13.8874  -13.2432 C   0  0  0  0  0  0  0  0  0  0  0  0
   37.2002   12.9782  -13.7438 C   0  0  0  0  0  0  0  0  0  0  0  0
   35.8662   13.2700  -13.5562 C   0  0  0  0  0  0  0  0  0  0  0  0
   34.6193   12.2045  -14.1402 Cl  0  0  0  0  0  0  0  0  0  0  0  0
   35.4675   14.4262  -12.8938 C   0  0  0  0  0  0  0  0  0  0  0  0
   36.4117   15.3024  -12.4124 C   0  0  0  0  0  0  0  0  0  0  0  0
   35.9882   16.7762  -11.5689 Cl  0  0  0  0  0  0  0  0  0  0  0  0
   39.0942   15.7915  -10.7265 C   0  0  0  0  0  0  0  0  0  0  0  0
   38.7217   15.9410  -12.0884 O   0  0  0  0  0  0  0  0  0  0  0  0
   42.1658   13.7526  -13.5280 O   0  0  0  0  0  0  0  0  0  0  0  0
   42.0378   15.0686  -13.0300 C   0  0  0  0  0  0  0  0  0  0  0  0
   36.2926   10.8280  -16.7033 C   0  0  0  0  0  0  0  0  0  0  0  0
   35.2177   10.3937  -16.6513 N   0  0  0  0  0  0  0  0  0  0  0  0
   43.4544   13.8117  -15.9102 O   0  0  0  0  0  0  0  0  0  0  0  0
   44.5857   13.0023  -15.7064 C   0  0  0  0  0  0  0  0  0  0  0  0
   45.3958   13.6316  -14.5923 C   0  0  0  0  0  0  0  0  0  0  0  0
   46.6004   12.7529  -14.3502 C   0  0  0  0  0  0  0  0  0  0  0  0
   47.0036   12.7097  -12.9837 N   0  0  0  0  0  0  0  0  0  0  0  0
   48.1275   11.8429  -12.7214 C   0  0  0  0  0  0  0  0  0  0  0  0
   47.7694   10.7167  -11.7778 C   0  0  0  0  0  0  0  0  0  0  0  0
   47.2793   11.2115  -10.5090 N   0  0  0  0  0  0  0  0  0  0  0  0
   46.3232   10.2337  -10.0023 C   0  0  0  0  0  0  0  0  0  0  0  0
   46.5586   12.4598  -10.6501 C   0  0  0  0  0  0  0  0  0  0  0  0
   45.9426   12.5722  -12.0404 C   0  0  0  0  0  0  0  0  0  0  0  0
 21 22  1  0  0  0
 22 13  1  0  0  0
 13 14  2  0  0  0
 14 15  1  0  0  0
 15 11  1  0  0  0
 11  1  1  0  0  0
  1  2  2  0  0  0
  2  3  1  0  0  0
  3  4  2  0  0  0
  4  5  1  0  0  0
  5  6  2  0  0  0
  6  7  1  0  0  0
  7 27  1  0  0  0
 27 28  1  0  0  0
 28 29  1  0  0  0
 29 30  1  0  0  0
 30 31  1  0  0  0
 31 32  1  0  0  0
 32 33  1  0  0  0
 33 34  1  0  0  0
 34 35  1  0  0  0
 34 36  1  0  0  0
 36 37  1  0  0  0
  7  8  2  0  0  0
  8 23  1  0  0  0
 23 24  1  0  0  0
  8  9  1  0  0  0
  9 10  2  0  0  0
  2 25  1  0  0  0
 25 26  3  0  0  0
 15 16  2  0  0  0
 16 17  1  0  0  0
 16 18  1  0  0  0
 18 19  2  0  0  0
 19 20  1  0  0  0
 19 13  1  0  0  0
 10  1  1  0  0  0
 10  5  1  0  0  0
 37 31  1  0  0  0
 11 12  1  0  0  0
M  END
> <minimizedAffinity>
-7.32083

> <CNNscore>
0.4577065706

> <CNNaffinity>
7.4247155190

> <CNN_VS>
3.3983411789

> <CNNaffinity_variance>
0.0809253603

$$$$
[H]c1nc2c([H])c(OC([H])([H])C([H])([H])C([H])([H])N3C([H])([H])C([H])([H])N(C([H])([H])[H])C([H])([H])C3([H])[H])c(OC([H])([H])[H])c([H])c2c(N([H])c2c([H])c(OC([H])([H])[H])c(Cl)c([H])c2Cl)c1C#N


 37 40  0  0  0  0  0  0  0  0999 V2000
   44.4057   13.2124  -14.7456 C   0  0  0  0  0  0  0  0  0  0  0  0
   45.4423   12.7132  -15.5094 C   0  0  0  0  0  0  0  0  0  0  0  0
   45.0907   12.1133  -16.7197 C   0  0  0  0  0  0  0  0  0  0  0  0
   43.8085   12.0283  -17.1165 N   0  0  0  0  0  0  0  0  0  0  0  0
   42.8146   12.5218  -16.3556 C   0  0  0  0  0  0  0  0  0  0  0  0
   41.4735   12.4505  -16.7372 C   0  0  0  0  0  0  0  0  0  0  0  0
   40.4605   12.9594  -15.9501 C   0  0  0  0  0  0  0  0  0  0  0  0
   40.7601   13.5624  -14.7437 C   0  0  0  0  0  0  0  0  0  0  0  0
   42.0881   13.6469  -14.3396 C   0  0  0  0  0  0  0  0  0  0  0  0
   43.0806   13.1296  -15.1462 C   0  0  0  0  0  0  0  0  0  0  0  0
   44.7344   13.8222  -13.5208 N   0  0  0  0  0  0  0  0  0  0  0  0
   44.9241   13.2429  -12.6749 H   0  0  0  0  0  0  0  0  0  0  0  0
   45.7560   17.3859  -14.0926 C   0  0  0  0  0  0  0  0  0  0  0  0
   45.6297   16.0226  -14.1841 C   0  0  0  0  0  0  0  0  0  0  0  0
   44.8240   15.2523  -13.3744 C   0  0  0  0  0  0  0  0  0  0  0  0
   44.1012   15.9201  -12.4093 C   0  0  0  0  0  0  0  0  0  0  0  0
   43.0449   15.0651  -11.3210 Cl  0  0  0  0  0  0  0  0  0  0  0  0
   44.1890   17.3011  -12.2696 C   0  0  0  0  0  0  0  0  0  0  0  0
   45.0084   18.0251  -13.1034 C   0  0  0  0  0  0  0  0  0  0  0  0
   45.1720   19.7638  -12.9891 Cl  0  0  0  0  0  0  0  0  0  0  0  0
   47.8219   17.5402  -15.3020 C   0  0  0  0  0  0  0  0  0  0  0  0
   46.5854   18.1331  -14.9340 O   0  0  0  0  0  0  0  0  0  0  0  0
   39.7216   14.0545  -13.9939 O   0  0  0  0  0  0  0  0  0  0  0  0
   39.8078   15.2102  -13.1859 C   0  0  0  0  0  0  0  0  0  0  0  0
   46.8193   12.8038  -15.0841 C   0  0  0  0  0  0  0  0  0  0  0  0
   47.9208   12.8894  -14.7291 N   0  0  0  0  0  0  0  0  0  0  0  0
   39.1255   12.8735  -16.3581 O   0  0  0  0  0  0  0  0  0  0  0  0
   38.6634   11.8593  -17.2151 C   0  0  0  0  0  0  0  0  0  0  0  0
   37.5152   11.1643  -16.5135 C   0  0  0  0  0  0  0  0  0  0  0  0
   36.4042   12.1738  -16.3447 C   0  0  0  0  0  0  0  0  0  0  0  0
   35.7357   12.0745  -15.0897 N   0  0  0  0  0  0  0  0  0  0  0  0
   34.3032   12.2342  -15.1636 C   0  0  0  0  0  0  0  0  0  0  0  0
   33.8225   13.4308  -14.3736 C   0  0  0  0  0  0  0  0  0  0  0  0
   34.1918   13.3388  -12.9772 N   0  0  0  0  0  0  0  0  0  0  0  0
   34.3839   14.6995  -12.4889 C   0  0  0  0  0  0  0  0  0  0  0  0
   35.4518   12.6500  -12.7887 C   0  0  0  0  0  0  0  0  0  0  0  0
   36.3381   12.8011  -14.0202 C   0  0  0  0  0  0  0  0  0  0  0  0
 21 22  1  0  0  0
 22 13  1  0  0  0
 13 14  2  0  0  0
 14 15  1  0  0  0
 15 11  1  0  0  0
 11  1  1  0  0  0
  1  2  2  0  0  0
  2  3  1  0  0  0
  3  4  2  0  0  0
  4  5  1  0  0  0
  5  6  2  0  0  0
  6  7  1  0  0  0
  7 27  1  0  0  0
 27 28  1  0  0  0
 28 29  1  0  0  0
 29 30  1  0  0  0
 30 31  1  0  0  0
 31 32  1  0  0  0
 32 33  1  0  0  0
 33 34  1  0  0  0
 34 35  1  0  0  0
 34 36  1  0  0  0
 36 37  1  0  0  0
  7  8  2  0  0  0
  8 23  1  0  0  0
 23 24  1  0  0  0
  8  9  1  0  0  0
  9 10  2  0  0  0
  2 25  1  0  0  0
 25 26  3  0  0  0
 15 16  2  0  0  0
 16 17  1  0  0  0
 16 18  1  0  0  0
 18 19  2  0  0  0
 19 20  1  0  0  0
 19 13  1  0  0  0
 10  1  1  0  0  0
 10  5  1  0  0  0
 37 31  1  0  0  0
 11 12  1  0  0  0
M  END
> <minimizedAffinity>
-8.03127

> <CNNscore>
0.1875502020

> <CNNaffinity>
6.8789954185

> <CNN_VS>
1.2901569605

> <CNNaffinity_variance>
0.2031825483

$$$$
[H]c1nc2c([H])c(OC([H])([H])C([H])([H])C([H])([H])N3C([H])([H])C([H])([H])N(C([H])([H])[H])C([H])([H])C3([H])[H])c(OC([H])([H])[H])c([H])c2c(N([H])c2c([H])c(OC([H])([H])[H])c(Cl)c([H])c2Cl)c1C#N


 37 40  0  0  0  0  0  0  0  0999 V2000
   38.5343   13.1366  -15.1321 C   0  0  0  0  0  0  0  0  0  0  0  0
   37.6953   12.0883  -15.4551 C   0  0  0  0  0  0  0  0  0  0  0  0
   36.7481   11.7306  -14.4943 C   0  0  0  0  0  0  0  0  0  0  0  0
   36.6613   12.3759  -13.3175 N   0  0  0  0  0  0  0  0  0  0  0  0
   37.4897   13.3947  -13.0244 C   0  0  0  0  0  0  0  0  0  0  0  0
   37.4269   14.0859  -11.8129 C   0  0  0  0  0  0  0  0  0  0  0  0
   38.2810   15.1299  -11.5208 C   0  0  0  0  0  0  0  0  0  0  0  0
   39.2349   15.5199  -12.4410 C   0  0  0  0  0  0  0  0  0  0  0  0
   39.3190   14.8483  -13.6559 C   0  0  0  0  0  0  0  0  0  0  0  0
   38.4526   13.8081  -13.9216 C   0  0  0  0  0  0  0  0  0  0  0  0
   39.4981   13.5165  -16.0845 N   0  0  0  0  0  0  0  0  0  0  0  0
   39.2210   14.0581  -16.9313 H   0  0  0  0  0  0  0  0  0  0  0  0
   42.9587   13.2860  -14.6555 C   0  0  0  0  0  0  0  0  0  0  0  0
   41.6305   13.5734  -14.8465 C   0  0  0  0  0  0  0  0  0  0  0  0
   40.8919   13.1829  -15.9420 C   0  0  0  0  0  0  0  0  0  0  0  0
   41.5552   12.4512  -16.9037 C   0  0  0  0  0  0  0  0  0  0  0  0
   40.7379   11.8957  -18.3371 Cl  0  0  0  0  0  0  0  0  0  0  0  0
   42.9012   12.1299  -16.7641 C   0  0  0  0  0  0  0  0  0  0  0  0
   43.5944   12.5438  -15.6510 C   0  0  0  0  0  0  0  0  0  0  0  0
   45.2883   12.1793  -15.4047 Cl  0  0  0  0  0  0  0  0  0  0  0  0
   44.3386   14.9524  -13.6196 C   0  0  0  0  0  0  0  0  0  0  0  0
   43.6743   13.7008  -13.5287 O   0  0  0  0  0  0  0  0  0  0  0  0
   40.0625   16.5626  -12.1085 O   0  0  0  0  0  0  0  0  0  0  0  0
   41.4499   16.5867  -12.3741 C   0  0  0  0  0  0  0  0  0  0  0  0
   37.7879   11.3948  -16.7184 C   0  0  0  0  0  0  0  0  0  0  0  0
   37.8596   10.8541  -17.7426 N   0  0  0  0  0  0  0  0  0  0  0  0
   38.1949   15.8041  -10.2984 O   0  0  0  0  0  0  0  0  0  0  0  0
   37.4969   15.2799   -9.1964 C   0  0  0  0  0  0  0  0  0  0  0  0
   37.4072   16.3767   -8.1560 C   0  0  0  0  0  0  0  0  0  0  0  0
   37.9436   17.6436   -8.7797 C   0  0  0  0  0  0  0  0  0  0  0  0
   37.7448   18.8003   -7.9709 N   0  0  0  0  0  0  0  0  0  0  0  0
   36.7387   18.6459   -6.9476 C   0  0  0  0  0  0  0  0  0  0  0  0
   35.5873   19.6088   -7.1319 C   0  0  0  0  0  0  0  0  0  0  0  0
   36.0296   20.9868   -7.1211 N   0  0  0  0  0  0  0  0  0  0  0  0
   35.1278   21.7386   -7.9862 C   0  0  0  0  0  0  0  0  0  0  0  0
   37.3585   21.1392   -7.6766 C   0  0  0  0  0  0  0  0  0  0  0  0
   37.6517   20.0324   -8.6836 C   0  0  0  0  0  0  0  0  0  0  0  0
 21 22  1  0  0  0
 22 13  1  0  0  0
 13 14  2  0  0  0
 14 15  1  0  0  0
 15 11  1  0  0  0
 11  1  1  0  0  0
  1  2  2  0  0  0
  2  3  1  0  0  0
  3  4  2  0  0  0
  4  5  1  0  0  0
  5  6  2  0  0  0
  6  7  1  0  0  0
  7 27  1  0  0  0
 27 28  1  0  0  0
 28 29  1  0  0  0
 29 30  1  0  0  0
 30 31  1  0  0  0
 31 32  1  0  0  0
 32 33  1  0  0  0
 33 34  1  0  0  0
 34 35  1  0  0  0
 34 36  1  0  0  0
 36 37  1  0  0  0
  7  8  2  0  0  0
  8 23  1  0  0  0
 23 24  1  0  0  0
  8  9  1  0  0  0
  9 10  2  0  0  0
  2 25  1  0  0  0
 25 26  3  0  0  0
 15 16  2  0  0  0
 16 17  1  0  0  0
 16 18  1  0  0  0
 18 19  2  0  0  0
 19 20  1  0  0  0
 19 13  1  0  0  0
 10  1  1  0  0  0
 10  5  1  0  0  0
 37 31  1  0  0  0
 11 12  1  0  0  0
M  END
> <minimizedAffinity>
-7.37632

> <CNNscore>
0.1678331792

> <CNNaffinity>
6.7614812851

> <CNN_VS>
1.1348009109

> <CNNaffinity_variance>
0.0737362355

$$$$
[H]c1nc2c([H])c(OC([H])([H])C([H])([H])C([H])([H])N3C([H])([H])C([H])([H])N(C([H])([H])[H])C([H])([H])C3([H])[H])c(OC([H])([H])[H])c([H])c2c(N([H])c2c([H])c(OC([H])([H])[H])c(Cl)c([H])c2Cl)c1C#N


 37 40  0  0  0  0  0  0  0  0999 V2000
   35.9218   13.2354  -12.8881 C   0  0  0  0  0  0  0  0  0  0  0  0
   34.8262   13.1386  -13.7232 C   0  0  0  0  0  0  0  0  0  0  0  0
   33.7789   14.0291  -13.4815 C   0  0  0  0  0  0  0  0  0  0  0  0
   33.8385   14.9319  -12.4864 N   0  0  0  0  0  0  0  0  0  0  0  0
   34.9165   15.0079  -11.6849 C   0  0  0  0  0  0  0  0  0  0  0  0
   35.0111   15.9327  -10.6432 C   0  0  0  0  0  0  0  0  0  0  0  0
   36.1210   16.0034   -9.8259 C   0  0  0  0  0  0  0  0  0  0  0  0
   37.1826   15.1424  -10.0269 C   0  0  0  0  0  0  0  0  0  0  0  0
   37.1143   14.2114  -11.0578 C   0  0  0  0  0  0  0  0  0  0  0  0
   35.9926   14.1628  -11.8595 C   0  0  0  0  0  0  0  0  0  0  0  0
   36.9911   12.3483  -13.1115 N   0  0  0  0  0  0  0  0  0  0  0  0
   37.1864   11.5747  -12.4404 H   0  0  0  0  0  0  0  0  0  0  0  0
   38.6247   11.6037  -16.4051 C   0  0  0  0  0  0  0  0  0  0  0  0
   37.8270   11.5487  -15.2898 C   0  0  0  0  0  0  0  0  0  0  0  0
   37.8559   12.4610  -14.2578 C   0  0  0  0  0  0  0  0  0  0  0  0
   38.7589   13.4959  -14.3748 C   0  0  0  0  0  0  0  0  0  0  0  0
   38.8962   14.7164  -13.1409 Cl  0  0  0  0  0  0  0  0  0  0  0  0
   39.5929   13.6030  -15.4826 C   0  0  0  0  0  0  0  0  0  0  0  0
   39.5254   12.6658  -16.4865 C   0  0  0  0  0  0  0  0  0  0  0  0
   40.5414   12.7328  -17.9099 Cl  0  0  0  0  0  0  0  0  0  0  0  0
   37.3260   10.5307  -18.1129 C   0  0  0  0  0  0  0  0  0  0  0  0
   38.5656   10.6574  -17.4322 O   0  0  0  0  0  0  0  0  0  0  0  0
   38.2653   15.2484   -9.1908 O   0  0  0  0  0  0  0  0  0  0  0  0
   39.4745   15.8900   -9.5403 C   0  0  0  0  0  0  0  0  0  0  0  0
   34.7612   12.1695  -14.7918 C   0  0  0  0  0  0  0  0  0  0  0  0
   34.6906   11.3875  -15.6463 N   0  0  0  0  0  0  0  0  0  0  0  0
   36.1879   16.9403   -8.7896 O   0  0  0  0  0  0  0  0  0  0  0  0
   36.0024   16.5871   -7.4415 C   0  0  0  0  0  0  0  0  0  0  0  0
   34.5346   16.7801   -7.1224 C   0  0  0  0  0  0  0  0  0  0  0  0
   33.9286   15.4124   -6.9129 C   0  0  0  0  0  0  0  0  0  0  0  0
   32.5086   15.4356   -6.7911 N   0  0  0  0  0  0  0  0  0  0  0  0
   31.8017   15.3595   -8.0472 C   0  0  0  0  0  0  0  0  0  0  0  0
   30.9592   16.5893   -8.3014 C   0  0  0  0  0  0  0  0  0  0  0  0
   29.9860   16.8028   -7.2516 N   0  0  0  0  0  0  0  0  0  0  0  0
   29.7727   18.2414   -7.1439 C   0  0  0  0  0  0  0  0  0  0  0  0
   30.4679   16.3582   -5.9602 C   0  0  0  0  0  0  0  0  0  0  0  0
   31.9902   16.4229   -5.9017 C   0  0  0  0  0  0  0  0  0  0  0  0
 21 22  1  0  0  0
 22 13  1  0  0  0
 13 14  2  0  0  0
 14 15  1  0  0  0
 15 11  1  0  0  0
 11  1  1  0  0  0
  1  2  2  0  0  0
  2  3  1  0  0  0
  3  4  2  0  0  0
  4  5  1  0  0  0
  5  6  2  0  0  0
  6  7  1  0  0  0
  7 27  1  0  0  0
 27 28  1  0  0  0
 28 29  1  0  0  0
 29 30  1  0  0  0
 30 31  1  0  0  0
 31 32  1  0  0  0
 32 33  1  0  0  0
 33 34  1  0  0  0
 34 35  1  0  0  0
 34 36  1  0  0  0
 36 37  1  0  0  0
  7  8  2  0  0  0
  8 23  1  0  0  0
 23 24  1  0  0  0
  8  9  1  0  0  0
  9 10  2  0  0  0
  2 25  1  0  0  0
 25 26  3  0  0  0
 15 16  2  0  0  0
 16 17  1  0  0  0
 16 18  1  0  0  0
 18 19  2  0  0  0
 19 20  1  0  0  0
 19 13  1  0  0  0
 10  1  1  0  0  0
 10  5  1  0  0  0
 37 31  1  0  0  0
 11 12  1  0  0  0
M  END
> <minimizedAffinity>
-7.52698

> <CNNscore>
0.1494573057

> <CNNaffinity>
6.9165201187

> <CNN_VS>
1.0337244272

> <CNNaffinity_variance>
0.1924707890

$$$$
[H]c1nc2c([H])c(OC([H])([H])C([H])([H])C([H])([H])N3C([H])([H])C([H])([H])N(C([H])([H])[H])C([H])([H])C3([H])[H])c(OC([H])([H])[H])c([H])c2c(N([H])c2c([H])c(OC([H])([H])[H])c(Cl)c([H])c2Cl)c1C#N


 37 40  0  0  0  0  0  0  0  0999 V2000
   35.7499   13.1037  -13.0881 C   0  0  0  0  0  0  0  0  0  0  0  0
   34.7213   12.9885  -14.0025 C   0  0  0  0  0  0  0  0  0  0  0  0
   33.6382   13.8524  -13.8328 C   0  0  0  0  0  0  0  0  0  0  0  0
   33.6030   14.7481  -12.8301 N   0  0  0  0  0  0  0  0  0  0  0  0
   34.6169   14.8424  -11.9508 C   0  0  0  0  0  0  0  0  0  0  0  0
   34.6125   15.7604  -10.8989 C   0  0  0  0  0  0  0  0  0  0  0  0
   35.6572   15.8500  -10.0014 C   0  0  0  0  0  0  0  0  0  0  0  0
   36.7509   15.0156  -10.1292 C   0  0  0  0  0  0  0  0  0  0  0  0
   36.7808   14.0919  -11.1684 C   0  0  0  0  0  0  0  0  0  0  0  0
   35.7227   14.0239  -12.0511 C   0  0  0  0  0  0  0  0  0  0  0  0
   36.8535   12.2436  -13.2378 N   0  0  0  0  0  0  0  0  0  0  0  0
   37.0217   11.4741  -12.5547 H   0  0  0  0  0  0  0  0  0  0  0  0
   38.6968   11.5679  -16.4342 C   0  0  0  0  0  0  0  0  0  0  0  0
   37.8280   11.4905  -15.3747 C   0  0  0  0  0  0  0  0  0  0  0  0
   37.7914   12.3792  -14.3225 C   0  0  0  0  0  0  0  0  0  0  0  0
   38.7021   13.4133  -14.3569 C   0  0  0  0  0  0  0  0  0  0  0  0
   38.7612   14.6052  -13.0892 Cl  0  0  0  0  0  0  0  0  0  0  0  0
   39.6068   13.5425  -15.4053 C   0  0  0  0  0  0  0  0  0  0  0  0
   39.6029   12.6284  -16.4326 C   0  0  0  0  0  0  0  0  0  0  0  0
   40.7098   12.7241  -17.7849 Cl  0  0  0  0  0  0  0  0  0  0  0  0
   37.5034   10.5238  -18.2342 C   0  0  0  0  0  0  0  0  0  0  0  0
   38.7029   10.6452  -17.4842 O   0  0  0  0  0  0  0  0  0  0  0  0
   37.7663   15.1397   -9.2147 O   0  0  0  0  0  0  0  0  0  0  0  0
   39.0244   15.7142   -9.5031 C   0  0  0  0  0  0  0  0  0  0  0  0
   34.7583   12.0270  -15.0793 C   0  0  0  0  0  0  0  0  0  0  0  0
   34.7693   11.2508  -15.9418 N   0  0  0  0  0  0  0  0  0  0  0  0
   35.6254   16.7796   -8.9569 O   0  0  0  0  0  0  0  0  0  0  0  0
   34.6704   16.7228   -7.9266 C   0  0  0  0  0  0  0  0  0  0  0  0
   35.2233   15.8141   -6.8486 C   0  0  0  0  0  0  0  0  0  0  0  0
   35.5957   16.6794   -5.6678 C   0  0  0  0  0  0  0  0  0  0  0  0
   36.7119   16.1836   -4.9329 N   0  0  0  0  0  0  0  0  0  0  0  0
   37.9561   16.8605   -5.2105 C   0  0  0  0  0  0  0  0  0  0  0  0
   38.9941   15.9273   -5.7922 C   0  0  0  0  0  0  0  0  0  0  0  0
   39.2759   14.8161   -4.9087 N   0  0  0  0  0  0  0  0  0  0  0  0
   39.6336   13.6766   -5.7456 C   0  0  0  0  0  0  0  0  0  0  0  0
   38.1131   14.4177   -4.1426 C   0  0  0  0  0  0  0  0  0  0  0  0
   36.8304   14.7628   -4.8914 C   0  0  0  0  0  0  0  0  0  0  0  0
 21 22  1  0  0  0
 22 13  1  0  0  0
 13 14  2  0  0  0
 14 15  1  0  0  0
 15 11  1  0  0  0
 11  1  1  0  0  0
  1  2  2  0  0  0
  2  3  1  0  0  0
  3  4  2  0  0  0
  4  5  1  0  0  0
  5  6  2  0  0  0
  6  7  1  0  0  0
  7 27  1  0  0  0
 27 28  1  0  0  0
 28 29  1  0  0  0
 29 30  1  0  0  0
 30 31  1  0  0  0
 31 32  1  0  0  0
 32 33  1  0  0  0
 33 34  1  0  0  0
 34 35  1  0  0  0
 34 36  1  0  0  0
 36 37  1  0  0  0
  7  8  2  0  0  0
  8 23  1  0  0  0
 23 24  1  0  0  0
  8  9  1  0  0  0
  9 10  2  0  0  0
  2 25  1  0  0  0
 25 26  3  0  0  0
 15 16  2  0  0  0
 16 17  1  0  0  0
 16 18  1  0  0  0
 18 19  2  0  0  0
 19 20  1  0  0  0
 19 13  1  0  0  0
 10  1  1  0  0  0
 10  5  1  0  0  0
 37 31  1  0  0  0
 11 12  1  0  0  0
M  END
> <minimizedAffinity>
-7.44908

> <CNNscore>
0.1465610415

> <CNNaffinity>
6.7153458595

> <CNN_VS>
0.9842081070

> <CNNaffinity_variance>
0.2803554535

$$$$
[H]c1nc2c([H])c(OC([H])([H])C([H])([H])C([H])([H])N3C([H])([H])C([H])([H])N(C([H])([H])[H])C([H])([H])C3([H])[H])c(OC([H])([H])[H])c([H])c2c(N([H])c2c([H])c(OC([H])([H])[H])c(Cl)c([H])c2Cl)c1C#N


 37 40  0  0  0  0  0  0  0  0999 V2000
   44.0430   13.5375  -15.1347 C   0  0  0  0  0  0  0  0  0  0  0  0
   45.1430   12.9489  -15.7269 C   0  0  0  0  0  0  0  0  0  0  0  0
   44.8842   12.0293  -16.7446 C   0  0  0  0  0  0  0  0  0  0  0  0
   43.6281   11.7353  -17.1246 N   0  0  0  0  0  0  0  0  0  0  0  0
   42.5713   12.3214  -16.5329 C   0  0  0  0  0  0  0  0  0  0  0  0
   41.2548   12.0393  -16.9027 C   0  0  0  0  0  0  0  0  0  0  0  0
   40.1768   12.6453  -16.2900 C   0  0  0  0  0  0  0  0  0  0  0  0
   40.3835   13.5624  -15.2777 C   0  0  0  0  0  0  0  0  0  0  0  0
   41.6851   13.8618  -14.8899 C   0  0  0  0  0  0  0  0  0  0  0  0
   42.7442   13.2409  -15.5194 C   0  0  0  0  0  0  0  0  0  0  0  0
   44.2777   14.4684  -14.1058 N   0  0  0  0  0  0  0  0  0  0  0  0
   44.5718   15.4431  -14.3306 H   0  0  0  0  0  0  0  0  0  0  0  0
   44.5535   12.6046  -10.8622 C   0  0  0  0  0  0  0  0  0  0  0  0
   44.6640   12.9799  -12.1775 C   0  0  0  0  0  0  0  0  0  0  0  0
   44.1267   14.1295  -12.7141 C   0  0  0  0  0  0  0  0  0  0  0  0
   43.4319   14.9474  -11.8491 C   0  0  0  0  0  0  0  0  0  0  0  0
   42.7036   16.4301  -12.3992 Cl  0  0  0  0  0  0  0  0  0  0  0  0
   43.2873   14.6184  -10.5055 C   0  0  0  0  0  0  0  0  0  0  0  0
   43.8429   13.4586  -10.0186 C   0  0  0  0  0  0  0  0  0  0  0  0
   43.7035   12.9770   -8.3419 Cl  0  0  0  0  0  0  0  0  0  0  0  0
   46.0944   10.7903  -11.1593 C   0  0  0  0  0  0  0  0  0  0  0  0
   45.1136   11.4286  -10.3552 O   0  0  0  0  0  0  0  0  0  0  0  0
   39.2828   14.1404  -14.6971 O   0  0  0  0  0  0  0  0  0  0  0  0
   39.3181   14.8707  -13.4882 C   0  0  0  0  0  0  0  0  0  0  0  0
   46.4922   13.2638  -15.3195 C   0  0  0  0  0  0  0  0  0  0  0  0
   47.5739   13.5062  -14.9764 N   0  0  0  0  0  0  0  0  0  0  0  0
   38.8685   12.3430  -16.6814 O   0  0  0  0  0  0  0  0  0  0  0  0
   38.4543   11.0324  -16.9767 C   0  0  0  0  0  0  0  0  0  0  0  0
   36.9570   11.0721  -17.2003 C   0  0  0  0  0  0  0  0  0  0  0  0
   36.4277   12.3190  -16.5318 C   0  0  0  0  0  0  0  0  0  0  0  0
   35.7653   12.0608  -15.2964 N   0  0  0  0  0  0  0  0  0  0  0  0
   34.3312   11.9377  -15.4038 C   0  0  0  0  0  0  0  0  0  0  0  0
   33.6077   12.9977  -14.6038 C   0  0  0  0  0  0  0  0  0  0  0  0
   33.9580   12.9470  -13.2004 N   0  0  0  0  0  0  0  0  0  0  0  0
   33.8680   14.3070  -12.6816 C   0  0  0  0  0  0  0  0  0  0  0  0
   35.3246   12.5148  -12.9929 C   0  0  0  0  0  0  0  0  0  0  0  0
   36.1898   12.8661  -14.1983 C   0  0  0  0  0  0  0  0  0  0  0  0
 21 22  1  0  0  0
 22 13  1  0  0  0
 13 14  2  0  0  0
 14 15  1  0  0  0
 15 11  1  0  0  0
 11  1  1  0  0  0
  1  2  2  0  0  0
  2  3  1  0  0  0
  3  4  2  0  0  0
  4  5  1  0  0  0
  5  6  2  0  0  0
  6  7  1  0  0  0
  7 27  1  0  0  0
 27 28  1  0  0  0
 28 29  1  0  0  0
 29 30  1  0  0  0
 30 31  1  0  0  0
 31 32  1  0  0  0
 32 33  1  0  0  0
 33 34  1  0  0  0
 34 35  1  0  0  0
 34 36  1  0  0  0
 36 37  1  0  0  0
  7  8  2  0  0  0
  8 23  1  0  0  0
 23 24  1  0  0  0
  8  9  1  0  0  0
  9 10  2  0  0  0
  2 25  1  0  0  0
 25 26  3  0  0  0
 15 16  2  0  0  0
 16 17  1  0  0  0
 16 18  1  0  0  0
 18 19  2  0  0  0
 19 20  1  0  0  0
 19 13  1  0  0  0
 10  1  1  0  0  0
 10  5  1  0  0  0
 37 31  1  0  0  0
 11 12  1  0  0  0
M  END
> <minimizedAffinity>
-7.67991

> <CNNscore>
0.1327204108

> <CNNaffinity>
6.8302583694

> <CNN_VS>
0.9065147042

> <CNNaffinity_variance>
0.3414528072

$$$$
[H]c1nc2c([H])c(OC([H])([H])C([H])([H])C([H])([H])N3C([H])([H])C([H])([H])N(C([H])([H])[H])C([H])([H])C3([H])[H])c(OC([H])([H])[H])c([H])c2c(N([H])c2c([H])c(OC([H])([H])[H])c(Cl)c([H])c2Cl)c1C#N


 37 40  0  0  0  0  0  0  0  0999 V2000
   38.7717   13.1462  -15.2074 C   0  0  0  0  0  0  0  0  0  0  0  0
   37.8983   12.1088  -15.4685 C   0  0  0  0  0  0  0  0  0  0  0  0
   36.9477   11.8332  -14.4843 C   0  0  0  0  0  0  0  0  0  0  0  0
   36.8896   12.5433  -13.3436 N   0  0  0  0  0  0  0  0  0  0  0  0
   37.7514   13.5500  -13.1108 C   0  0  0  0  0  0  0  0  0  0  0  0
   37.7190   14.3070  -11.9381 C   0  0  0  0  0  0  0  0  0  0  0  0
   38.6071   15.3379  -11.7077 C   0  0  0  0  0  0  0  0  0  0  0  0
   39.5657   15.6478  -12.6531 C   0  0  0  0  0  0  0  0  0  0  0  0
   39.6200   14.9095  -13.8304 C   0  0  0  0  0  0  0  0  0  0  0  0
   38.7198   13.8841  -14.0345 C   0  0  0  0  0  0  0  0  0  0  0  0
   39.7397   13.4439  -16.1845 N   0  0  0  0  0  0  0  0  0  0  0  0
   39.4627   13.8881  -17.0863 H   0  0  0  0  0  0  0  0  0  0  0  0
   43.1782   13.4091  -14.6859 C   0  0  0  0  0  0  0  0  0  0  0  0
   41.8476   13.6489  -14.9205 C   0  0  0  0  0  0  0  0  0  0  0  0
   41.1379   13.1557  -15.9934 C   0  0  0  0  0  0  0  0  0  0  0  0
   41.8345   12.3664  -16.8832 C   0  0  0  0  0  0  0  0  0  0  0  0
   41.0559   11.6803  -18.2811 Cl  0  0  0  0  0  0  0  0  0  0  0  0
   43.1847   12.0892  -16.6968 C   0  0  0  0  0  0  0  0  0  0  0  0
   43.8482   12.6060  -15.6089 C   0  0  0  0  0  0  0  0  0  0  0  0
   45.5452   12.3023  -15.3071 Cl  0  0  0  0  0  0  0  0  0  0  0  0
   43.6378   13.2937  -12.3343 C   0  0  0  0  0  0  0  0  0  0  0  0
   43.8640   13.9284  -13.5841 O   0  0  0  0  0  0  0  0  0  0  0  0
   40.4276   16.6805  -12.3822 O   0  0  0  0  0  0  0  0  0  0  0  0
   41.8352   16.5602  -12.3971 C   0  0  0  0  0  0  0  0  0  0  0  0
   37.9600   11.3458  -16.6929 C   0  0  0  0  0  0  0  0  0  0  0  0
   38.0216   10.7203  -17.6684 N   0  0  0  0  0  0  0  0  0  0  0  0
   38.5510   16.0794  -10.5231 O   0  0  0  0  0  0  0  0  0  0  0  0
   38.2911   15.4867   -9.2750 C   0  0  0  0  0  0  0  0  0  0  0  0
   39.6276   15.1364   -8.6549 C   0  0  0  0  0  0  0  0  0  0  0  0
   39.3626   14.6122   -7.2632 C   0  0  0  0  0  0  0  0  0  0  0  0
   40.4682   13.9072   -6.7043 N   0  0  0  0  0  0  0  0  0  0  0  0
   41.5060   14.7552   -6.1686 C   0  0  0  0  0  0  0  0  0  0  0  0
   42.8244   14.5622   -6.8839 C   0  0  0  0  0  0  0  0  0  0  0  0
   43.2827   13.1913   -6.8094 N   0  0  0  0  0  0  0  0  0  0  0  0
   44.0409   12.9209   -8.0255 C   0  0  0  0  0  0  0  0  0  0  0  0
   42.1843   12.2476   -6.7883 C   0  0  0  0  0  0  0  0  0  0  0  0
   40.9626   12.8268   -7.4934 C   0  0  0  0  0  0  0  0  0  0  0  0
 21 22  1  0  0  0
 22 13  1  0  0  0
 13 14  2  0  0  0
 14 15  1  0  0  0
 15 11  1  0  0  0
 11  1  1  0  0  0
  1  2  2  0  0  0
  2  3  1  0  0  0
  3  4  2  0  0  0
  4  5  1  0  0  0
  5  6  2  0  0  0
  6  7  1  0  0  0
  7 27  1  0  0  0
 27 28  1  0  0  0
 28 29  1  0  0  0
 29 30  1  0  0  0
 30 31  1  0  0  0
 31 32  1  0  0  0
 32 33  1  0  0  0
 33 34  1  0  0  0
 34 35  1  0  0  0
 34 36  1  0  0  0
 36 37  1  0  0  0
  7  8  2  0  0  0
  8 23  1  0  0  0
 23 24  1  0  0  0
  8  9  1  0  0  0
  9 10  2  0  0  0
  2 25  1  0  0  0
 25 26  3  0  0  0
 15 16  2  0  0  0
 16 17  1  0  0  0
 16 18  1  0  0  0
 18 19  2  0  0  0
 19 20  1  0  0  0
 19 13  1  0  0  0
 10  1  1  0  0  0
 10  5  1  0  0  0
 37 31  1  0  0  0
 11 12  1  0  0  0
M  END
> <minimizedAffinity>
-7.32419

> <CNNscore>
0.1215443984

> <CNNaffinity>
6.4028792381

> <CNN_VS>
0.7782341242

> <CNNaffinity_variance>
0.5711132288

$$$$
[H]c1nc2c([H])c(OC([H])([H])C([H])([H])C([H])([H])N3C([H])([H])C([H])([H])N(C([H])([H])[H])C([H])([H])C3([H])[H])c(OC([H])([H])[H])c([H])c2c(N([H])c2c([H])c(OC([H])([H])[H])c(Cl)c([H])c2Cl)c1C#N


 37 40  0  0  0  0  0  0  0  0999 V2000
   36.8839   11.9573  -15.1196 C   0  0  0  0  0  0  0  0  0  0  0  0
   36.0541   11.4263  -16.0874 C   0  0  0  0  0  0  0  0  0  0  0  0
   36.6040   11.2694  -17.3607 C   0  0  0  0  0  0  0  0  0  0  0  0
   37.8754   11.6186  -17.6259 N   0  0  0  0  0  0  0  0  0  0  0  0
   38.6656   12.1343  -16.6668 C   0  0  0  0  0  0  0  0  0  0  0  0
   39.9893   12.5072  -16.9079 C   0  0  0  0  0  0  0  0  0  0  0  0
   40.7927   13.0356  -15.9178 C   0  0  0  0  0  0  0  0  0  0  0  0
   40.2922   13.2094  -14.6419 C   0  0  0  0  0  0  0  0  0  0  0  0
   38.9767   12.8461  -14.3746 C   0  0  0  0  0  0  0  0  0  0  0  0
   38.1960   12.3204  -15.3833 C   0  0  0  0  0  0  0  0  0  0  0  0
   36.3527   12.1254  -13.8273 N   0  0  0  0  0  0  0  0  0  0  0  0
   35.9150   11.3226  -13.3262 H   0  0  0  0  0  0  0  0  0  0  0  0
   37.4811   14.9148  -11.5876 C   0  0  0  0  0  0  0  0  0  0  0  0
   37.3964   13.7262  -12.2680 C   0  0  0  0  0  0  0  0  0  0  0  0
   36.3853   13.3919  -13.1422 C   0  0  0  0  0  0  0  0  0  0  0  0
   35.3979   14.3346  -13.3323 C   0  0  0  0  0  0  0  0  0  0  0  0
   34.0637   14.0379  -14.4108 Cl  0  0  0  0  0  0  0  0  0  0  0  0
   35.4312   15.5571  -12.6699 C   0  0  0  0  0  0  0  0  0  0  0  0
   36.4629   15.8427  -11.8067 C   0  0  0  0  0  0  0  0  0  0  0  0
   36.5737   17.3576  -10.9373 Cl  0  0  0  0  0  0  0  0  0  0  0  0
   38.3120   14.9126   -9.3373 C   0  0  0  0  0  0  0  0  0  0  0  0
   38.5244   15.2171  -10.7077 O   0  0  0  0  0  0  0  0  0  0  0  0
   41.1263   13.7379  -13.6891 O   0  0  0  0  0  0  0  0  0  0  0  0
   41.0256   15.0572  -13.1939 C   0  0  0  0  0  0  0  0  0  0  0  0
   34.6888   11.0512  -15.8036 C   0  0  0  0  0  0  0  0  0  0  0  0
   33.5899   10.7432  -15.5935 N   0  0  0  0  0  0  0  0  0  0  0  0
   42.1155   13.4005  -16.1885 O   0  0  0  0  0  0  0  0  0  0  0  0
   43.1427   12.4525  -16.3390 C   0  0  0  0  0  0  0  0  0  0  0  0
   44.4555   13.2075  -16.3482 C   0  0  0  0  0  0  0  0  0  0  0  0
   45.3917   12.5085  -15.3908 C   0  0  0  0  0  0  0  0  0  0  0  0
   45.8629   13.3523  -14.3431 N   0  0  0  0  0  0  0  0  0  0  0  0
   45.3931   12.9879  -13.0279 C   0  0  0  0  0  0  0  0  0  0  0  0
   44.5626   14.0828  -12.3967 C   0  0  0  0  0  0  0  0  0  0  0  0
   45.3019   15.3217  -12.2812 N   0  0  0  0  0  0  0  0  0  0  0  0
   44.3405   16.4125  -12.3939 C   0  0  0  0  0  0  0  0  0  0  0  0
   46.2520   15.4946  -13.3606 C   0  0  0  0  0  0  0  0  0  0  0  0
   45.7898   14.7517  -14.6094 C   0  0  0  0  0  0  0  0  0  0  0  0
 21 22  1  0  0  0
 22 13  1  0  0  0
 13 14  2  0  0  0
 14 15  1  0  0  0
 15 11  1  0  0  0
 11  1  1  0  0  0
  1  2  2  0  0  0
  2  3  1  0  0  0
  3  4  2  0  0  0
  4  5  1  0  0  0
  5  6  2  0  0  0
  6  7  1  0  0  0
  7 27  1  0  0  0
 27 28  1  0  0  0
 28 29  1  0  0  0
 29 30  1  0  0  0
 30 31  1  0  0  0
 31 32  1  0  0  0
 32 33  1  0  0  0
 33 34  1  0  0  0
 34 35  1  0  0  0
 34 36  1  0  0  0
 36 37  1  0  0  0
  7  8  2  0  0  0
  8 23  1  0  0  0
 23 24  1  0  0  0
  8  9  1  0  0  0
  9 10  2  0  0  0
  2 25  1  0  0  0
 25 26  3  0  0  0
 15 16  2  0  0  0
 16 17  1  0  0  0
 16 18  1  0  0  0
 18 19  2  0  0  0
 19 20  1  0  0  0
 19 13  1  0  0  0
 10  1  1  0  0  0
 10  5  1  0  0  0
 37 31  1  0  0  0
 11 12  1  0  0  0
M  END
> <minimizedAffinity>
-6.99692

> <CNNscore>
0.1189916506

> <CNNaffinity>
7.0184516907

> <CNN_VS>
0.8351371288

> <CNNaffinity_variance>
0.1002150550

$$$$
[H]c1nc2c([H])c(OC([H])([H])C([H])([H])C([H])([H])N3C([H])([H])C([H])([H])N(C([H])([H])[H])C([H])([H])C3([H])[H])c(OC([H])([H])[H])c([H])c2c(N([H])c2c([H])c(OC([H])([H])[H])c(Cl)c([H])c2Cl)c1C#N


 37 40  0  0  0  0  0  0  0  0999 V2000
   39.0460   13.6597  -14.5915 C   0  0  0  0  0  0  0  0  0  0  0  0
   38.8356   12.5322  -15.3607 C   0  0  0  0  0  0  0  0  0  0  0  0
   37.7533   11.7271  -15.0018 C   0  0  0  0  0  0  0  0  0  0  0  0
   36.9603   12.0374  -13.9608 N   0  0  0  0  0  0  0  0  0  0  0  0
   37.1845   13.1414  -13.2252 C   0  0  0  0  0  0  0  0  0  0  0  0
   36.3813   13.4929  -12.1387 C   0  0  0  0  0  0  0  0  0  0  0  0
   36.6190   14.6274  -11.3896 C   0  0  0  0  0  0  0  0  0  0  0  0
   37.6786   15.4551  -11.7071 C   0  0  0  0  0  0  0  0  0  0  0  0
   38.4945   15.1283  -12.7849 C   0  0  0  0  0  0  0  0  0  0  0  0
   38.2339   13.9880  -13.5164 C   0  0  0  0  0  0  0  0  0  0  0  0
   40.1311   14.4879  -14.9333 N   0  0  0  0  0  0  0  0  0  0  0  0
   39.9838   15.3402  -15.5156 H   0  0  0  0  0  0  0  0  0  0  0  0
   43.5937   13.0481  -14.8432 C   0  0  0  0  0  0  0  0  0  0  0  0
   42.3049   13.3542  -15.2018 C   0  0  0  0  0  0  0  0  0  0  0  0
   41.4770   14.2066  -14.5046 C   0  0  0  0  0  0  0  0  0  0  0  0
   42.0017   14.7828  -13.3676 C   0  0  0  0  0  0  0  0  0  0  0  0
   41.0608   15.8789  -12.3958 Cl  0  0  0  0  0  0  0  0  0  0  0  0
   43.3017   14.5099  -12.9554 C   0  0  0  0  0  0  0  0  0  0  0  0
   44.0883   13.6512  -13.6867 C   0  0  0  0  0  0  0  0  0  0  0  0
   45.7320   13.2586  -13.2319 Cl  0  0  0  0  0  0  0  0  0  0  0  0
   44.0032   11.9075  -16.9134 C   0  0  0  0  0  0  0  0  0  0  0  0
   44.4032   12.1770  -15.5780 O   0  0  0  0  0  0  0  0  0  0  0  0
   37.8773   16.5722  -10.9355 O   0  0  0  0  0  0  0  0  0  0  0  0
   38.7544   16.6233   -9.8291 C   0  0  0  0  0  0  0  0  0  0  0  0
   39.6866   12.1982  -16.4785 C   0  0  0  0  0  0  0  0  0  0  0  0
   40.3779   11.9474  -17.3762 N   0  0  0  0  0  0  0  0  0  0  0  0
   35.7973   14.9545  -10.3060 O   0  0  0  0  0  0  0  0  0  0  0  0
   34.6962   15.8198  -10.4297 C   0  0  0  0  0  0  0  0  0  0  0  0
   34.0641   15.9442   -9.0591 C   0  0  0  0  0  0  0  0  0  0  0  0
   32.5661   15.8671   -9.2377 C   0  0  0  0  0  0  0  0  0  0  0  0
   31.8518   15.8110   -8.0056 N   0  0  0  0  0  0  0  0  0  0  0  0
   30.7018   16.6811   -7.9435 C   0  0  0  0  0  0  0  0  0  0  0  0
   30.8321   17.7193   -6.8518 C   0  0  0  0  0  0  0  0  0  0  0  0
   31.0063   17.1132   -5.5491 N   0  0  0  0  0  0  0  0  0  0  0  0
   31.8202   18.0239   -4.7523 C   0  0  0  0  0  0  0  0  0  0  0  0
   31.7339   15.8629   -5.6202 C   0  0  0  0  0  0  0  0  0  0  0  0
   32.6605   15.8469   -6.8312 C   0  0  0  0  0  0  0  0  0  0  0  0
 21 22  1  0  0  0
 22 13  1  0  0  0
 13 14  2  0  0  0
 14 15  1  0  0  0
 15 11  1  0  0  0
 11  1  1  0  0  0
  1  2  2  0  0  0
  2  3  1  0  0  0
  3  4  2  0  0  0
  4  5  1  0  0  0
  5  6  2  0  0  0
  6  7  1  0  0  0
  7 27  1  0  0  0
 27 28  1  0  0  0
 28 29  1  0  0  0
 29 30  1  0  0  0
 30 31  1  0  0  0
 31 32  1  0  0  0
 32 33  1  0  0  0
 33 34  1  0  0  0
 34 35  1  0  0  0
 34 36  1  0  0  0
 36 37  1  0  0  0
  7  8  2  0  0  0
  8 23  1  0  0  0
 23 24  1  0  0  0
  8  9  1  0  0  0
  9 10  2  0  0  0
  2 25  1  0  0  0
 25 26  3  0  0  0
 15 16  2  0  0  0
 16 17  1  0  0  0
 16 18  1  0  0  0
 18 19  2  0  0  0
 19 20  1  0  0  0
 19 13  1  0  0  0
 10  1  1  0  0  0
 10  5  1  0  0  0
 37 31  1  0  0  0
 11 12  1  0  0  0
M  END
> <minimizedAffinity>
-7.26747

> <CNNscore>
0.1175432876

> <CNNaffinity>
6.5546102524

> <CNN_VS>
0.7704504132

> <CNNaffinity_variance>
0.0683944672

$$$$
[H]OC([H])([H])[C@@]1(O[H])C([H])([H])[C@@]2([H])O[C@]1(C([H])([H])[H])n1c3c([H])c([H])c([H])c([H])c3c3c4c(c5c6c([H])c([H])c([H])c([H])c6n2c5c31)C(=O)N([H])C4=O


 37 44  0  0  0  0  0  0  0  0999 V2000
   35.5211   12.6549  -12.3787 C   0  0  0  0  0  0  0  0  0  0  0  0
   36.5482   13.2608  -13.3188 C   0  0  0  0  0  0  0  0  0  0  0  0
   37.7532   12.9388  -12.6395 O   0  0  0  0  0  0  0  0  0  0  0  0
   38.6623   13.9366  -12.8732 C   0  0  0  0  0  0  0  0  0  0  0  0
   37.9234   15.1957  -13.1111 C   0  0  0  0  0  0  0  0  0  0  0  0
   36.5106   14.7407  -13.3926 C   0  0  0  0  0  0  0  0  0  0  0  0
   36.1578   15.2265  -14.6507 O   0  0  0  0  0  0  0  0  0  0  0  0
   39.4886   13.5121  -14.0313 N   0  0  0  0  0  0  0  0  0  0  0  0
   40.7889   13.7058  -14.1952 C   0  0  0  0  0  0  0  0  0  0  0  0
   41.7092   14.3387  -13.3989 C   0  0  0  0  0  0  0  0  0  0  0  0
   43.0175   14.4112  -13.7896 C   0  0  0  0  0  0  0  0  0  0  0  0
   43.4270   13.8543  -14.9789 C   0  0  0  0  0  0  0  0  0  0  0  0
   42.5018   13.2065  -15.8008 C   0  0  0  0  0  0  0  0  0  0  0  0
   41.2045   13.1383  -15.4065 C   0  0  0  0  0  0  0  0  0  0  0  0
   40.0621   12.5808  -15.9775 C   0  0  0  0  0  0  0  0  0  0  0  0
   39.7994   11.8996  -17.1640 C   0  0  0  0  0  0  0  0  0  0  0  0
   40.6724   11.4942  -18.2534 C   0  0  0  0  0  0  0  0  0  0  0  0
   41.9028   11.6332  -18.4576 O   0  0  0  0  0  0  0  0  0  0  0  0
   39.8402   10.8179  -19.2063 N   0  0  0  0  0  0  0  0  0  0  0  0
   38.4765   10.7974  -18.7292 C   0  0  0  0  0  0  0  0  0  0  0  0
   37.5644   10.2532  -19.4028 O   0  0  0  0  0  0  0  0  0  0  0  0
   38.4919   11.4802  -17.4556 C   0  0  0  0  0  0  0  0  0  0  0  0
   37.4865   11.7583  -16.5450 C   0  0  0  0  0  0  0  0  0  0  0  0
   36.1135   11.5374  -16.5150 C   0  0  0  0  0  0  0  0  0  0  0  0
   35.2673   10.9410  -17.4101 C   0  0  0  0  0  0  0  0  0  0  0  0
   33.9001   10.8956  -17.1078 C   0  0  0  0  0  0  0  0  0  0  0  0
   33.4155   11.4285  -15.9568 C   0  0  0  0  0  0  0  0  0  0  0  0
   34.2658   12.0360  -15.0424 C   0  0  0  0  0  0  0  0  0  0  0  0
   35.6134   12.0818  -15.3340 C   0  0  0  0  0  0  0  0  0  0  0  0
   36.6236   12.6263  -14.6271 N   0  0  0  0  0  0  0  0  0  0  0  0
   37.7625   12.4294  -15.3760 C   0  0  0  0  0  0  0  0  0  0  0  0
   39.0453   12.8403  -15.0924 C   0  0  0  0  0  0  0  0  0  0  0  0
   36.5918   16.1335  -14.7293 H   0  0  0  0  0  0  0  0  0  0  0  0
   40.1590   10.3960  -20.1175 H   0  0  0  0  0  0  0  0  0  0  0  0
   35.6033   15.3945  -12.3863 C   0  0  0  0  0  0  0  0  0  0  0  0
   36.1736   16.6413  -12.0443 O   0  0  0  0  0  0  0  0  0  0  0  0
   35.7149   16.9131  -11.1941 H   0  0  0  0  0  0  0  0  0  0  0  0
  2  1  1  0  0  0
  2  3  1  0  0  0
  3  4  1  0  0  0
  4  5  1  0  0  0
  5  6  1  0  0  0
  6  7  1  0  0  0
  6 35  1  0  0  0
 35 36  1  0  0  0
  4  8  1  0  0  0
  8  9  1  0  0  0
  9 10  2  0  0  0
 10 11  1  0  0  0
 11 12  2  0  0  0
 12 13  1  0  0  0
 13 14  2  0  0  0
 14 15  1  0  0  0
 15 16  2  0  0  0
 16 17  1  0  0  0
 17 18  2  0  0  0
 17 19  1  0  0  0
 19 20  1  0  0  0
 20 21  2  0  0  0
 20 22  1  0  0  0
 22 23  2  0  0  0
 23 24  1  0  0  0
 24 25  2  0  0  0
 25 26  1  0  0  0
 26 27  2  0  0  0
 27 28  1  0  0  0
 28 29  2  0  0  0
 29 30  1  0  0  0
 30 31  1  0  0  0
 31 32  2  0  0  0
  6  2  1  0  0  0
 32  8  1  0  0  0
 30  2  1  0  0  0
 14  9  1  0  0  0
 32 15  1  0  0  0
 22 16  1  0  0  0
 31 23  1  0  0  0
 29 24  1  0  0  0
  7 33  1  0  0  0
 36 37  1  0  0  0
 19 34  1  0  0  0
M  END
> <minimizedAffinity>
-12.97942

> <CNNscore>
0.9409025311

> <CNNaffinity>
7.4497976303

> <CNN_VS>
7.0095334053

> <CNNaffinity_variance>
0.0992652848

$$$$
[H]OC([H])([H])[C@@]1(O[H])C([H])([H])[C@@]2([H])O[C@]1(C([H])([H])[H])n1c3c([H])c([H])c([H])c([H])c3c3c4c(c5c6c([H])c([H])c([H])c([H])c6n2c5c31)C(=O)N([H])C4=O


 37 44  0  0  0  0  0  0  0  0999 V2000
   35.2355   12.0998  -13.0850 C   0  0  0  0  0  0  0  0  0  0  0  0
   36.2810   13.1305  -13.4729 C   0  0  0  0  0  0  0  0  0  0  0  0
   37.0624   13.1758  -12.2878 O   0  0  0  0  0  0  0  0  0  0  0  0
   37.5455   14.4486  -12.1356 C   0  0  0  0  0  0  0  0  0  0  0  0
   36.5997   15.3873  -12.7776 C   0  0  0  0  0  0  0  0  0  0  0  0
   35.7483   14.5014  -13.6566 C   0  0  0  0  0  0  0  0  0  0  0  0
   35.8646   14.9733  -14.9632 O   0  0  0  0  0  0  0  0  0  0  0  0
   38.9016   14.4760  -12.7391 N   0  0  0  0  0  0  0  0  0  0  0  0
   39.9612   15.1306  -12.2872 C   0  0  0  0  0  0  0  0  0  0  0  0
   40.1120   15.9503  -11.1978 C   0  0  0  0  0  0  0  0  0  0  0  0
   41.3262   16.5210  -10.9335 C   0  0  0  0  0  0  0  0  0  0  0  0
   42.4066   16.2828  -11.7508 C   0  0  0  0  0  0  0  0  0  0  0  0
   42.2690   15.4504  -12.8641 C   0  0  0  0  0  0  0  0  0  0  0  0
   41.0605   14.8873  -13.1203 C   0  0  0  0  0  0  0  0  0  0  0  0
   40.5987   14.0340  -14.1206 C   0  0  0  0  0  0  0  0  0  0  0  0
   41.1779   13.4444  -15.2421 C   0  0  0  0  0  0  0  0  0  0  0  0
   42.5334   13.4982  -15.7645 C   0  0  0  0  0  0  0  0  0  0  0  0
   43.5746   14.0819  -15.3771 O   0  0  0  0  0  0  0  0  0  0  0  0
   42.5418   12.6868  -16.9477 N   0  0  0  0  0  0  0  0  0  0  0  0
   41.2241   12.1353  -17.1653 C   0  0  0  0  0  0  0  0  0  0  0  0
   40.9914   11.3868  -18.1489 O   0  0  0  0  0  0  0  0  0  0  0  0
   40.4037   12.6297  -16.0832 C   0  0  0  0  0  0  0  0  0  0  0  0
   39.0692   12.4316  -15.7715 C   0  0  0  0  0  0  0  0  0  0  0  0
   38.0222   11.7418  -16.3736 C   0  0  0  0  0  0  0  0  0  0  0  0
   37.9636   10.9932  -17.5178 C   0  0  0  0  0  0  0  0  0  0  0  0
   36.7325   10.4373  -17.8894 C   0  0  0  0  0  0  0  0  0  0  0  0
   35.6175   10.6311  -17.1393 C   0  0  0  0  0  0  0  0  0  0  0  0
   35.6664   11.3893  -15.9770 C   0  0  0  0  0  0  0  0  0  0  0  0
   36.8765   11.9374  -15.6052 C   0  0  0  0  0  0  0  0  0  0  0  0
   37.1734   12.7167  -14.5463 N   0  0  0  0  0  0  0  0  0  0  0  0
   38.5125   13.0186  -14.6585 C   0  0  0  0  0  0  0  0  0  0  0  0
   39.2734   13.8176  -13.8355 C   0  0  0  0  0  0  0  0  0  0  0  0
   35.9241   15.9775  -14.8910 H   0  0  0  0  0  0  0  0  0  0  0  0
   43.3719   12.5106  -17.5718 H   0  0  0  0  0  0  0  0  0  0  0  0
   34.3132   14.6762  -13.2405 C   0  0  0  0  0  0  0  0  0  0  0  0
   33.5282   14.7000  -14.4151 O   0  0  0  0  0  0  0  0  0  0  0  0
   32.6477   15.0896  -14.1321 H   0  0  0  0  0  0  0  0  0  0  0  0
  2  1  1  0  0  0
  2  3  1  0  0  0
  3  4  1  0  0  0
  4  5  1  0  0  0
  5  6  1  0  0  0
  6  7  1  0  0  0
  6 35  1  0  0  0
 35 36  1  0  0  0
  4  8  1  0  0  0
  8  9  1  0  0  0
  9 10  2  0  0  0
 10 11  1  0  0  0
 11 12  2  0  0  0
 12 13  1  0  0  0
 13 14  2  0  0  0
 14 15  1  0  0  0
 15 16  2  0  0  0
 16 17  1  0  0  0
 17 18  2  0  0  0
 17 19  1  0  0  0
 19 20  1  0  0  0
 20 21  2  0  0  0
 20 22  1  0  0  0
 22 23  2  0  0  0
 23 24  1  0  0  0
 24 25  2  0  0  0
 25 26  1  0  0  0
 26 27  2  0  0  0
 27 28  1  0  0  0
 28 29  2  0  0  0
 29 30  1  0  0  0
 30 31  1  0  0  0
 31 32  2  0  0  0
  6  2  1  0  0  0
 32  8  1  0  0  0
 30  2  1  0  0  0
 14  9  1  0  0  0
 32 15  1  0  0  0
 22 16  1  0  0  0
 31 23  1  0  0  0
 29 24  1  0  0  0
  7 33  1  0  0  0
 36 37  1  0  0  0
 19 34  1  0  0  0
M  END
> <minimizedAffinity>
-12.53878

> <CNNscore>
0.7715494037

> <CNNaffinity>
7.1217699051

> <CNN_VS>
5.4947972298

> <CNNaffinity_variance>
0.0830774680

$$$$
[H]OC([H])([H])[C@@]1(O[H])C([H])([H])[C@@]2([H])O[C@]1(C([H])([H])[H])n1c3c([H])c([H])c([H])c([H])c3c3c4c(c5c6c([H])c([H])c([H])c([H])c6n2c5c31)C(=O)N([H])C4=O


 37 44  0  0  0  0  0  0  0  0999 V2000
   36.9264   16.8793  -11.5942 C   0  0  0  0  0  0  0  0  0  0  0  0
   36.9342   15.4373  -12.0697 C   0  0  0  0  0  0  0  0  0  0  0  0
   35.9103   15.4761  -13.0533 O   0  0  0  0  0  0  0  0  0  0  0  0
   35.2805   14.2596  -13.0714 C   0  0  0  0  0  0  0  0  0  0  0  0
   35.3871   13.6581  -11.7244 C   0  0  0  0  0  0  0  0  0  0  0  0
   36.4805   14.4570  -11.0548 C   0  0  0  0  0  0  0  0  0  0  0  0
   37.4738   13.5604  -10.6640 O   0  0  0  0  0  0  0  0  0  0  0  0
   35.9299   13.4475  -14.1311 N   0  0  0  0  0  0  0  0  0  0  0  0
   35.3372   12.6045  -14.9638 C   0  0  0  0  0  0  0  0  0  0  0  0
   34.0218   12.2334  -15.0793 C   0  0  0  0  0  0  0  0  0  0  0  0
   33.6470   11.3293  -16.0343 C   0  0  0  0  0  0  0  0  0  0  0  0
   34.5776   10.7827  -16.8871 C   0  0  0  0  0  0  0  0  0  0  0  0
   35.9210   11.1504  -16.7820 C   0  0  0  0  0  0  0  0  0  0  0  0
   36.2858   12.0486  -15.8316 C   0  0  0  0  0  0  0  0  0  0  0  0
   37.5083   12.6117  -15.4705 C   0  0  0  0  0  0  0  0  0  0  0  0
   38.8184   12.4673  -15.9217 C   0  0  0  0  0  0  0  0  0  0  0  0
   39.3835   11.6616  -16.9915 C   0  0  0  0  0  0  0  0  0  0  0  0
   38.8772   10.8632  -17.8169 O   0  0  0  0  0  0  0  0  0  0  0  0
   40.7937   11.9251  -16.9928 N   0  0  0  0  0  0  0  0  0  0  0  0
   41.1094   12.8737  -15.9497 C   0  0  0  0  0  0  0  0  0  0  0  0
   42.2924   13.2570  -15.7614 O   0  0  0  0  0  0  0  0  0  0  0  0
   39.8543   13.1869  -15.3055 C   0  0  0  0  0  0  0  0  0  0  0  0
   39.5420   14.0312  -14.2533 C   0  0  0  0  0  0  0  0  0  0  0  0
   40.2864   14.8461  -13.4069 C   0  0  0  0  0  0  0  0  0  0  0  0
   41.6293   15.0994  -13.3352 C   0  0  0  0  0  0  0  0  0  0  0  0
   42.0935   15.9613  -12.3330 C   0  0  0  0  0  0  0  0  0  0  0  0
   41.2394   16.5364  -11.4480 C   0  0  0  0  0  0  0  0  0  0  0  0
   39.8751   16.2856  -11.5120 C   0  0  0  0  0  0  0  0  0  0  0  0
   39.4123   15.4393  -12.4983 C   0  0  0  0  0  0  0  0  0  0  0  0
   38.1538   15.0288  -12.7520 N   0  0  0  0  0  0  0  0  0  0  0  0
   38.2426   14.1652  -13.8212 C   0  0  0  0  0  0  0  0  0  0  0  0
   37.2285   13.4580  -14.4264 C   0  0  0  0  0  0  0  0  0  0  0  0
   36.9928   12.7217  -10.3769 H   0  0  0  0  0  0  0  0  0  0  0  0
   41.5023   11.5007  -17.6467 H   0  0  0  0  0  0  0  0  0  0  0  0
   35.9090   15.0692   -9.8051 C   0  0  0  0  0  0  0  0  0  0  0  0
   35.8018   14.0443   -8.8383 O   0  0  0  0  0  0  0  0  0  0  0  0
   35.1766   14.4072   -8.1422 H   0  0  0  0  0  0  0  0  0  0  0  0
  2  1  1  0  0  0
  2  3  1  0  0  0
  3  4  1  0  0  0
  4  5  1  0  0  0
  5  6  1  0  0  0
  6  7  1  0  0  0
  6 35  1  0  0  0
 35 36  1  0  0  0
  4  8  1  0  0  0
  8  9  1  0  0  0
  9 10  2  0  0  0
 10 11  1  0  0  0
 11 12  2  0  0  0
 12 13  1  0  0  0
 13 14  2  0  0  0
 14 15  1  0  0  0
 15 16  2  0  0  0
 16 17  1  0  0  0
 17 18  2  0  0  0
 17 19  1  0  0  0
 19 20  1  0  0  0
 20 21  2  0  0  0
 20 22  1  0  0  0
 22 23  2  0  0  0
 23 24  1  0  0  0
 24 25  2  0  0  0
 25 26  1  0  0  0
 26 27  2  0  0  0
 27 28  1  0  0  0
 28 29  2  0  0  0
 29 30  1  0  0  0
 30 31  1  0  0  0
 31 32  2  0  0  0
  6  2  1  0  0  0
 32  8  1  0  0  0
 30  2  1  0  0  0
 14  9  1  0  0  0
 32 15  1  0  0  0
 22 16  1  0  0  0
 31 23  1  0  0  0
 29 24  1  0  0  0
  7 33  1  0  0  0
 36 37  1  0  0  0
 19 34  1  0  0  0
M  END
> <minimizedAffinity>
-11.60048

> <CNNscore>
0.5897077918

> <CNNaffinity>
6.7845330238

> <CNN_VS>
4.0008921623

> <CNNaffinity_variance>
0.0658093393

$$$$
[H]OC([H])([H])[C@@]1(O[H])C([H])([H])[C@@]2([H])O[C@]1(C([H])([H])[H])n1c3c([H])c([H])c([H])c([H])c3c3c4c(c5c6c([H])c([H])c([H])c([H])c6n2c5c31)C(=O)N([H])C4=O


 37 44  0  0  0  0  0  0  0  0999 V2000
   34.8352   11.6787  -13.7605 C   0  0  0  0  0  0  0  0  0  0  0  0
   35.7862   12.8610  -13.8199 C   0  0  0  0  0  0  0  0  0  0  0  0
   36.2362   12.9081  -12.4736 O   0  0  0  0  0  0  0  0  0  0  0  0
   36.4804   14.2151  -12.1438 C   0  0  0  0  0  0  0  0  0  0  0  0
   35.5986   15.0761  -12.9617 C   0  0  0  0  0  0  0  0  0  0  0  0
   35.1257   14.1642  -14.0694 C   0  0  0  0  0  0  0  0  0  0  0  0
   35.4925   14.7514  -15.2794 O   0  0  0  0  0  0  0  0  0  0  0  0
   37.9254   14.4621  -12.3787 N   0  0  0  0  0  0  0  0  0  0  0  0
   38.7362   15.2062  -11.6409 C   0  0  0  0  0  0  0  0  0  0  0  0
   38.4951   15.9472  -10.5121 C   0  0  0  0  0  0  0  0  0  0  0  0
   39.5125   16.6431   -9.9200 C   0  0  0  0  0  0  0  0  0  0  0  0
   40.7838   16.6100  -10.4442 C   0  0  0  0  0  0  0  0  0  0  0  0
   41.0452   15.8600  -11.5932 C   0  0  0  0  0  0  0  0  0  0  0  0
   40.0303   15.1717  -12.1758 C   0  0  0  0  0  0  0  0  0  0  0  0
   39.9561   14.3510  -13.2996 C   0  0  0  0  0  0  0  0  0  0  0  0
   40.8721   13.9320  -14.2620 C   0  0  0  0  0  0  0  0  0  0  0  0
   42.2926   14.1983  -14.4175 C   0  0  0  0  0  0  0  0  0  0  0  0
   43.1119   14.8753  -13.7501 O   0  0  0  0  0  0  0  0  0  0  0  0
   42.7082   13.4932  -15.5957 N   0  0  0  0  0  0  0  0  0  0  0  0
   41.5775   12.7995  -16.1684 C   0  0  0  0  0  0  0  0  0  0  0  0
   41.7038   12.1099  -17.2126 O   0  0  0  0  0  0  0  0  0  0  0  0
   40.4536   13.0972  -15.3101 C   0  0  0  0  0  0  0  0  0  0  0  0
   39.1257   12.7079  -15.3594 C   0  0  0  0  0  0  0  0  0  0  0  0
   38.3690   11.9427  -16.2407 C   0  0  0  0  0  0  0  0  0  0  0  0
   38.7019   11.2880  -17.3954 C   0  0  0  0  0  0  0  0  0  0  0  0
   37.6927   10.6133  -18.0948 C   0  0  0  0  0  0  0  0  0  0  0  0
   36.4112   10.6036  -17.6465 C   0  0  0  0  0  0  0  0  0  0  0  0
   36.0632   11.2651  -16.4762 C   0  0  0  0  0  0  0  0  0  0  0  0
   37.0533   11.9294  -15.7823 C   0  0  0  0  0  0  0  0  0  0  0  0
   36.9655   12.6514  -14.6476 N   0  0  0  0  0  0  0  0  0  0  0  0
   38.2337   13.1277  -14.3995 C   0  0  0  0  0  0  0  0  0  0  0  0
   38.6461   13.9469  -13.3731 C   0  0  0  0  0  0  0  0  0  0  0  0
   35.3887   15.7459  -15.1476 H   0  0  0  0  0  0  0  0  0  0  0  0
   43.6832   13.4742  -15.9945 H   0  0  0  0  0  0  0  0  0  0  0  0
   33.6225   14.1223  -14.0262 C   0  0  0  0  0  0  0  0  0  0  0  0
   33.1943   15.1100  -13.1110 O   0  0  0  0  0  0  0  0  0  0  0  0
   32.2428   14.8726  -12.8978 H   0  0  0  0  0  0  0  0  0  0  0  0
  2  1  1  0  0  0
  2  3  1  0  0  0
  3  4  1  0  0  0
  4  5  1  0  0  0
  5  6  1  0  0  0
  6  7  1  0  0  0
  6 35  1  0  0  0
 35 36  1  0  0  0
  4  8  1  0  0  0
  8  9  1  0  0  0
  9 10  2  0  0  0
 10 11  1  0  0  0
 11 12  2  0  0  0
 12 13  1  0  0  0
 13 14  2  0  0  0
 14 15  1  0  0  0
 15 16  2  0  0  0
 16 17  1  0  0  0
 17 18  2  0  0  0
 17 19  1  0  0  0
 19 20  1  0  0  0
 20 21  2  0  0  0
 20 22  1  0  0  0
 22 23  2  0  0  0
 23 24  1  0  0  0
 24 25  2  0  0  0
 25 26  1  0  0  0
 26 27  2  0  0  0
 27 28  1  0  0  0
 28 29  2  0  0  0
 29 30  1  0  0  0
 30 31  1  0  0  0
 31 32  2  0  0  0
  6  2  1  0  0  0
 32  8  1  0  0  0
 30  2  1  0  0  0
 14  9  1  0  0  0
 32 15  1  0  0  0
 22 16  1  0  0  0
 31 23  1  0  0  0
 29 24  1  0  0  0
  7 33  1  0  0  0
 36 37  1  0  0  0
 19 34  1  0  0  0
M  END
> <minimizedAffinity>
-11.58819

> <CNNscore>
0.5077230334

> <CNNaffinity>
6.8508024216

> <CNN_VS>
3.4783101082

> <CNNaffinity_variance>
0.1573688090

$$$$
[H]OC([H])([H])[C@@]1(O[H])C([H])([H])[C@@]2([H])O[C@]1(C([H])([H])[H])n1c3c([H])c([H])c([H])c([H])c3c3c4c(c5c6c([H])c([H])c([H])c([H])c6n2c5c31)C(=O)N([H])C4=O


 37 44  0  0  0  0  0  0  0  0999 V2000
   40.9656   14.2959  -17.0193 C   0  0  0  0  0  0  0  0  0  0  0  0
   40.1642   13.8693  -15.8020 C   0  0  0  0  0  0  0  0  0  0  0  0
   39.7061   15.1283  -15.3306 O   0  0  0  0  0  0  0  0  0  0  0  0
   39.6165   15.0731  -13.9647 C   0  0  0  0  0  0  0  0  0  0  0  0
   40.6056   14.0904  -13.4708 C   0  0  0  0  0  0  0  0  0  0  0  0
   40.9795   13.3001  -14.7028 C   0  0  0  0  0  0  0  0  0  0  0  0
   40.7012   11.9597  -14.4400 O   0  0  0  0  0  0  0  0  0  0  0  0
   38.2147   14.7135  -13.6333 N   0  0  0  0  0  0  0  0  0  0  0  0
   37.4899   15.1795  -12.6269 C   0  0  0  0  0  0  0  0  0  0  0  0
   37.8039   16.0697  -11.6317 C   0  0  0  0  0  0  0  0  0  0  0  0
   36.8701   16.3998  -10.6890 C   0  0  0  0  0  0  0  0  0  0  0  0
   35.6108   15.8476  -10.7248 C   0  0  0  0  0  0  0  0  0  0  0  0
   35.2757   14.9395  -11.7319 C   0  0  0  0  0  0  0  0  0  0  0  0
   36.2079   14.6165  -12.6646 C   0  0  0  0  0  0  0  0  0  0  0  0
   36.1972   13.7674  -13.7695 C   0  0  0  0  0  0  0  0  0  0  0  0
   35.2498   12.9173  -14.3356 C   0  0  0  0  0  0  0  0  0  0  0  0
   33.8736   12.6296  -13.9662 C   0  0  0  0  0  0  0  0  0  0  0  0
   33.1332   13.0462  -13.0425 O   0  0  0  0  0  0  0  0  0  0  0  0
   33.3912   11.6741  -14.9215 N   0  0  0  0  0  0  0  0  0  0  0  0
   34.4376   11.3674  -15.8695 C   0  0  0  0  0  0  0  0  0  0  0  0
   34.2426   10.5493  -16.8047 O   0  0  0  0  0  0  0  0  0  0  0  0
   35.5782   12.1605  -15.4714 C   0  0  0  0  0  0  0  0  0  0  0  0
   36.8502   12.2811  -16.0049 C   0  0  0  0  0  0  0  0  0  0  0  0
   37.5206   11.6807  -17.0654 C   0  0  0  0  0  0  0  0  0  0  0  0
   37.1262   10.7375  -17.9752 C   0  0  0  0  0  0  0  0  0  0  0  0
   38.0558   10.2983  -18.9269 C   0  0  0  0  0  0  0  0  0  0  0  0
   39.3211   10.7899  -18.9542 C   0  0  0  0  0  0  0  0  0  0  0  0
   39.7312   11.7467  -18.0352 C   0  0  0  0  0  0  0  0  0  0  0  0
   38.8193   12.1845  -17.0971 C   0  0  0  0  0  0  0  0  0  0  0  0
   38.9789   13.0786  -16.1013 N   0  0  0  0  0  0  0  0  0  0  0  0
   37.7739   13.1275  -15.4360 C   0  0  0  0  0  0  0  0  0  0  0  0
   37.4500   13.8681  -14.3219 C   0  0  0  0  0  0  0  0  0  0  0  0
   40.9221   11.8165  -13.4664 H   0  0  0  0  0  0  0  0  0  0  0  0
   32.4262   11.2520  -14.9420 H   0  0  0  0  0  0  0  0  0  0  0  0
   42.4661   13.4217  -14.8987 C   0  0  0  0  0  0  0  0  0  0  0  0
   43.0615   13.4851  -13.6188 O   0  0  0  0  0  0  0  0  0  0  0  0
   43.9863   13.8403  -13.7789 H   0  0  0  0  0  0  0  0  0  0  0  0
  2  1  1  0  0  0
  2  3  1  0  0  0
  3  4  1  0  0  0
  4  5  1  0  0  0
  5  6  1  0  0  0
  6  7  1  0  0  0
  6 35  1  0  0  0
 35 36  1  0  0  0
  4  8  1  0  0  0
  8  9  1  0  0  0
  9 10  2  0  0  0
 10 11  1  0  0  0
 11 12  2  0  0  0
 12 13  1  0  0  0
 13 14  2  0  0  0
 14 15  1  0  0  0
 15 16  2  0  0  0
 16 17  1  0  0  0
 17 18  2  0  0  0
 17 19  1  0  0  0
 19 20  1  0  0  0
 20 21  2  0  0  0
 20 22  1  0  0  0
 22 23  2  0  0  0
 23 24  1  0  0  0
 24 25  2  0  0  0
 25 26  1  0  0  0
 26 27  2  0  0  0
 27 28  1  0  0  0
 28 29  2  0  0  0
 29 30  1  0  0  0
 30 31  1  0  0  0
 31 32  2  0  0  0
  6  2  1  0  0  0
 32  8  1  0  0  0
 30  2  1  0  0  0
 14  9  1  0  0  0
 32 15  1  0  0  0
 22 16  1  0  0  0
 31 23  1  0  0  0
 29 24  1  0  0  0
  7 33  1  0  0  0
 36 37  1  0  0  0
 19 34  1  0  0  0
M  END
> <minimizedAffinity>
-8.15612

> <CNNscore>
0.4172360301

> <CNNaffinity>
6.8290238380

> <CNN_VS>
2.8493146896

> <CNNaffinity_variance>
0.1040054783

$$$$
[H]OC([H])([H])[C@@]1(O[H])C([H])([H])[C@@]2([H])O[C@]1(C([H])([H])[H])n1c3c([H])c([H])c([H])c([H])c3c3c4c(c5c6c([H])c([H])c([H])c([H])c6n2c5c31)C(=O)N([H])C4=O


 37 44  0  0  0  0  0  0  0  0999 V2000
   45.6175   16.3416  -14.6085 C   0  0  0  0  0  0  0  0  0  0  0  0
   45.7842   16.0378  -13.1300 C   0  0  0  0  0  0  0  0  0  0  0  0
   44.4271   15.9216  -12.7277 O   0  0  0  0  0  0  0  0  0  0  0  0
   44.3188   16.3636  -11.4356 C   0  0  0  0  0  0  0  0  0  0  0  0
   45.3780   17.3675  -11.1948 C   0  0  0  0  0  0  0  0  0  0  0  0
   46.3451   17.1567  -12.3361 C   0  0  0  0  0  0  0  0  0  0  0  0
   47.5922   16.8748  -11.7806 O   0  0  0  0  0  0  0  0  0  0  0  0
   44.4268   15.1724  -10.5561 N   0  0  0  0  0  0  0  0  0  0  0  0
   43.7508   14.9428   -9.4400 C   0  0  0  0  0  0  0  0  0  0  0  0
   42.8141   15.7020   -8.7861 C   0  0  0  0  0  0  0  0  0  0  0  0
   42.2474   15.2431   -7.6294 C   0  0  0  0  0  0  0  0  0  0  0  0
   42.6060   14.0217   -7.1084 C   0  0  0  0  0  0  0  0  0  0  0  0
   43.5586   13.2368   -7.7625 C   0  0  0  0  0  0  0  0  0  0  0  0
   44.1170   13.6988   -8.9105 C   0  0  0  0  0  0  0  0  0  0  0  0
   45.0705   13.1791   -9.7838 C   0  0  0  0  0  0  0  0  0  0  0  0
   45.8265   12.0094   -9.8166 C   0  0  0  0  0  0  0  0  0  0  0  0
   45.8636   10.8633   -8.9232 C   0  0  0  0  0  0  0  0  0  0  0  0
   45.2428   10.5826   -7.8692 O   0  0  0  0  0  0  0  0  0  0  0  0
   46.8350    9.9590   -9.4679 N   0  0  0  0  0  0  0  0  0  0  0  0
   47.3961   10.5213  -10.6748 C   0  0  0  0  0  0  0  0  0  0  0  0
   48.2732    9.9014  -11.3293 O   0  0  0  0  0  0  0  0  0  0  0  0
   46.7434   11.7975  -10.8583 C   0  0  0  0  0  0  0  0  0  0  0  0
   46.8728   12.7684  -11.8370 C   0  0  0  0  0  0  0  0  0  0  0  0
   47.6788   12.9142  -12.9612 C   0  0  0  0  0  0  0  0  0  0  0  0
   48.6462   12.1093  -13.4988 C   0  0  0  0  0  0  0  0  0  0  0  0
   49.3205   12.5504  -14.6449 C   0  0  0  0  0  0  0  0  0  0  0  0
   49.0292   13.7471  -15.2163 C   0  0  0  0  0  0  0  0  0  0  0  0
   48.0496   14.5712  -14.6783 C   0  0  0  0  0  0  0  0  0  0  0  0
   47.3809   14.1409  -13.5510 C   0  0  0  0  0  0  0  0  0  0  0  0
   46.4171   14.7591  -12.8399 N   0  0  0  0  0  0  0  0  0  0  0  0
   46.1167   13.9171  -11.7922 C   0  0  0  0  0  0  0  0  0  0  0  0
   45.2188   14.1232  -10.7695 C   0  0  0  0  0  0  0  0  0  0  0  0
   47.6595   17.4409  -10.9487 H   0  0  0  0  0  0  0  0  0  0  0  0
   47.1081    9.0258   -9.0624 H   0  0  0  0  0  0  0  0  0  0  0  0
   46.4688   18.4554  -13.0854 C   0  0  0  0  0  0  0  0  0  0  0  0
   45.7438   19.4330  -12.3675 O   0  0  0  0  0  0  0  0  0  0  0  0
   45.6118   20.1876  -13.0157 H   0  0  0  0  0  0  0  0  0  0  0  0
  2  1  1  0  0  0
  2  3  1  0  0  0
  3  4  1  0  0  0
  4  5  1  0  0  0
  5  6  1  0  0  0
  6  7  1  0  0  0
  6 35  1  0  0  0
 35 36  1  0  0  0
  4  8  1  0  0  0
  8  9  1  0  0  0
  9 10  2  0  0  0
 10 11  1  0  0  0
 11 12  2  0  0  0
 12 13  1  0  0  0
 13 14  2  0  0  0
 14 15  1  0  0  0
 15 16  2  0  0  0
 16 17  1  0  0  0
 17 18  2  0  0  0
 17 19  1  0  0  0
 19 20  1  0  0  0
 20 21  2  0  0  0
 20 22  1  0  0  0
 22 23  2  0  0  0
 23 24  1  0  0  0
 24 25  2  0  0  0
 25 26  1  0  0  0
 26 27  2  0  0  0
 27 28  1  0  0  0
 28 29  2  0  0  0
 29 30  1  0  0  0
 30 31  1  0  0  0
 31 32  2  0  0  0
  6  2  1  0  0  0
 32  8  1  0  0  0
 30  2  1  0  0  0
 14  9  1  0  0  0
 32 15  1  0  0  0
 22 16  1  0  0  0
 31 23  1  0  0  0
 29 24  1  0  0  0
  7 33  1  0  0  0
 36 37  1  0  0  0
 19 34  1  0  0  0
M  END
> <minimizedAffinity>
-5.99736

> <CNNscore>
0.1634799391

> <CNNaffinity>
4.8046159744

> <CNN_VS>
0.7854583263

> <CNNaffinity_variance>
0.1651660502

$$$$
[H]OC([H])([H])[C@@]1(O[H])C([H])([H])[C@@]2([H])O[C@]1(C([H])([H])[H])n1c3c([H])c([H])c([H])c([H])c3c3c4c(c5c6c([H])c([H])c([H])c([H])c6n2c5c31)C(=O)N([H])C4=O


 37 44  0  0  0  0  0  0  0  0999 V2000
   44.0436   16.4744  -13.0988 C   0  0  0  0  0  0  0  0  0  0  0  0
   42.8327   15.6606  -12.6778 C   0  0  0  0  0  0  0  0  0  0  0  0
   41.8423   16.6761  -12.6045 O   0  0  0  0  0  0  0  0  0  0  0  0
   40.9567   16.3468  -11.6125 C   0  0  0  0  0  0  0  0  0  0  0  0
   41.6672   15.5316  -10.6033 C   0  0  0  0  0  0  0  0  0  0  0  0
   42.9252   15.0891  -11.3134 C   0  0  0  0  0  0  0  0  0  0  0  0
   42.9478   13.6954  -11.2940 O   0  0  0  0  0  0  0  0  0  0  0  0
   39.8263   15.6312  -12.2562 N   0  0  0  0  0  0  0  0  0  0  0  0
   38.5421   15.7283  -11.9452 C   0  0  0  0  0  0  0  0  0  0  0  0
   37.9065   16.4626  -10.9765 C   0  0  0  0  0  0  0  0  0  0  0  0
   36.5468   16.3954  -10.8487 C   0  0  0  0  0  0  0  0  0  0  0  0
   35.8017   15.5960  -11.6841 C   0  0  0  0  0  0  0  0  0  0  0  0
   36.4343   14.8422  -12.6754 C   0  0  0  0  0  0  0  0  0  0  0  0
   37.7846   14.9138  -12.7966 C   0  0  0  0  0  0  0  0  0  0  0  0
   38.6988   14.3064  -13.6553 C   0  0  0  0  0  0  0  0  0  0  0  0
   38.5940   13.3902  -14.6995 C   0  0  0  0  0  0  0  0  0  0  0  0
   37.4384   12.7420  -15.2974 C   0  0  0  0  0  0  0  0  0  0  0  0
   36.2076   12.8039  -15.0601 O   0  0  0  0  0  0  0  0  0  0  0  0
   37.9445   11.9006  -16.3434 N   0  0  0  0  0  0  0  0  0  0  0  0
   39.3836   12.0159  -16.4031 C   0  0  0  0  0  0  0  0  0  0  0  0
   40.0492   11.3657  -17.2493 O   0  0  0  0  0  0  0  0  0  0  0  0
   39.7498   12.9517  -15.3646 C   0  0  0  0  0  0  0  0  0  0  0  0
   40.9776   13.4479  -14.9600 C   0  0  0  0  0  0  0  0  0  0  0  0
   42.2938   13.2204  -15.3479 C   0  0  0  0  0  0  0  0  0  0  0  0
   42.8333   12.4017  -16.3026 C   0  0  0  0  0  0  0  0  0  0  0  0
   44.2270   12.3651  -16.4404 C   0  0  0  0  0  0  0  0  0  0  0  0
   45.0326   13.1197  -15.6499 C   0  0  0  0  0  0  0  0  0  0  0  0
   44.4951   13.9533  -14.6781 C   0  0  0  0  0  0  0  0  0  0  0  0
   43.1232   13.9949  -14.5394 C   0  0  0  0  0  0  0  0  0  0  0  0
   42.3723   14.6988  -13.6691 N   0  0  0  0  0  0  0  0  0  0  0  0
   41.0642   14.3548  -13.9288 C   0  0  0  0  0  0  0  0  0  0  0  0
   39.9296   14.7829  -13.2776 C   0  0  0  0  0  0  0  0  0  0  0  0
   42.5562   13.4241  -10.4051 H   0  0  0  0  0  0  0  0  0  0  0  0
   37.3690   11.2877  -16.9782 H   0  0  0  0  0  0  0  0  0  0  0  0
   44.1040   15.5701  -10.5120 C   0  0  0  0  0  0  0  0  0  0  0  0
   43.6072   16.3794   -9.4657 O   0  0  0  0  0  0  0  0  0  0  0  0
   44.4019   16.8962   -9.1362 H   0  0  0  0  0  0  0  0  0  0  0  0
  2  1  1  0  0  0
  2  3  1  0  0  0
  3  4  1  0  0  0
  4  5  1  0  0  0
  5  6  1  0  0  0
  6  7  1  0  0  0
  6 35  1  0  0  0
 35 36  1  0  0  0
  4  8  1  0  0  0
  8  9  1  0  0  0
  9 10  2  0  0  0
 10 11  1  0  0  0
 11 12  2  0  0  0
 12 13  1  0  0  0
 13 14  2  0  0  0
 14 15  1  0  0  0
 15 16  2  0  0  0
 16 17  1  0  0  0
 17 18  2  0  0  0
 17 19  1  0  0  0
 19 20  1  0  0  0
 20 21  2  0  0  0
 20 22  1  0  0  0
 22 23  2  0  0  0
 23 24  1  0  0  0
 24 25  2  0  0  0
 25 26  1  0  0  0
 26 27  2  0  0  0
 27 28  1  0  0  0
 28 29  2  0  0  0
 29 30  1  0  0  0
 30 31  1  0  0  0
 31 32  2  0  0  0
  6  2  1  0  0  0
 32  8  1  0  0  0
 30  2  1  0  0  0
 14  9  1  0  0  0
 32 15  1  0  0  0
 22 16  1  0  0  0
 31 23  1  0  0  0
 29 24  1  0  0  0
  7 33  1  0  0  0
 36 37  1  0  0  0
 19 34  1  0  0  0
M  END
> <minimizedAffinity>
-10.87892

> <CNNscore>
0.1402736008

> <CNNaffinity>
5.6959199905

> <CNN_VS>
0.7989872098

> <CNNaffinity_variance>
0.2838420272

$$$$
[H]OC([H])([H])[C@@]1(O[H])C([H])([H])[C@@]2([H])O[C@]1(C([H])([H])[H])n1c3c([H])c([H])c([H])c([H])c3c3c4c(c5c6c([H])c([H])c([H])c([H])c6n2c5c31)C(=O)N([H])C4=O


 37 44  0  0  0  0  0  0  0  0999 V2000
   34.8029   11.7988  -13.3548 C   0  0  0  0  0  0  0  0  0  0  0  0
   35.4500   13.1600  -13.1698 C   0  0  0  0  0  0  0  0  0  0  0  0
   35.5182   13.2317  -11.7530 O   0  0  0  0  0  0  0  0  0  0  0  0
   35.3729   14.5413  -11.3779 C   0  0  0  0  0  0  0  0  0  0  0  0
   34.5613   15.2336  -12.4025 C   0  0  0  0  0  0  0  0  0  0  0  0
   34.6028   14.3011  -13.5905 C   0  0  0  0  0  0  0  0  0  0  0  0
   35.1271   15.0170  -14.6656 O   0  0  0  0  0  0  0  0  0  0  0  0
   36.7375   15.1066  -11.2282 N   0  0  0  0  0  0  0  0  0  0  0  0
   37.1459   15.9680  -10.3082 C   0  0  0  0  0  0  0  0  0  0  0  0
   36.4653   16.5786   -9.2857 C   0  0  0  0  0  0  0  0  0  0  0  0
   37.1161   17.4453   -8.4519 C   0  0  0  0  0  0  0  0  0  0  0  0
   38.4536   17.7154   -8.6254 C   0  0  0  0  0  0  0  0  0  0  0  0
   39.1605   17.1016   -9.6620 C   0  0  0  0  0  0  0  0  0  0  0  0
   38.5079   16.2422  -10.4859 C   0  0  0  0  0  0  0  0  0  0  0  0
   38.9083   15.4856  -11.5856 C   0  0  0  0  0  0  0  0  0  0  0  0
   40.1096   15.3261  -12.2728 C   0  0  0  0  0  0  0  0  0  0  0  0
   41.4266   15.9008  -12.0530 C   0  0  0  0  0  0  0  0  0  0  0  0
   41.8759   16.7023  -11.1982 O   0  0  0  0  0  0  0  0  0  0  0  0
   42.2760   15.3655  -13.0777 N   0  0  0  0  0  0  0  0  0  0  0  0
   41.5132   14.4753  -13.9223 C   0  0  0  0  0  0  0  0  0  0  0  0
   42.0527   13.8857  -14.8934 O   0  0  0  0  0  0  0  0  0  0  0  0
   40.1699   14.4773  -13.3893 C   0  0  0  0  0  0  0  0  0  0  0  0
   39.0199   13.8136  -13.7820 C   0  0  0  0  0  0  0  0  0  0  0  0
   38.7038   12.9509  -14.8263 C   0  0  0  0  0  0  0  0  0  0  0  0
   39.4581   12.4457  -15.8503 C   0  0  0  0  0  0  0  0  0  0  0  0
   38.8378   11.6071  -16.7855 C   0  0  0  0  0  0  0  0  0  0  0  0
   37.5196   11.2971  -16.6878 C   0  0  0  0  0  0  0  0  0  0  0  0
   36.7455   11.8048  -15.6528 C   0  0  0  0  0  0  0  0  0  0  0  0
   37.3516   12.6295  -14.7277 C   0  0  0  0  0  0  0  0  0  0  0  0
   36.8179   13.2543  -13.6593 N   0  0  0  0  0  0  0  0  0  0  0  0
   37.8416   13.9794  -13.0909 C   0  0  0  0  0  0  0  0  0  0  0  0
   37.7846   14.8126  -11.9968 C   0  0  0  0  0  0  0  0  0  0  0  0
   34.7746   15.9572  -14.5709 H   0  0  0  0  0  0  0  0  0  0  0  0
   43.2995   15.5787  -13.2076 H   0  0  0  0  0  0  0  0  0  0  0  0
   33.1869   13.9334  -13.9415 C   0  0  0  0  0  0  0  0  0  0  0  0
   32.3456   14.4742  -12.9433 O   0  0  0  0  0  0  0  0  0  0  0  0
   31.4736   13.9881  -13.0462 H   0  0  0  0  0  0  0  0  0  0  0  0
  2  1  1  0  0  0
  2  3  1  0  0  0
  3  4  1  0  0  0
  4  5  1  0  0  0
  5  6  1  0  0  0
  6  7  1  0  0  0
  6 35  1  0  0  0
 35 36  1  0  0  0
  4  8  1  0  0  0
  8  9  1  0  0  0
  9 10  2  0  0  0
 10 11  1  0  0  0
 11 12  2  0  0  0
 12 13  1  0  0  0
 13 14  2  0  0  0
 14 15  1  0  0  0
 15 16  2  0  0  0
 16 17  1  0  0  0
 17 18  2  0  0  0
 17 19  1  0  0  0
 19 20  1  0  0  0
 20 21  2  0  0  0
 20 22  1  0  0  0
 22 23  2  0  0  0
 23 24  1  0  0  0
 24 25  2  0  0  0
 25 26  1  0  0  0
 26 27  2  0  0  0
 27 28  1  0  0  0
 28 29  2  0  0  0
 29 30  1  0  0  0
 30 31  1  0  0  0
 31 32  2  0  0  0
  6  2  1  0  0  0
 32  8  1  0  0  0
 30  2  1  0  0  0
 14  9  1  0  0  0
 32 15  1  0  0  0
 22 16  1  0  0  0
 31 23  1  0  0  0
 29 24  1  0  0  0
  7 33  1  0  0  0
 36 37  1  0  0  0
 19 34  1  0  0  0
M  END
> <minimizedAffinity>
-9.62038

> <CNNscore>
0.1348279864

> <CNNaffinity>
5.9294972420

> <CNN_VS>
0.7994621992

> <CNNaffinity_variance>
0.2519558668

$$$$
[H]OC([H])([H])[C@@]1(O[H])C([H])([H])[C@@]2([H])O[C@]1(C([H])([H])[H])n1c3c([H])c([H])c([H])c([H])c3c3c4c(c5c6c([H])c([H])c([H])c([H])c6n2c5c31)C(=O)N([H])C4=O


 37 44  0  0  0  0  0  0  0  0999 V2000
   44.1053   17.0711  -11.9340 C   0  0  0  0  0  0  0  0  0  0  0  0
   42.9999   16.0302  -11.9186 C   0  0  0  0  0  0  0  0  0  0  0  0
   41.8562   16.8542  -12.0927 O   0  0  0  0  0  0  0  0  0  0  0  0
   40.8077   16.2889  -11.4161 C   0  0  0  0  0  0  0  0  0  0  0  0
   41.3493   15.5118  -10.2800 C   0  0  0  0  0  0  0  0  0  0  0  0
   42.8147   15.3552  -10.6121 C   0  0  0  0  0  0  0  0  0  0  0  0
   43.0917   13.9894  -10.6470 O   0  0  0  0  0  0  0  0  0  0  0  0
   40.0558   15.4589  -12.3907 N   0  0  0  0  0  0  0  0  0  0  0  0
   38.7412   15.3100  -12.4626 C   0  0  0  0  0  0  0  0  0  0  0  0
   37.7356   15.8324  -11.6898 C   0  0  0  0  0  0  0  0  0  0  0  0
   36.4315   15.5271  -11.9657 C   0  0  0  0  0  0  0  0  0  0  0  0
   36.1117   14.6975  -13.0152 C   0  0  0  0  0  0  0  0  0  0  0  0
   37.1245   14.1575  -13.8113 C   0  0  0  0  0  0  0  0  0  0  0  0
   38.4169   14.4650  -13.5315 C   0  0  0  0  0  0  0  0  0  0  0  0
   39.6307   14.1032  -14.1128 C   0  0  0  0  0  0  0  0  0  0  0  0
   39.9939   13.2857  -15.1807 C   0  0  0  0  0  0  0  0  0  0  0  0
   39.1929   12.5133  -16.1160 C   0  0  0  0  0  0  0  0  0  0  0  0
   37.9558   12.3459  -16.2443 O   0  0  0  0  0  0  0  0  0  0  0  0
   40.1183   11.8715  -17.0049 N   0  0  0  0  0  0  0  0  0  0  0  0
   41.4690   12.2308  -16.6388 C   0  0  0  0  0  0  0  0  0  0  0  0
   42.4532   11.7843  -17.2821 O   0  0  0  0  0  0  0  0  0  0  0  0
   41.3500   13.1117  -15.4994 C   0  0  0  0  0  0  0  0  0  0  0  0
   42.3012   13.7654  -14.7344 C   0  0  0  0  0  0  0  0  0  0  0  0
   43.6918   13.7989  -14.7324 C   0  0  0  0  0  0  0  0  0  0  0  0
   44.6189   13.1763  -15.5234 C   0  0  0  0  0  0  0  0  0  0  0  0
   45.9771   13.3863  -15.2516 C   0  0  0  0  0  0  0  0  0  0  0  0
   46.3749   14.1864  -14.2293 C   0  0  0  0  0  0  0  0  0  0  0  0
   45.4421   14.8224  -13.4208 C   0  0  0  0  0  0  0  0  0  0  0  0
   44.1032   14.6208  -13.6852 C   0  0  0  0  0  0  0  0  0  0  0  0
   43.0220   15.1034  -13.0413 N   0  0  0  0  0  0  0  0  0  0  0  0
   41.9263   14.5720  -13.6846 C   0  0  0  0  0  0  0  0  0  0  0  0
   40.5960   14.7406  -13.3735 C   0  0  0  0  0  0  0  0  0  0  0  0
   42.5264   13.5733   -9.9228 H   0  0  0  0  0  0  0  0  0  0  0  0
   39.8674   11.2341  -17.8053 H   0  0  0  0  0  0  0  0  0  0  0  0
   43.6124   15.9481   -9.4828 C   0  0  0  0  0  0  0  0  0  0  0  0
   43.1795   15.3340   -8.2861 O   0  0  0  0  0  0  0  0  0  0  0  0
   43.5129   15.9310   -7.5516 H   0  0  0  0  0  0  0  0  0  0  0  0
  2  1  1  0  0  0
  2  3  1  0  0  0
  3  4  1  0  0  0
  4  5  1  0  0  0
  5  6  1  0  0  0
  6  7  1  0  0  0
  6 35  1  0  0  0
 35 36  1  0  0  0
  4  8  1  0  0  0
  8  9  1  0  0  0
  9 10  2  0  0  0
 10 11  1  0  0  0
 11 12  2  0  0  0
 12 13  1  0  0  0
 13 14  2  0  0  0
 14 15  1  0  0  0
 15 16  2  0  0  0
 16 17  1  0  0  0
 17 18  2  0  0  0
 17 19  1  0  0  0
 19 20  1  0  0  0
 20 21  2  0  0  0
 20 22  1  0  0  0
 22 23  2  0  0  0
 23 24  1  0  0  0
 24 25  2  0  0  0
 25 26  1  0  0  0
 26 27  2  0  0  0
 27 28  1  0  0  0
 28 29  2  0  0  0
 29 30  1  0  0  0
 30 31  1  0  0  0
 31 32  2  0  0  0
  6  2  1  0  0  0
 32  8  1  0  0  0
 30  2  1  0  0  0
 14  9  1  0  0  0
 32 15  1  0  0  0
 22 16  1  0  0  0
 31 23  1  0  0  0
 29 24  1  0  0  0
  7 33  1  0  0  0
 36 37  1  0  0  0
 19 34  1  0  0  0
M  END
> <minimizedAffinity>
-9.42080

> <CNNscore>
0.1344388574

> <CNNaffinity>
5.6759228706

> <CNN_VS>
0.7630645633

> <CNNaffinity_variance>
0.2085340321

$$$$
[H]O[C@]([H])(C([H])([H])N([H])C(=O)c1c(C([H])([H])[H])c(/C([H])=C2\C(=O)N([H])c3c([H])c([H])c(F)c([H])c32)n([H])c1C([H])([H])[H])C([H])([H])N1C([H])([H])C([H])([H])OC([H])([H])C1([H])[H]


 36 39  0  0  0  0  0  0  0  0999 V2000
   44.7399   12.1564  -17.3512 C   0  0  0  0  0  0  0  0  0  0  0  0
   43.5422   12.5245  -16.5361 C   0  0  0  0  0  0  0  0  0  0  0  0
   42.2760   12.1843  -16.7523 N   0  0  0  0  0  0  0  0  0  0  0  0
   41.4900   12.7019  -15.8211 C   0  0  0  0  0  0  0  0  0  0  0  0
   42.3088   13.4352  -14.9325 C   0  0  0  0  0  0  0  0  0  0  0  0
   41.8065   14.1528  -13.7288 C   0  0  0  0  0  0  0  0  0  0  0  0
   43.5732   13.3256  -15.3736 C   0  0  0  0  0  0  0  0  0  0  0  0
   41.9829   11.5864  -17.5872 H   0  0  0  0  0  0  0  0  0  0  0  0
   40.0584   12.6013  -15.6086 C   0  0  0  0  0  0  0  0  0  0  0  0
   39.2079   11.9764  -16.3937 C   0  0  0  0  0  0  0  0  0  0  0  0
   39.4996   11.2557  -17.6188 C   0  0  0  0  0  0  0  0  0  0  0  0
   40.6419   11.0776  -18.1504 O   0  0  0  0  0  0  0  0  0  0  0  0
   38.2496   10.7808  -18.1104 N   0  0  0  0  0  0  0  0  0  0  0  0
   37.1750   11.1743  -17.2392 C   0  0  0  0  0  0  0  0  0  0  0  0
   35.8116   10.9648  -17.2759 C   0  0  0  0  0  0  0  0  0  0  0  0
   34.9989   11.4633  -16.2921 C   0  0  0  0  0  0  0  0  0  0  0  0
   35.5489   12.1844  -15.2501 C   0  0  0  0  0  0  0  0  0  0  0  0
   34.7320   12.6783  -14.2729 F   0  0  0  0  0  0  0  0  0  0  0  0
   36.9118   12.3846  -15.2279 C   0  0  0  0  0  0  0  0  0  0  0  0
   37.7424   11.8910  -16.2079 C   0  0  0  0  0  0  0  0  0  0  0  0
   38.1325   10.2325  -18.9697 H   0  0  0  0  0  0  0  0  0  0  0  0
   44.8096   13.8603  -14.7968 C   0  0  0  0  0  0  0  0  0  0  0  0
   45.5182   13.0156  -14.1424 O   0  0  0  0  0  0  0  0  0  0  0  0
   45.2726   15.1652  -14.8972 N   0  0  0  0  0  0  0  0  0  0  0  0
   44.6591   15.8455  -15.4738 H   0  0  0  0  0  0  0  0  0  0  0  0
   46.4668   15.7542  -14.3710 C   0  0  0  0  0  0  0  0  0  0  0  0
   46.3897   17.2174  -14.1294 C   0  0  0  0  0  0  0  0  0  0  0  0
   46.7809   18.0003  -15.1910 O   0  0  0  0  0  0  0  0  0  0  0  0
   47.6220   18.4946  -15.0554 H   0  0  0  0  0  0  0  0  0  0  0  0
   44.9529   17.5441  -13.7191 C   0  0  0  0  0  0  0  0  0  0  0  0
   44.7627   17.5108  -12.3152 N   0  0  0  0  0  0  0  0  0  0  0  0
   43.8706   16.5500  -11.8288 C   0  0  0  0  0  0  0  0  0  0  0  0
   44.1087   16.0230  -10.4588 C   0  0  0  0  0  0  0  0  0  0  0  0
   44.9402   16.7800   -9.6752 O   0  0  0  0  0  0  0  0  0  0  0  0
   46.1512   16.9020  -10.3961 C   0  0  0  0  0  0  0  0  0  0  0  0
   45.8499   17.8919  -11.4996 C   0  0  0  0  0  0  0  0  0  0  0  0
  1  2  1  0  0  0
  2  3  1  0  0  0
  3  4  1  0  0  0
  4  9  1  0  0  0
  9 10  2  0  0  0
 10 11  1  0  0  0
 11 12  2  0  0  0
 11 13  1  0  0  0
 13 14  1  0  0  0
 14 15  2  0  0  0
 15 16  1  0  0  0
 16 17  2  0  0  0
 17 18  1  0  0  0
 17 19  1  0  0  0
 19 20  2  0  0  0
  4  5  2  0  0  0
  5  6  1  0  0  0
  5  7  1  0  0  0
  7 22  1  0  0  0
 22 23  2  0  0  0
 22 24  1  0  0  0
 24 26  1  0  0  0
 26 27  1  0  0  0
 27 28  1  0  0  0
 27 30  1  0  0  0
 30 31  1  0  0  0
 31 32  1  0  0  0
 32 33  1  0  0  0
 33 34  1  0  0  0
 34 35  1  0  0  0
 35 36  1  0  0  0
  7  2  2  0  0  0
 36 31  1  0  0  0
 20 10  1  0  0  0
 20 14  1  0  0  0
  3  8  1  0  0  0
 13 21  1  0  0  0
 24 25  1  0  0  0
 28 29  1  0  0  0
M  END
> <minimizedAffinity>
-9.51289

> <CNNscore>
0.8156023026

> <CNNaffinity>
6.8906264305

> <CNN_VS>
5.6200108528

> <CNNaffinity_variance>
0.2308812141

$$$$
[H]O[C@]([H])(C([H])([H])N([H])C(=O)c1c(C([H])([H])[H])c(/C([H])=C2\C(=O)N([H])c3c([H])c([H])c(F)c([H])c32)n([H])c1C([H])([H])[H])C([H])([H])N1C([H])([H])C([H])([H])OC([H])([H])C1([H])[H]


 36 39  0  0  0  0  0  0  0  0999 V2000
   38.8483   16.4003  -10.3714 C   0  0  0  0  0  0  0  0  0  0  0  0
   38.2529   15.3934  -11.3021 C   0  0  0  0  0  0  0  0  0  0  0  0
   38.7663   14.9330  -12.4380 N   0  0  0  0  0  0  0  0  0  0  0  0
   37.9485   14.0533  -12.9949 C   0  0  0  0  0  0  0  0  0  0  0  0
   36.8168   13.9341  -12.1565 C   0  0  0  0  0  0  0  0  0  0  0  0
   35.6708   13.0212  -12.4202 C   0  0  0  0  0  0  0  0  0  0  0  0
   37.0049   14.7601  -11.1137 C   0  0  0  0  0  0  0  0  0  0  0  0
   39.7068   15.2708  -12.8146 H   0  0  0  0  0  0  0  0  0  0  0  0
   38.0666   13.2668  -14.2083 C   0  0  0  0  0  0  0  0  0  0  0  0
   39.1554   13.1346  -14.9343 C   0  0  0  0  0  0  0  0  0  0  0  0
   40.4584   13.7248  -14.6911 C   0  0  0  0  0  0  0  0  0  0  0  0
   40.7940   14.4663  -13.7130 O   0  0  0  0  0  0  0  0  0  0  0  0
   41.2940   13.3056  -15.7662 N   0  0  0  0  0  0  0  0  0  0  0  0
   40.5667   12.4691  -16.6827 C   0  0  0  0  0  0  0  0  0  0  0  0
   40.9207   11.8275  -17.8519 C   0  0  0  0  0  0  0  0  0  0  0  0
   40.0078   11.0751  -18.5428 C   0  0  0  0  0  0  0  0  0  0  0  0
   38.7173   10.9559  -18.0651 C   0  0  0  0  0  0  0  0  0  0  0  0
   37.8127   10.2040  -18.7596 F   0  0  0  0  0  0  0  0  0  0  0  0
   38.3797   11.6025  -16.8962 C   0  0  0  0  0  0  0  0  0  0  0  0
   39.2841   12.3622  -16.1899 C   0  0  0  0  0  0  0  0  0  0  0  0
   42.2809   13.5656  -15.8718 H   0  0  0  0  0  0  0  0  0  0  0  0
   36.1555   14.9872   -9.9414 C   0  0  0  0  0  0  0  0  0  0  0  0
   36.3890   14.2214   -8.9399 O   0  0  0  0  0  0  0  0  0  0  0  0
   35.1496   15.9362   -9.8198 N   0  0  0  0  0  0  0  0  0  0  0  0
   34.9941   16.5783  -10.6772 H   0  0  0  0  0  0  0  0  0  0  0  0
   34.2902   16.2200   -8.7105 C   0  0  0  0  0  0  0  0  0  0  0  0
   34.8170   17.2231   -7.7505 C   0  0  0  0  0  0  0  0  0  0  0  0
   35.4800   18.2823   -8.3264 O   0  0  0  0  0  0  0  0  0  0  0  0
   36.4509   18.3041   -8.1620 H   0  0  0  0  0  0  0  0  0  0  0  0
   33.6418   17.7178   -6.9058 C   0  0  0  0  0  0  0  0  0  0  0  0
   34.0541   18.4949   -5.7948 N   0  0  0  0  0  0  0  0  0  0  0  0
   33.5450   19.7952   -5.7193 C   0  0  0  0  0  0  0  0  0  0  0  0
   33.3773   20.3894   -4.3664 C   0  0  0  0  0  0  0  0  0  0  0  0
   34.0693   19.7652   -3.3615 O   0  0  0  0  0  0  0  0  0  0  0  0
   33.6538   18.4132   -3.3835 C   0  0  0  0  0  0  0  0  0  0  0  0
   34.3396   17.8143   -4.5916 C   0  0  0  0  0  0  0  0  0  0  0  0
  1  2  1  0  0  0
  2  3  1  0  0  0
  3  4  1  0  0  0
  4  9  1  0  0  0
  9 10  2  0  0  0
 10 11  1  0  0  0
 11 12  2  0  0  0
 11 13  1  0  0  0
 13 14  1  0  0  0
 14 15  2  0  0  0
 15 16  1  0  0  0
 16 17  2  0  0  0
 17 18  1  0  0  0
 17 19  1  0  0  0
 19 20  2  0  0  0
  4  5  2  0  0  0
  5  6  1  0  0  0
  5  7  1  0  0  0
  7 22  1  0  0  0
 22 23  2  0  0  0
 22 24  1  0  0  0
 24 26  1  0  0  0
 26 27  1  0  0  0
 27 28  1  0  0  0
 27 30  1  0  0  0
 30 31  1  0  0  0
 31 32  1  0  0  0
 32 33  1  0  0  0
 33 34  1  0  0  0
 34 35  1  0  0  0
 35 36  1  0  0  0
  7  2  2  0  0  0
 36 31  1  0  0  0
 20 10  1  0  0  0
 20 14  1  0  0  0
  3  8  1  0  0  0
 13 21  1  0  0  0
 24 25  1  0  0  0
 28 29  1  0  0  0
M  END
> <minimizedAffinity>
-8.97284

> <CNNscore>
0.5844092965

> <CNNaffinity>
6.2504396439

> <CNN_VS>
3.6528151035

> <CNNaffinity_variance>
0.2937110364

$$$$
[H]O[C@]([H])(C([H])([H])N([H])C(=O)c1c(C([H])([H])[H])c(/C([H])=C2\C(=O)N([H])c3c([H])c([H])c(F)c([H])c32)n([H])c1C([H])([H])[H])C([H])([H])N1C([H])([H])C([H])([H])OC([H])([H])C1([H])[H]


 36 39  0  0  0  0  0  0  0  0999 V2000
   38.9221   16.3427  -10.3611 C   0  0  0  0  0  0  0  0  0  0  0  0
   38.2975   15.3596  -11.2980 C   0  0  0  0  0  0  0  0  0  0  0  0
   38.8068   14.8744  -12.4254 N   0  0  0  0  0  0  0  0  0  0  0  0
   37.9601   14.0290  -12.9920 C   0  0  0  0  0  0  0  0  0  0  0  0
   36.8125   13.9607  -12.1697 C   0  0  0  0  0  0  0  0  0  0  0  0
   35.6324   13.0968  -12.4477 C   0  0  0  0  0  0  0  0  0  0  0  0
   37.0209   14.7808  -11.1261 C   0  0  0  0  0  0  0  0  0  0  0  0
   39.7661   15.1707  -12.7892 H   0  0  0  0  0  0  0  0  0  0  0  0
   38.0616   13.2347  -14.2018 C   0  0  0  0  0  0  0  0  0  0  0  0
   39.1277   13.1323  -14.9655 C   0  0  0  0  0  0  0  0  0  0  0  0
   40.4174   13.7689  -14.7748 C   0  0  0  0  0  0  0  0  0  0  0  0
   40.7622   14.5313  -13.8161 O   0  0  0  0  0  0  0  0  0  0  0  0
   41.2280   13.3676  -15.8756 N   0  0  0  0  0  0  0  0  0  0  0  0
   40.4975   12.4976  -16.7577 C   0  0  0  0  0  0  0  0  0  0  0  0
   40.8313   11.8566  -17.9332 C   0  0  0  0  0  0  0  0  0  0  0  0
   39.9206   11.0666  -18.5840 C   0  0  0  0  0  0  0  0  0  0  0  0
   38.6529   10.9085  -18.0589 C   0  0  0  0  0  0  0  0  0  0  0  0
   37.7504   10.1191  -18.7136 F   0  0  0  0  0  0  0  0  0  0  0  0
   38.3353   11.5549  -16.8844 C   0  0  0  0  0  0  0  0  0  0  0  0
   39.2378   12.3521  -16.2180 C   0  0  0  0  0  0  0  0  0  0  0  0
   42.2009   13.6600  -16.0191 H   0  0  0  0  0  0  0  0  0  0  0  0
   36.1655   15.0473   -9.9666 C   0  0  0  0  0  0  0  0  0  0  0  0
   36.2690   14.2054   -9.0051 O   0  0  0  0  0  0  0  0  0  0  0  0
   35.2791   16.1054   -9.8181 N   0  0  0  0  0  0  0  0  0  0  0  0
   35.2329   16.8073  -10.6408 H   0  0  0  0  0  0  0  0  0  0  0  0
   34.4228   16.4328   -8.7184 C   0  0  0  0  0  0  0  0  0  0  0  0
   33.2899   15.4964   -8.5062 C   0  0  0  0  0  0  0  0  0  0  0  0
   33.4955   14.5523   -7.5268 O   0  0  0  0  0  0  0  0  0  0  0  0
   33.5884   13.6277   -7.8534 H   0  0  0  0  0  0  0  0  0  0  0  0
   32.0485   16.3341   -8.1954 C   0  0  0  0  0  0  0  0  0  0  0  0
   30.9710   16.0648   -9.0757 N   0  0  0  0  0  0  0  0  0  0  0  0
   31.3092   15.6920  -10.3804 C   0  0  0  0  0  0  0  0  0  0  0  0
   30.3655   14.8009  -11.1062 C   0  0  0  0  0  0  0  0  0  0  0  0
   29.1021   14.7307  -10.5797 O   0  0  0  0  0  0  0  0  0  0  0  0
   29.2623   14.3223   -9.2349 C   0  0  0  0  0  0  0  0  0  0  0  0
   29.7837   15.5466   -8.5153 C   0  0  0  0  0  0  0  0  0  0  0  0
  1  2  1  0  0  0
  2  3  1  0  0  0
  3  4  1  0  0  0
  4  9  1  0  0  0
  9 10  2  0  0  0
 10 11  1  0  0  0
 11 12  2  0  0  0
 11 13  1  0  0  0
 13 14  1  0  0  0
 14 15  2  0  0  0
 15 16  1  0  0  0
 16 17  2  0  0  0
 17 18  1  0  0  0
 17 19  1  0  0  0
 19 20  2  0  0  0
  4  5  2  0  0  0
  5  6  1  0  0  0
  5  7  1  0  0  0
  7 22  1  0  0  0
 22 23  2  0  0  0
 22 24  1  0  0  0
 24 26  1  0  0  0
 26 27  1  0  0  0
 27 28  1  0  0  0
 27 30  1  0  0  0
 30 31  1  0  0  0
 31 32  1  0  0  0
 32 33  1  0  0  0
 33 34  1  0  0  0
 34 35  1  0  0  0
 35 36  1  0  0  0
  7  2  2  0  0  0
 36 31  1  0  0  0
 20 10  1  0  0  0
 20 14  1  0  0  0
  3  8  1  0  0  0
 13 21  1  0  0  0
 24 25  1  0  0  0
 28 29  1  0  0  0
M  END
> <minimizedAffinity>
-9.93998

> <CNNscore>
0.5774780512

> <CNNaffinity>
6.3897118568

> <CNN_VS>
3.6899182796

> <CNNaffinity_variance>
0.2517550588

$$$$
[H]O[C@]([H])(C([H])([H])N([H])C(=O)c1c(C([H])([H])[H])c(/C([H])=C2\C(=O)N([H])c3c([H])c([H])c(F)c([H])c32)n([H])c1C([H])([H])[H])C([H])([H])N1C([H])([H])C([H])([H])OC([H])([H])C1([H])[H]


 36 39  0  0  0  0  0  0  0  0999 V2000
   44.7076   13.9014  -14.0413 C   0  0  0  0  0  0  0  0  0  0  0  0
   43.2226   14.0342  -13.9348 C   0  0  0  0  0  0  0  0  0  0  0  0
   42.2952   13.2897  -14.5277 N   0  0  0  0  0  0  0  0  0  0  0  0
   41.0829   13.7096  -14.2010 C   0  0  0  0  0  0  0  0  0  0  0  0
   41.2349   14.8121  -13.3296 C   0  0  0  0  0  0  0  0  0  0  0  0
   40.1019   15.5569  -12.7149 C   0  0  0  0  0  0  0  0  0  0  0  0
   42.5534   15.0117  -13.1661 C   0  0  0  0  0  0  0  0  0  0  0  0
   42.5463   12.4840  -15.1822 H   0  0  0  0  0  0  0  0  0  0  0  0
   39.7667   13.2195  -14.5645 C   0  0  0  0  0  0  0  0  0  0  0  0
   39.4732   12.5444  -15.6547 C   0  0  0  0  0  0  0  0  0  0  0  0
   40.3771   12.1385  -16.7145 C   0  0  0  0  0  0  0  0  0  0  0  0
   41.6313   12.3447  -16.7739 O   0  0  0  0  0  0  0  0  0  0  0  0
   39.5809   11.4566  -17.6795 N   0  0  0  0  0  0  0  0  0  0  0  0
   38.2034   11.4149  -17.2681 C   0  0  0  0  0  0  0  0  0  0  0  0
   37.0678   10.8803  -17.8415 C   0  0  0  0  0  0  0  0  0  0  0  0
   35.8521   10.9852  -17.2186 C   0  0  0  0  0  0  0  0  0  0  0  0
   35.7599   11.6331  -16.0022 C   0  0  0  0  0  0  0  0  0  0  0  0
   34.5441   11.7336  -15.3873 F   0  0  0  0  0  0  0  0  0  0  0  0
   36.9029   12.1611  -15.4428 C   0  0  0  0  0  0  0  0  0  0  0  0
   38.1317   12.0648  -16.0549 C   0  0  0  0  0  0  0  0  0  0  0  0
   39.9420   11.0506  -18.5498 H   0  0  0  0  0  0  0  0  0  0  0  0
   43.2493   15.9970  -12.3341 C   0  0  0  0  0  0  0  0  0  0  0  0
   43.4894   17.1210  -12.9024 O   0  0  0  0  0  0  0  0  0  0  0  0
   43.6570   15.8282  -11.0179 N   0  0  0  0  0  0  0  0  0  0  0  0
   43.4196   14.8746  -10.5641 H   0  0  0  0  0  0  0  0  0  0  0  0
   44.3294   16.7424  -10.1450 C   0  0  0  0  0  0  0  0  0  0  0  0
   43.7474   16.8512   -8.7831 C   0  0  0  0  0  0  0  0  0  0  0  0
   42.4360   16.4476   -8.6806 O   0  0  0  0  0  0  0  0  0  0  0  0
   41.7907   17.1711   -8.5066 H   0  0  0  0  0  0  0  0  0  0  0  0
   44.6354   16.0449   -7.8341 C   0  0  0  0  0  0  0  0  0  0  0  0
   44.9294   16.7405   -6.6349 N   0  0  0  0  0  0  0  0  0  0  0  0
   45.4051   18.0483   -6.7725 C   0  0  0  0  0  0  0  0  0  0  0  0
   45.1080   19.0061   -5.6743 C   0  0  0  0  0  0  0  0  0  0  0  0
   44.7274   18.4375   -4.4868 O   0  0  0  0  0  0  0  0  0  0  0  0
   43.6034   17.6314   -4.7830 C   0  0  0  0  0  0  0  0  0  0  0  0
   44.1685   16.4194   -5.4902 C   0  0  0  0  0  0  0  0  0  0  0  0
  1  2  1  0  0  0
  2  3  1  0  0  0
  3  4  1  0  0  0
  4  9  1  0  0  0
  9 10  2  0  0  0
 10 11  1  0  0  0
 11 12  2  0  0  0
 11 13  1  0  0  0
 13 14  1  0  0  0
 14 15  2  0  0  0
 15 16  1  0  0  0
 16 17  2  0  0  0
 17 18  1  0  0  0
 17 19  1  0  0  0
 19 20  2  0  0  0
  4  5  2  0  0  0
  5  6  1  0  0  0
  5  7  1  0  0  0
  7 22  1  0  0  0
 22 23  2  0  0  0
 22 24  1  0  0  0
 24 26  1  0  0  0
 26 27  1  0  0  0
 27 28  1  0  0  0
 27 30  1  0  0  0
 30 31  1  0  0  0
 31 32  1  0  0  0
 32 33  1  0  0  0
 33 34  1  0  0  0
 34 35  1  0  0  0
 35 36  1  0  0  0
  7  2  2  0  0  0
 36 31  1  0  0  0
 20 10  1  0  0  0
 20 14  1  0  0  0
  3  8  1  0  0  0
 13 21  1  0  0  0
 24 25  1  0  0  0
 28 29  1  0  0  0
M  END
> <minimizedAffinity>
-7.57539

> <CNNscore>
0.4181519151

> <CNNaffinity>
6.0463833809

> <CNN_VS>
2.5283067226

> <CNNaffinity_variance>
1.1098916531

$$$$
[H]O[C@]([H])(C([H])([H])N([H])C(=O)c1c(C([H])([H])[H])c(/C([H])=C2\C(=O)N([H])c3c([H])c([H])c(F)c([H])c32)n([H])c1C([H])([H])[H])C([H])([H])N1C([H])([H])C([H])([H])OC([H])([H])C1([H])[H]


 36 39  0  0  0  0  0  0  0  0999 V2000
   32.4213   15.3472  -12.0311 C   0  0  0  0  0  0  0  0  0  0  0  0
   33.8299   14.9492  -12.3340 C   0  0  0  0  0  0  0  0  0  0  0  0
   34.2961   14.3937  -13.4476 N   0  0  0  0  0  0  0  0  0  0  0  0
   35.5985   14.1770  -13.3491 C   0  0  0  0  0  0  0  0  0  0  0  0
   36.0092   14.6255  -12.0731 C   0  0  0  0  0  0  0  0  0  0  0  0
   37.4132   14.5791  -11.5804 C   0  0  0  0  0  0  0  0  0  0  0  0
   34.9191   15.1011  -11.4482 C   0  0  0  0  0  0  0  0  0  0  0  0
   33.6619   14.1595  -14.2743 H   0  0  0  0  0  0  0  0  0  0  0  0
   36.5533   13.6223  -14.2900 C   0  0  0  0  0  0  0  0  0  0  0  0
   36.2930   12.7067  -15.1978 C   0  0  0  0  0  0  0  0  0  0  0  0
   35.0210   12.0619  -15.4650 C   0  0  0  0  0  0  0  0  0  0  0  0
   33.9124   12.2805  -14.8800 O   0  0  0  0  0  0  0  0  0  0  0  0
   35.2574   11.1332  -16.5194 N   0  0  0  0  0  0  0  0  0  0  0  0
   36.6350   11.1673  -16.9311 C   0  0  0  0  0  0  0  0  0  0  0  0
   37.3457   10.4761  -17.8909 C   0  0  0  0  0  0  0  0  0  0  0  0
   38.6823   10.7110  -18.0784 C   0  0  0  0  0  0  0  0  0  0  0  0
   39.3281   11.6505  -17.2984 C   0  0  0  0  0  0  0  0  0  0  0  0
   40.6610   11.8791  -17.4913 F   0  0  0  0  0  0  0  0  0  0  0  0
   38.6044   12.3323  -16.3446 C   0  0  0  0  0  0  0  0  0  0  0  0
   37.2615   12.1086  -16.1432 C   0  0  0  0  0  0  0  0  0  0  0  0
   34.5414   10.5231  -16.9290 H   0  0  0  0  0  0  0  0  0  0  0  0
   34.8003   15.7182  -10.1244 C   0  0  0  0  0  0  0  0  0  0  0  0
   35.5307   16.7551   -9.9365 O   0  0  0  0  0  0  0  0  0  0  0  0
   33.9850   15.2940   -9.0839 N   0  0  0  0  0  0  0  0  0  0  0  0
   33.3675   14.4280   -9.2851 H   0  0  0  0  0  0  0  0  0  0  0  0
   33.8112   15.8475   -7.7751 C   0  0  0  0  0  0  0  0  0  0  0  0
   32.5749   16.6498   -7.5933 C   0  0  0  0  0  0  0  0  0  0  0  0
   31.8014   16.7845   -8.7233 O   0  0  0  0  0  0  0  0  0  0  0  0
   31.7757   17.6926   -9.1038 H   0  0  0  0  0  0  0  0  0  0  0  0
   31.7693   16.0096   -6.4618 C   0  0  0  0  0  0  0  0  0  0  0  0
   31.7608   16.7953   -5.2824 N   0  0  0  0  0  0  0  0  0  0  0  0
   32.6380   16.4045   -4.2658 C   0  0  0  0  0  0  0  0  0  0  0  0
   33.1564   17.4647   -3.3610 C   0  0  0  0  0  0  0  0  0  0  0  0
   32.4536   18.6412   -3.3725 O   0  0  0  0  0  0  0  0  0  0  0  0
   32.4423   19.0755   -4.7187 C   0  0  0  0  0  0  0  0  0  0  0  0
   31.4524   18.1665   -5.4132 C   0  0  0  0  0  0  0  0  0  0  0  0
  1  2  1  0  0  0
  2  3  1  0  0  0
  3  4  1  0  0  0
  4  9  1  0  0  0
  9 10  2  0  0  0
 10 11  1  0  0  0
 11 12  2  0  0  0
 11 13  1  0  0  0
 13 14  1  0  0  0
 14 15  2  0  0  0
 15 16  1  0  0  0
 16 17  2  0  0  0
 17 18  1  0  0  0
 17 19  1  0  0  0
 19 20  2  0  0  0
  4  5  2  0  0  0
  5  6  1  0  0  0
  5  7  1  0  0  0
  7 22  1  0  0  0
 22 23  2  0  0  0
 22 24  1  0  0  0
 24 26  1  0  0  0
 26 27  1  0  0  0
 27 28  1  0  0  0
 27 30  1  0  0  0
 30 31  1  0  0  0
 31 32  1  0  0  0
 32 33  1  0  0  0
 33 34  1  0  0  0
 34 35  1  0  0  0
 35 36  1  0  0  0
  7  2  2  0  0  0
 36 31  1  0  0  0
 20 10  1  0  0  0
 20 14  1  0  0  0
  3  8  1  0  0  0
 13 21  1  0  0  0
 24 25  1  0  0  0
 28 29  1  0  0  0
M  END
> <minimizedAffinity>
-9.12219

> <CNNscore>
0.3620726466

> <CNNaffinity>
6.0694112778

> <CNN_VS>
2.1975677013

> <CNNaffinity_variance>
0.2101828158

$$$$
[H]O[C@]([H])(C([H])([H])N([H])C(=O)c1c(C([H])([H])[H])c(/C([H])=C2\C(=O)N([H])c3c([H])c([H])c(F)c([H])c32)n([H])c1C([H])([H])[H])C([H])([H])N1C([H])([H])C([H])([H])OC([H])([H])C1([H])[H]


 36 39  0  0  0  0  0  0  0  0999 V2000
   35.8127   14.5578  -10.2401 C   0  0  0  0  0  0  0  0  0  0  0  0
   35.6801   14.1300  -11.6663 C   0  0  0  0  0  0  0  0  0  0  0  0
   36.5890   13.5202  -12.4199 N   0  0  0  0  0  0  0  0  0  0  0  0
   36.1146   13.3041  -13.6369 C   0  0  0  0  0  0  0  0  0  0  0  0
   34.7968   13.8135  -13.6767 C   0  0  0  0  0  0  0  0  0  0  0  0
   33.9068   13.7434  -14.8680 C   0  0  0  0  0  0  0  0  0  0  0  0
   34.5297   14.3224  -12.4623 C   0  0  0  0  0  0  0  0  0  0  0  0
   37.5605   13.2742  -12.0510 H   0  0  0  0  0  0  0  0  0  0  0  0
   36.7029   12.6602  -14.7963 C   0  0  0  0  0  0  0  0  0  0  0  0
   37.9502   12.7871  -15.1943 C   0  0  0  0  0  0  0  0  0  0  0  0
   39.0004   13.5750  -14.5768 C   0  0  0  0  0  0  0  0  0  0  0  0
   38.9120   14.2757  -13.5183 O   0  0  0  0  0  0  0  0  0  0  0  0
   40.1577   13.4063  -15.3905 N   0  0  0  0  0  0  0  0  0  0  0  0
   39.8784   12.5377  -16.5024 C   0  0  0  0  0  0  0  0  0  0  0  0
   40.6494   12.0739  -17.5485 C   0  0  0  0  0  0  0  0  0  0  0  0
   40.1184   11.2351  -18.4927 C   0  0  0  0  0  0  0  0  0  0  0  0
   38.7959   10.8479  -18.3981 C   0  0  0  0  0  0  0  0  0  0  0  0
   38.2737   10.0114  -19.3434 F   0  0  0  0  0  0  0  0  0  0  0  0
   38.0395   11.3196  -17.3475 C   0  0  0  0  0  0  0  0  0  0  0  0
   38.5570   12.1626  -16.3907 C   0  0  0  0  0  0  0  0  0  0  0  0
   41.0669   13.8452  -15.2076 H   0  0  0  0  0  0  0  0  0  0  0  0
   33.2961   14.9335  -11.9602 C   0  0  0  0  0  0  0  0  0  0  0  0
   33.3984   16.1616  -11.6064 O   0  0  0  0  0  0  0  0  0  0  0  0
   32.0571   14.3186  -11.8410 N   0  0  0  0  0  0  0  0  0  0  0  0
   32.0032   13.2882  -12.1681 H   0  0  0  0  0  0  0  0  0  0  0  0
   30.8142   14.8509  -11.3705 C   0  0  0  0  0  0  0  0  0  0  0  0
   30.5971   14.7344   -9.9060 C   0  0  0  0  0  0  0  0  0  0  0  0
   31.0083   13.5434   -9.3533 O   0  0  0  0  0  0  0  0  0  0  0  0
   30.2815   12.9595   -9.0355 H   0  0  0  0  0  0  0  0  0  0  0  0
   31.3070   15.9126   -9.2373 C   0  0  0  0  0  0  0  0  0  0  0  0
   30.5460   16.4877   -8.1892 N   0  0  0  0  0  0  0  0  0  0  0  0
   29.2804   15.9379   -7.9624 C   0  0  0  0  0  0  0  0  0  0  0  0
   28.7435   15.9988   -6.5769 C   0  0  0  0  0  0  0  0  0  0  0  0
   29.3611   16.8981   -5.7474 O   0  0  0  0  0  0  0  0  0  0  0  0
   30.7332   16.5539   -5.7516 C   0  0  0  0  0  0  0  0  0  0  0  0
   31.2499   17.0285   -7.0918 C   0  0  0  0  0  0  0  0  0  0  0  0
  1  2  1  0  0  0
  2  3  1  0  0  0
  3  4  1  0  0  0
  4  9  1  0  0  0
  9 10  2  0  0  0
 10 11  1  0  0  0
 11 12  2  0  0  0
 11 13  1  0  0  0
 13 14  1  0  0  0
 14 15  2  0  0  0
 15 16  1  0  0  0
 16 17  2  0  0  0
 17 18  1  0  0  0
 17 19  1  0  0  0
 19 20  2  0  0  0
  4  5  2  0  0  0
  5  6  1  0  0  0
  5  7  1  0  0  0
  7 22  1  0  0  0
 22 23  2  0  0  0
 22 24  1  0  0  0
 24 26  1  0  0  0
 26 27  1  0  0  0
 27 28  1  0  0  0
 27 30  1  0  0  0
 30 31  1  0  0  0
 31 32  1  0  0  0
 32 33  1  0  0  0
 33 34  1  0  0  0
 34 35  1  0  0  0
 35 36  1  0  0  0
  7  2  2  0  0  0
 36 31  1  0  0  0
 20 10  1  0  0  0
 20 14  1  0  0  0
  3  8  1  0  0  0
 13 21  1  0  0  0
 24 25  1  0  0  0
 28 29  1  0  0  0
M  END
> <minimizedAffinity>
-8.96452

> <CNNscore>
0.3087418973

> <CNNaffinity>
6.3145551682

> <CNN_VS>
1.9495677948

> <CNNaffinity_variance>
0.3163895011

$$$$
[H]O[C@]([H])(C([H])([H])N([H])C(=O)c1c(C([H])([H])[H])c(/C([H])=C2\C(=O)N([H])c3c([H])c([H])c(F)c([H])c32)n([H])c1C([H])([H])[H])C([H])([H])N1C([H])([H])C([H])([H])OC([H])([H])C1([H])[H]


 36 39  0  0  0  0  0  0  0  0999 V2000
   39.1487   16.3672  -10.1343 C   0  0  0  0  0  0  0  0  0  0  0  0
   38.4137   15.4773  -11.0841 C   0  0  0  0  0  0  0  0  0  0  0  0
   38.9000   14.8435  -12.1460 N   0  0  0  0  0  0  0  0  0  0  0  0
   37.9474   14.1512  -12.7510 C   0  0  0  0  0  0  0  0  0  0  0  0
   36.7503   14.3516  -12.0267 C   0  0  0  0  0  0  0  0  0  0  0  0
   35.4464   13.7216  -12.3718 C   0  0  0  0  0  0  0  0  0  0  0  0
   37.0382   15.1689  -10.9998 C   0  0  0  0  0  0  0  0  0  0  0  0
   39.9239   14.9271  -12.4381 H   0  0  0  0  0  0  0  0  0  0  0  0
   37.9801   13.2900  -13.9181 C   0  0  0  0  0  0  0  0  0  0  0  0
   38.8966   13.3103  -14.8614 C   0  0  0  0  0  0  0  0  0  0  0  0
   40.0606   14.1724  -14.9462 C   0  0  0  0  0  0  0  0  0  0  0  0
   40.4215   15.0584  -14.1072 O   0  0  0  0  0  0  0  0  0  0  0  0
   40.7259   13.8277  -16.1579 N   0  0  0  0  0  0  0  0  0  0  0  0
   40.0250   12.7760  -16.8445 C   0  0  0  0  0  0  0  0  0  0  0  0
   40.2602   12.1081  -18.0288 C   0  0  0  0  0  0  0  0  0  0  0  0
   39.4107   11.1229  -18.4587 C   0  0  0  0  0  0  0  0  0  0  0  0
   38.3053   10.7927  -17.6991 C   0  0  0  0  0  0  0  0  0  0  0  0
   37.4629    9.8093  -18.1344 F   0  0  0  0  0  0  0  0  0  0  0  0
   38.0846   11.4688  -16.5190 C   0  0  0  0  0  0  0  0  0  0  0  0
   38.9276   12.4608  -16.0727 C   0  0  0  0  0  0  0  0  0  0  0  0
   41.5882   14.2701  -16.4947 H   0  0  0  0  0  0  0  0  0  0  0  0
   36.1676   15.6577   -9.9273 C   0  0  0  0  0  0  0  0  0  0  0  0
   36.0818   16.9334   -9.8308 O   0  0  0  0  0  0  0  0  0  0  0  0
   35.4424   14.8829   -9.0324 N   0  0  0  0  0  0  0  0  0  0  0  0
   35.5229   13.8106   -9.1564 H   0  0  0  0  0  0  0  0  0  0  0  0
   34.5703   15.2872   -7.9714 C   0  0  0  0  0  0  0  0  0  0  0  0
   33.2555   15.8204   -8.4099 C   0  0  0  0  0  0  0  0  0  0  0  0
   32.8257   15.3641   -9.6347 O   0  0  0  0  0  0  0  0  0  0  0  0
   32.8132   16.0415  -10.3498 H   0  0  0  0  0  0  0  0  0  0  0  0
   32.2339   15.4867   -7.3216 C   0  0  0  0  0  0  0  0  0  0  0  0
   31.6560   16.6423   -6.7395 N   0  0  0  0  0  0  0  0  0  0  0  0
   32.5432   17.6284   -6.2966 C   0  0  0  0  0  0  0  0  0  0  0  0
   32.0665   19.0369   -6.3096 C   0  0  0  0  0  0  0  0  0  0  0  0
   30.7082   19.1959   -6.3989 O   0  0  0  0  0  0  0  0  0  0  0  0
   30.3114   18.5088   -7.5700 C   0  0  0  0  0  0  0  0  0  0  0  0
   30.3851   17.0424   -7.2054 C   0  0  0  0  0  0  0  0  0  0  0  0
  1  2  1  0  0  0
  2  3  1  0  0  0
  3  4  1  0  0  0
  4  9  1  0  0  0
  9 10  2  0  0  0
 10 11  1  0  0  0
 11 12  2  0  0  0
 11 13  1  0  0  0
 13 14  1  0  0  0
 14 15  2  0  0  0
 15 16  1  0  0  0
 16 17  2  0  0  0
 17 18  1  0  0  0
 17 19  1  0  0  0
 19 20  2  0  0  0
  4  5  2  0  0  0
  5  6  1  0  0  0
  5  7  1  0  0  0
  7 22  1  0  0  0
 22 23  2  0  0  0
 22 24  1  0  0  0
 24 26  1  0  0  0
 26 27  1  0  0  0
 27 28  1  0  0  0
 27 30  1  0  0  0
 30 31  1  0  0  0
 31 32  1  0  0  0
 32 33  1  0  0  0
 33 34  1  0  0  0
 34 35  1  0  0  0
 35 36  1  0  0  0
  7  2  2  0  0  0
 36 31  1  0  0  0
 20 10  1  0  0  0
 20 14  1  0  0  0
  3  8  1  0  0  0
 13 21  1  0  0  0
 24 25  1  0  0  0
 28 29  1  0  0  0
M  END
> <minimizedAffinity>
-9.05897

> <CNNscore>
0.2910304070

> <CNNaffinity>
5.9420719147

> <CNN_VS>
1.7293236256

> <CNNaffinity_variance>
0.1749778092

$$$$
[H]O[C@]([H])(C([H])([H])N([H])C(=O)c1c(C([H])([H])[H])c(/C([H])=C2\C(=O)N([H])c3c([H])c([H])c(F)c([H])c32)n([H])c1C([H])([H])[H])C([H])([H])N1C([H])([H])C([H])([H])OC([H])([H])C1([H])[H]


 36 39  0  0  0  0  0  0  0  0999 V2000
   41.7382   16.4637  -11.8938 C   0  0  0  0  0  0  0  0  0  0  0  0
   40.4590   15.7762  -12.2479 C   0  0  0  0  0  0  0  0  0  0  0  0
   40.2217   14.9877  -13.2909 N   0  0  0  0  0  0  0  0  0  0  0  0
   38.9671   14.5651  -13.2783 C   0  0  0  0  0  0  0  0  0  0  0  0
   38.3416   15.1228  -12.1400 C   0  0  0  0  0  0  0  0  0  0  0  0
   36.9268   14.8691  -11.7524 C   0  0  0  0  0  0  0  0  0  0  0  0
   39.2614   15.8690  -11.5056 C   0  0  0  0  0  0  0  0  0  0  0  0
   40.9707   14.7691  -14.0201 H   0  0  0  0  0  0  0  0  0  0  0  0
   38.2427   13.6811  -14.1719 C   0  0  0  0  0  0  0  0  0  0  0  0
   38.7648   13.0046  -15.1719 C   0  0  0  0  0  0  0  0  0  0  0  0
   40.1521   12.9819  -15.5964 C   0  0  0  0  0  0  0  0  0  0  0  0
   41.1277   13.6002  -15.0627 O   0  0  0  0  0  0  0  0  0  0  0  0
   40.2085   12.1236  -16.7322 N   0  0  0  0  0  0  0  0  0  0  0  0
   38.9053   11.6001  -17.0425 C   0  0  0  0  0  0  0  0  0  0  0  0
   38.4456   10.7460  -18.0239 C   0  0  0  0  0  0  0  0  0  0  0  0
   37.1207   10.4036  -18.0911 C   0  0  0  0  0  0  0  0  0  0  0  0
   36.2331   10.9184  -17.1664 C   0  0  0  0  0  0  0  0  0  0  0  0
   34.9136   10.5724  -17.2400 F   0  0  0  0  0  0  0  0  0  0  0  0
   36.7079   11.7697  -16.1927 C   0  0  0  0  0  0  0  0  0  0  0  0
   38.0352   12.1239  -16.1109 C   0  0  0  0  0  0  0  0  0  0  0  0
   41.0634   11.9085  -17.2573 H   0  0  0  0  0  0  0  0  0  0  0  0
   39.1447   16.6265  -10.2567 C   0  0  0  0  0  0  0  0  0  0  0  0
   38.8042   17.8552  -10.3917 O   0  0  0  0  0  0  0  0  0  0  0  0
   39.3597   16.1436   -8.9730 N   0  0  0  0  0  0  0  0  0  0  0  0
   39.6257   15.0973   -8.8958 H   0  0  0  0  0  0  0  0  0  0  0  0
   39.2571   16.8175   -7.7140 C   0  0  0  0  0  0  0  0  0  0  0  0
   38.0283   16.5119   -6.9382 C   0  0  0  0  0  0  0  0  0  0  0  0
   38.1919   16.5116   -5.5721 O   0  0  0  0  0  0  0  0  0  0  0  0
   38.1193   15.6272   -5.1447 H   0  0  0  0  0  0  0  0  0  0  0  0
   36.9559   17.5206   -7.3525 C   0  0  0  0  0  0  0  0  0  0  0  0
   37.2345   18.8341   -6.8992 N   0  0  0  0  0  0  0  0  0  0  0  0
   37.4660   19.7986   -7.8849 C   0  0  0  0  0  0  0  0  0  0  0  0
   37.1107   21.2067   -7.5646 C   0  0  0  0  0  0  0  0  0  0  0  0
   36.9416   21.4807   -6.2325 O   0  0  0  0  0  0  0  0  0  0  0  0
   35.9492   20.5836   -5.7728 C   0  0  0  0  0  0  0  0  0  0  0  0
   36.6462   19.2439   -5.6833 C   0  0  0  0  0  0  0  0  0  0  0  0
  1  2  1  0  0  0
  2  3  1  0  0  0
  3  4  1  0  0  0
  4  9  1  0  0  0
  9 10  2  0  0  0
 10 11  1  0  0  0
 11 12  2  0  0  0
 11 13  1  0  0  0
 13 14  1  0  0  0
 14 15  2  0  0  0
 15 16  1  0  0  0
 16 17  2  0  0  0
 17 18  1  0  0  0
 17 19  1  0  0  0
 19 20  2  0  0  0
  4  5  2  0  0  0
  5  6  1  0  0  0
  5  7  1  0  0  0
  7 22  1  0  0  0
 22 23  2  0  0  0
 22 24  1  0  0  0
 24 26  1  0  0  0
 26 27  1  0  0  0
 27 28  1  0  0  0
 27 30  1  0  0  0
 30 31  1  0  0  0
 31 32  1  0  0  0
 32 33  1  0  0  0
 33 34  1  0  0  0
 34 35  1  0  0  0
 35 36  1  0  0  0
  7  2  2  0  0  0
 36 31  1  0  0  0
 20 10  1  0  0  0
 20 14  1  0  0  0
  3  8  1  0  0  0
 13 21  1  0  0  0
 24 25  1  0  0  0
 28 29  1  0  0  0
M  END
> <minimizedAffinity>
-8.44883

> <CNNscore>
0.2788831890

> <CNNaffinity>
6.1159939766

> <CNN_VS>
1.7056479454

> <CNNaffinity_variance>
0.4176424146

$$$$
[H]O[C@]([H])(C([H])([H])N([H])C(=O)c1c(C([H])([H])[H])c(/C([H])=C2\C(=O)N([H])c3c([H])c([H])c(F)c([H])c32)n([H])c1C([H])([H])[H])C([H])([H])N1C([H])([H])C([H])([H])OC([H])([H])C1([H])[H]


 36 39  0  0  0  0  0  0  0  0999 V2000
   39.0254   16.3071  -10.3875 C   0  0  0  0  0  0  0  0  0  0  0  0
   38.3848   15.3214  -11.3109 C   0  0  0  0  0  0  0  0  0  0  0  0
   38.8748   14.8330  -12.4454 N   0  0  0  0  0  0  0  0  0  0  0  0
   38.0184   13.9861  -12.9952 C   0  0  0  0  0  0  0  0  0  0  0  0
   36.8850   13.9203  -12.1533 C   0  0  0  0  0  0  0  0  0  0  0  0
   35.7002   13.0559  -12.4088 C   0  0  0  0  0  0  0  0  0  0  0  0
   37.1113   14.7434  -11.1158 C   0  0  0  0  0  0  0  0  0  0  0  0
   39.8278   15.1280  -12.8264 H   0  0  0  0  0  0  0  0  0  0  0  0
   38.0993   13.1883  -14.2043 C   0  0  0  0  0  0  0  0  0  0  0  0
   39.1431   13.1049  -15.0004 C   0  0  0  0  0  0  0  0  0  0  0  0
   40.4243   13.7696  -14.8524 C   0  0  0  0  0  0  0  0  0  0  0  0
   40.7823   14.5437  -13.9081 O   0  0  0  0  0  0  0  0  0  0  0  0
   41.2087   13.3802  -15.9763 N   0  0  0  0  0  0  0  0  0  0  0  0
   40.4699   12.4908  -16.8317 C   0  0  0  0  0  0  0  0  0  0  0  0
   40.7807   11.8514  -18.0144 C   0  0  0  0  0  0  0  0  0  0  0  0
   39.8673   11.0392  -18.6333 C   0  0  0  0  0  0  0  0  0  0  0  0
   38.6201   10.8568  -18.0683 C   0  0  0  0  0  0  0  0  0  0  0  0
   37.7148   10.0454  -18.6914 F   0  0  0  0  0  0  0  0  0  0  0  0
   38.3254   11.5020  -16.8871 C   0  0  0  0  0  0  0  0  0  0  0  0
   39.2310   12.3212  -16.2525 C   0  0  0  0  0  0  0  0  0  0  0  0
   42.1703   13.6925  -16.1512 H   0  0  0  0  0  0  0  0  0  0  0  0
   36.2756   15.0133   -9.9426 C   0  0  0  0  0  0  0  0  0  0  0  0
   35.3664   15.9014  -10.1111 O   0  0  0  0  0  0  0  0  0  0  0  0
   36.3749   14.4053   -8.6985 N   0  0  0  0  0  0  0  0  0  0  0  0
   37.1402   13.6463   -8.5988 H   0  0  0  0  0  0  0  0  0  0  0  0
   35.5937   14.6100   -7.5164 C   0  0  0  0  0  0  0  0  0  0  0  0
   36.0414   13.8395   -6.3284 C   0  0  0  0  0  0  0  0  0  0  0  0
   36.8936   12.7951   -6.6040 O   0  0  0  0  0  0  0  0  0  0  0  0
   36.5125   11.8983   -6.4603 H   0  0  0  0  0  0  0  0  0  0  0  0
   36.6923   14.8242   -5.3558 C   0  0  0  0  0  0  0  0  0  0  0  0
   35.7684   15.3749   -4.4331 N   0  0  0  0  0  0  0  0  0  0  0  0
   35.6389   16.7673   -4.4352 C   0  0  0  0  0  0  0  0  0  0  0  0
   34.3235   17.3352   -4.0368 C   0  0  0  0  0  0  0  0  0  0  0  0
   33.4945   16.4777   -3.3616 O   0  0  0  0  0  0  0  0  0  0  0  0
   33.3339   15.3497   -4.1999 C   0  0  0  0  0  0  0  0  0  0  0  0
   34.6413   14.5960   -4.0937 C   0  0  0  0  0  0  0  0  0  0  0  0
  1  2  1  0  0  0
  2  3  1  0  0  0
  3  4  1  0  0  0
  4  9  1  0  0  0
  9 10  2  0  0  0
 10 11  1  0  0  0
 11 12  2  0  0  0
 11 13  1  0  0  0
 13 14  1  0  0  0
 14 15  2  0  0  0
 15 16  1  0  0  0
 16 17  2  0  0  0
 17 18  1  0  0  0
 17 19  1  0  0  0
 19 20  2  0  0  0
  4  5  2  0  0  0
  5  6  1  0  0  0
  5  7  1  0  0  0
  7 22  1  0  0  0
 22 23  2  0  0  0
 22 24  1  0  0  0
 24 26  1  0  0  0
 26 27  1  0  0  0
 27 28  1  0  0  0
 27 30  1  0  0  0
 30 31  1  0  0  0
 31 32  1  0  0  0
 32 33  1  0  0  0
 33 34  1  0  0  0
 34 35  1  0  0  0
 35 36  1  0  0  0
  7  2  2  0  0  0
 36 31  1  0  0  0
 20 10  1  0  0  0
 20 14  1  0  0  0
  3  8  1  0  0  0
 13 21  1  0  0  0
 24 25  1  0  0  0
 28 29  1  0  0  0
M  END
> <minimizedAffinity>
-9.21202

> <CNNscore>
0.2451955527

> <CNNaffinity>
5.8983888626

> <CNN_VS>
1.4462586641

> <CNNaffinity_variance>
0.2954288423

$$$$
[H]/C(=C(/[H])c1nn([H])c2c([H])c([H])c([H])c([H])c12)c1c([H])c([H])c(C(=O)N2C([H])([H])C([H])([H])N([H])C([H])([H])C2([H])[H])c([H])c1[H]


 27 30  0  0  0  0  0  0  0  0999 V2000
   45.4874   14.5579  -13.6360 C   0  0  0  0  0  0  0  0  0  0  0  0
   45.8700   13.9249  -14.7918 C   0  0  0  0  0  0  0  0  0  0  0  0
   44.9381   13.2861  -15.6339 C   0  0  0  0  0  0  0  0  0  0  0  0
   43.6008   13.2776  -15.3189 C   0  0  0  0  0  0  0  0  0  0  0  0
   43.2194   13.9118  -14.1616 C   0  0  0  0  0  0  0  0  0  0  0  0
   44.1124   14.5357  -13.3350 C   0  0  0  0  0  0  0  0  0  0  0  0
   46.7772   14.5032  -11.7213 O   0  0  0  0  0  0  0  0  0  0  0  0
   46.3858   15.2242  -12.7353 C   0  0  0  0  0  0  0  0  0  0  0  0
   46.9309   16.5080  -12.7295 N   0  0  0  0  0  0  0  0  0  0  0  0
   47.8420   16.8591  -11.6113 C   0  0  0  0  0  0  0  0  0  0  0  0
   47.4040   18.1089  -10.9183 C   0  0  0  0  0  0  0  0  0  0  0  0
   47.0554   19.1282  -11.9016 N   0  0  0  0  0  0  0  0  0  0  0  0
   47.5502   18.7760  -13.2094 C   0  0  0  0  0  0  0  0  0  0  0  0
   46.7285   17.5613  -13.6846 C   0  0  0  0  0  0  0  0  0  0  0  0
   47.3764   20.0730  -11.6185 H   0  0  0  0  0  0  0  0  0  0  0  0
   42.6696   12.6071  -16.2141 C   0  0  0  0  0  0  0  0  0  0  0  0
   41.3706   12.8283  -16.2432 C   0  0  0  0  0  0  0  0  0  0  0  0
   40.5108   12.0916  -17.1939 C   0  0  0  0  0  0  0  0  0  0  0  0
   40.8884   11.5993  -18.3856 N   0  0  0  0  0  0  0  0  0  0  0  0
   39.8789   11.0047  -18.9684 N   0  0  0  0  0  0  0  0  0  0  0  0
   38.8066   11.1083  -18.1370 C   0  0  0  0  0  0  0  0  0  0  0  0
   37.5332   10.6419  -18.3125 C   0  0  0  0  0  0  0  0  0  0  0  0
   36.5926   10.8684  -17.3157 C   0  0  0  0  0  0  0  0  0  0  0  0
   36.9697   11.5576  -16.1770 C   0  0  0  0  0  0  0  0  0  0  0  0
   38.2559   12.0254  -16.0060 C   0  0  0  0  0  0  0  0  0  0  0  0
   39.1785   11.7940  -17.0019 C   0  0  0  0  0  0  0  0  0  0  0  0
   39.9268   10.5452  -19.9027 H   0  0  0  0  0  0  0  0  0  0  0  0
  7  8  2  0  0  0
  8  9  1  0  0  0
  9 10  1  0  0  0
 10 11  1  0  0  0
 11 12  1  0  0  0
 12 13  1  0  0  0
 13 14  1  0  0  0
  8  1  1  0  0  0
  1  2  2  0  0  0
  2  3  1  0  0  0
  3  4  2  0  0  0
  4 16  1  0  0  0
 16 17  2  0  0  0
 17 18  1  0  0  0
 18 19  2  0  0  0
 19 20  1  0  0  0
 20 21  1  0  0  0
 21 22  2  0  0  0
 22 23  1  0  0  0
 23 24  2  0  0  0
 24 25  1  0  0  0
 25 26  2  0  0  0
  4  5  1  0  0  0
  5  6  2  0  0  0
 14  9  1  0  0  0
  6  1  1  0  0  0
 26 18  1  0  0  0
 26 21  1  0  0  0
 12 15  1  0  0  0
 20 27  1  0  0  0
M  END
> <minimizedAffinity>
-8.29657

> <CNNscore>
0.8758938313

> <CNNaffinity>
6.1045656204

> <CNN_VS>
5.3469514847

> <CNNaffinity_variance>
0.2135129422

$$$$
[H]/C(=C(/[H])c1nn([H])c2c([H])c([H])c([H])c([H])c12)c1c([H])c([H])c(C(=O)N2C([H])([H])C([H])([H])N([H])C([H])([H])C2([H])[H])c([H])c1[H]


 27 30  0  0  0  0  0  0  0  0999 V2000
   43.9542   14.2675  -14.1189 C   0  0  0  0  0  0  0  0  0  0  0  0
   42.6935   14.2119  -13.5799 C   0  0  0  0  0  0  0  0  0  0  0  0
   41.6180   13.6100  -14.2629 C   0  0  0  0  0  0  0  0  0  0  0  0
   41.8015   13.0534  -15.5055 C   0  0  0  0  0  0  0  0  0  0  0  0
   43.0641   13.1098  -16.0438 C   0  0  0  0  0  0  0  0  0  0  0  0
   44.1171   13.6905  -15.3926 C   0  0  0  0  0  0  0  0  0  0  0  0
   46.0013   14.0231  -13.0786 O   0  0  0  0  0  0  0  0  0  0  0  0
   45.0901   14.8672  -13.4767 C   0  0  0  0  0  0  0  0  0  0  0  0
   45.4171   16.1924  -13.1900 N   0  0  0  0  0  0  0  0  0  0  0  0
   46.7052   16.4442  -12.4965 C   0  0  0  0  0  0  0  0  0  0  0  0
   46.5115   17.2576  -11.2576 C   0  0  0  0  0  0  0  0  0  0  0  0
   45.6175   18.3771  -11.5309 N   0  0  0  0  0  0  0  0  0  0  0  0
   45.4607   18.5795  -12.9500 C   0  0  0  0  0  0  0  0  0  0  0  0
   44.6597   17.3762  -13.4858 C   0  0  0  0  0  0  0  0  0  0  0  0
   45.9224   19.2480  -11.0570 H   0  0  0  0  0  0  0  0  0  0  0  0
   40.6657   12.4412  -16.1789 C   0  0  0  0  0  0  0  0  0  0  0  0
   39.4432   12.3940  -15.6888 C   0  0  0  0  0  0  0  0  0  0  0  0
   38.3577   11.7467  -16.4560 C   0  0  0  0  0  0  0  0  0  0  0  0
   38.5013   11.0425  -17.5911 N   0  0  0  0  0  0  0  0  0  0  0  0
   37.3374   10.6100  -18.0040 N   0  0  0  0  0  0  0  0  0  0  0  0
   36.4012   11.0415  -17.1157 C   0  0  0  0  0  0  0  0  0  0  0  0
   35.0487   10.8398  -17.1244 C   0  0  0  0  0  0  0  0  0  0  0  0
   34.2829   11.3826  -16.1005 C   0  0  0  0  0  0  0  0  0  0  0  0
   34.9084   12.1100  -15.1037 C   0  0  0  0  0  0  0  0  0  0  0  0
   36.2732   12.3099  -15.1006 C   0  0  0  0  0  0  0  0  0  0  0  0
   37.0206   11.7662  -16.1216 C   0  0  0  0  0  0  0  0  0  0  0  0
   37.1934   10.0397  -18.8644 H   0  0  0  0  0  0  0  0  0  0  0  0
  7  8  2  0  0  0
  8  9  1  0  0  0
  9 10  1  0  0  0
 10 11  1  0  0  0
 11 12  1  0  0  0
 12 13  1  0  0  0
 13 14  1  0  0  0
  8  1  1  0  0  0
  1  2  2  0  0  0
  2  3  1  0  0  0
  3  4  2  0  0  0
  4 16  1  0  0  0
 16 17  2  0  0  0
 17 18  1  0  0  0
 18 19  2  0  0  0
 19 20  1  0  0  0
 20 21  1  0  0  0
 21 22  2  0  0  0
 22 23  1  0  0  0
 23 24  2  0  0  0
 24 25  1  0  0  0
 25 26  2  0  0  0
  4  5  1  0  0  0
  5  6  2  0  0  0
 14  9  1  0  0  0
  6  1  1  0  0  0
 26 18  1  0  0  0
 26 21  1  0  0  0
 12 15  1  0  0  0
 20 27  1  0  0  0
M  END
> <minimizedAffinity>
-8.88027

> <CNNscore>
0.4680674374

> <CNNaffinity>
5.9212298393

> <CNN_VS>
2.7715349197

> <CNNaffinity_variance>
0.1797706187

$$$$
[H]/C(=C(/[H])c1nn([H])c2c([H])c([H])c([H])c([H])c12)c1c([H])c([H])c(C(=O)N2C([H])([H])C([H])([H])N([H])C([H])([H])C2([H])[H])c([H])c1[H]


 27 30  0  0  0  0  0  0  0  0999 V2000
   43.7178   13.2386  -15.0919 C   0  0  0  0  0  0  0  0  0  0  0  0
   42.7448   13.6669  -14.2242 C   0  0  0  0  0  0  0  0  0  0  0  0
   41.3736   13.4981  -14.5016 C   0  0  0  0  0  0  0  0  0  0  0  0
   40.9642   12.8917  -15.6645 C   0  0  0  0  0  0  0  0  0  0  0  0
   41.9394   12.4635  -16.5320 C   0  0  0  0  0  0  0  0  0  0  0  0
   43.2735   12.6205  -16.2761 C   0  0  0  0  0  0  0  0  0  0  0  0
   45.8068   12.2690  -14.9236 O   0  0  0  0  0  0  0  0  0  0  0  0
   45.1294   13.3822  -14.8697 C   0  0  0  0  0  0  0  0  0  0  0  0
   45.9312   14.4920  -14.6040 N   0  0  0  0  0  0  0  0  0  0  0  0
   47.3860   14.2572  -14.4242 C   0  0  0  0  0  0  0  0  0  0  0  0
   47.8782   14.8266  -13.1328 C   0  0  0  0  0  0  0  0  0  0  0  0
   47.3437   16.1705  -12.9446 N   0  0  0  0  0  0  0  0  0  0  0  0
   46.7989   16.6877  -14.1755 C   0  0  0  0  0  0  0  0  0  0  0  0
   45.5311   15.8659  -14.4818 C   0  0  0  0  0  0  0  0  0  0  0  0
   48.0451   16.8191  -12.5405 H   0  0  0  0  0  0  0  0  0  0  0  0
   39.5389   12.7359  -15.9148 C   0  0  0  0  0  0  0  0  0  0  0  0
   38.9273   11.5770  -16.0557 C   0  0  0  0  0  0  0  0  0  0  0  0
   37.4714   11.5290  -16.3079 C   0  0  0  0  0  0  0  0  0  0  0  0
   36.8781   11.1554  -17.4540 N   0  0  0  0  0  0  0  0  0  0  0  0
   35.5772   11.2298  -17.3337 N   0  0  0  0  0  0  0  0  0  0  0  0
   35.3065   11.6645  -16.0729 C   0  0  0  0  0  0  0  0  0  0  0  0
   34.0942   11.8956  -15.4838 C   0  0  0  0  0  0  0  0  0  0  0  0
   34.0617   12.3426  -14.1691 C   0  0  0  0  0  0  0  0  0  0  0  0
   35.2532   12.5407  -13.4946 C   0  0  0  0  0  0  0  0  0  0  0  0
   36.4728   12.3057  -14.0945 C   0  0  0  0  0  0  0  0  0  0  0  0
   36.4908   11.8629  -15.3984 C   0  0  0  0  0  0  0  0  0  0  0  0
   34.9020   10.9904  -18.0907 H   0  0  0  0  0  0  0  0  0  0  0  0
  7  8  2  0  0  0
  8  9  1  0  0  0
  9 10  1  0  0  0
 10 11  1  0  0  0
 11 12  1  0  0  0
 12 13  1  0  0  0
 13 14  1  0  0  0
  8  1  1  0  0  0
  1  2  2  0  0  0
  2  3  1  0  0  0
  3  4  2  0  0  0
  4 16  1  0  0  0
 16 17  2  0  0  0
 17 18  1  0  0  0
 18 19  2  0  0  0
 19 20  1  0  0  0
 20 21  1  0  0  0
 21 22  2  0  0  0
 22 23  1  0  0  0
 23 24  2  0  0  0
 24 25  1  0  0  0
 25 26  2  0  0  0
  4  5  1  0  0  0
  5  6  2  0  0  0
 14  9  1  0  0  0
  6  1  1  0  0  0
 26 18  1  0  0  0
 26 21  1  0  0  0
 12 15  1  0  0  0
 20 27  1  0  0  0
M  END
> <minimizedAffinity>
-8.98905

> <CNNscore>
0.3646122813

> <CNNaffinity>
5.8137044907

> <CNN_VS>
2.1197481155

> <CNNaffinity_variance>
0.0772135481

$$$$
[H]/C(=C(/[H])c1nn([H])c2c([H])c([H])c([H])c([H])c12)c1c([H])c([H])c(C(=O)N2C([H])([H])C([H])([H])N([H])C([H])([H])C2([H])[H])c([H])c1[H]


 27 30  0  0  0  0  0  0  0  0999 V2000
   37.8758   12.4147  -15.6001 C   0  0  0  0  0  0  0  0  0  0  0  0
   38.6988   13.1685  -14.8018 C   0  0  0  0  0  0  0  0  0  0  0  0
   40.0874   13.2469  -15.0282 C   0  0  0  0  0  0  0  0  0  0  0  0
   40.6667   12.5620  -16.0688 C   0  0  0  0  0  0  0  0  0  0  0  0
   39.8414   11.8078  -16.8671 C   0  0  0  0  0  0  0  0  0  0  0  0
   38.4926   11.7224  -16.6594 C   0  0  0  0  0  0  0  0  0  0  0  0
   35.8534   11.5664  -16.3233 O   0  0  0  0  0  0  0  0  0  0  0  0
   36.4561   12.2913  -15.4219 C   0  0  0  0  0  0  0  0  0  0  0  0
   35.5812   12.8001  -14.4622 N   0  0  0  0  0  0  0  0  0  0  0  0
   34.1428   12.4598  -14.5993 C   0  0  0  0  0  0  0  0  0  0  0  0
   33.2869   13.6851  -14.6020 C   0  0  0  0  0  0  0  0  0  0  0  0
   33.7079   14.5897  -13.5382 N   0  0  0  0  0  0  0  0  0  0  0  0
   34.5666   13.9159  -12.5959 C   0  0  0  0  0  0  0  0  0  0  0  0
   35.8915   13.6258  -13.3289 C   0  0  0  0  0  0  0  0  0  0  0  0
   32.9026   15.0373  -13.0616 H   0  0  0  0  0  0  0  0  0  0  0  0
   42.1042   12.6684  -16.2698 C   0  0  0  0  0  0  0  0  0  0  0  0
   42.9885   12.7766  -15.2985 C   0  0  0  0  0  0  0  0  0  0  0  0
   44.4298   12.8790  -15.6115 C   0  0  0  0  0  0  0  0  0  0  0  0
   44.9938   12.6917  -16.8164 N   0  0  0  0  0  0  0  0  0  0  0  0
   46.2893   12.8590  -16.7391 N   0  0  0  0  0  0  0  0  0  0  0  0
   46.5865   13.1652  -15.4469 C   0  0  0  0  0  0  0  0  0  0  0  0
   47.8044   13.4259  -14.8823 C   0  0  0  0  0  0  0  0  0  0  0  0
   47.8662   13.7180  -13.5257 C   0  0  0  0  0  0  0  0  0  0  0  0
   46.6971   13.7369  -12.7863 C   0  0  0  0  0  0  0  0  0  0  0  0
   45.4717   13.4730  -13.3618 C   0  0  0  0  0  0  0  0  0  0  0  0
   45.4246   13.1849  -14.7077 C   0  0  0  0  0  0  0  0  0  0  0  0
   46.9434   12.7660  -17.5452 H   0  0  0  0  0  0  0  0  0  0  0  0
  7  8  2  0  0  0
  8  9  1  0  0  0
  9 10  1  0  0  0
 10 11  1  0  0  0
 11 12  1  0  0  0
 12 13  1  0  0  0
 13 14  1  0  0  0
  8  1  1  0  0  0
  1  2  2  0  0  0
  2  3  1  0  0  0
  3  4  2  0  0  0
  4 16  1  0  0  0
 16 17  2  0  0  0
 17 18  1  0  0  0
 18 19  2  0  0  0
 19 20  1  0  0  0
 20 21  1  0  0  0
 21 22  2  0  0  0
 22 23  1  0  0  0
 23 24  2  0  0  0
 24 25  1  0  0  0
 25 26  2  0  0  0
  4  5  1  0  0  0
  5  6  2  0  0  0
 14  9  1  0  0  0
  6  1  1  0  0  0
 26 18  1  0  0  0
 26 21  1  0  0  0
 12 15  1  0  0  0
 20 27  1  0  0  0
M  END
> <minimizedAffinity>
-8.63029

> <CNNscore>
0.3637435436

> <CNNaffinity>
5.9980010986

> <CNN_VS>
2.1817340851

> <CNNaffinity_variance>
0.0486955643

$$$$
[H]/C(=C(/[H])c1nn([H])c2c([H])c([H])c([H])c([H])c12)c1c([H])c([H])c(C(=O)N2C([H])([H])C([H])([H])N([H])C([H])([H])C2([H])[H])c([H])c1[H]


 27 30  0  0  0  0  0  0  0  0999 V2000
   36.2258   16.6517   -9.3282 C   0  0  0  0  0  0  0  0  0  0  0  0
   34.9776   16.2745   -9.7555 C   0  0  0  0  0  0  0  0  0  0  0  0
   34.7881   15.5377  -10.9415 C   0  0  0  0  0  0  0  0  0  0  0  0
   35.8616   15.1698  -11.7161 C   0  0  0  0  0  0  0  0  0  0  0  0
   37.1105   15.5481  -11.2870 C   0  0  0  0  0  0  0  0  0  0  0  0
   37.3095   16.2631  -10.1385 C   0  0  0  0  0  0  0  0  0  0  0  0
   36.1213   16.8153   -7.0271 O   0  0  0  0  0  0  0  0  0  0  0  0
   36.4860   17.4036   -8.1326 C   0  0  0  0  0  0  0  0  0  0  0  0
   37.0596   18.6563   -7.9159 N   0  0  0  0  0  0  0  0  0  0  0  0
   37.1670   19.1255   -6.5116 C   0  0  0  0  0  0  0  0  0  0  0  0
   36.5451   20.4730   -6.3343 C   0  0  0  0  0  0  0  0  0  0  0  0
   36.9586   21.3593   -7.4163 N   0  0  0  0  0  0  0  0  0  0  0  0
   38.0875   20.8140   -8.1288 C   0  0  0  0  0  0  0  0  0  0  0  0
   37.5772   19.5749   -8.8909 C   0  0  0  0  0  0  0  0  0  0  0  0
   37.1522   22.3223   -7.0829 H   0  0  0  0  0  0  0  0  0  0  0  0
   35.6248   14.4092  -12.9341 C   0  0  0  0  0  0  0  0  0  0  0  0
   35.2992   13.1324  -12.9663 C   0  0  0  0  0  0  0  0  0  0  0  0
   35.0801   12.4521  -14.2605 C   0  0  0  0  0  0  0  0  0  0  0  0
   33.8926   12.0893  -14.7734 N   0  0  0  0  0  0  0  0  0  0  0  0
   34.0607   11.5098  -15.9345 N   0  0  0  0  0  0  0  0  0  0  0  0
   35.3965   11.4908  -16.1934 C   0  0  0  0  0  0  0  0  0  0  0  0
   36.0553   10.9900  -17.2821 C   0  0  0  0  0  0  0  0  0  0  0  0
   37.4404   11.0832  -17.3294 C   0  0  0  0  0  0  0  0  0  0  0  0
   38.1124   11.6783  -16.2767 C   0  0  0  0  0  0  0  0  0  0  0  0
   37.4420   12.1815  -15.1813 C   0  0  0  0  0  0  0  0  0  0  0  0
   36.0688   12.0826  -15.1472 C   0  0  0  0  0  0  0  0  0  0  0  0
   33.2853   11.1418  -16.5259 H   0  0  0  0  0  0  0  0  0  0  0  0
  7  8  2  0  0  0
  8  9  1  0  0  0
  9 10  1  0  0  0
 10 11  1  0  0  0
 11 12  1  0  0  0
 12 13  1  0  0  0
 13 14  1  0  0  0
  8  1  1  0  0  0
  1  2  2  0  0  0
  2  3  1  0  0  0
  3  4  2  0  0  0
  4 16  1  0  0  0
 16 17  2  0  0  0
 17 18  1  0  0  0
 18 19  2  0  0  0
 19 20  1  0  0  0
 20 21  1  0  0  0
 21 22  2  0  0  0
 22 23  1  0  0  0
 23 24  2  0  0  0
 24 25  1  0  0  0
 25 26  2  0  0  0
  4  5  1  0  0  0
  5  6  2  0  0  0
 14  9  1  0  0  0
  6  1  1  0  0  0
 26 18  1  0  0  0
 26 21  1  0  0  0
 12 15  1  0  0  0
 20 27  1  0  0  0
M  END
> <minimizedAffinity>
-8.04853

> <CNNscore>
0.3047763109

> <CNNaffinity>
5.4263272285

> <CNN_VS>
1.6538159847

> <CNNaffinity_variance>
0.5137652755

$$$$
[H]/C(=C(/[H])c1nn([H])c2c([H])c([H])c([H])c([H])c12)c1c([H])c([H])c(C(=O)N2C([H])([H])C([H])([H])N([H])C([H])([H])C2([H])[H])c([H])c1[H]


 27 30  0  0  0  0  0  0  0  0999 V2000
   43.5524   14.0003  -14.3068 C   0  0  0  0  0  0  0  0  0  0  0  0
   43.5910   13.3452  -15.5119 C   0  0  0  0  0  0  0  0  0  0  0  0
   42.4290   12.8188  -16.1104 C   0  0  0  0  0  0  0  0  0  0  0  0
   41.2062   12.9473  -15.4974 C   0  0  0  0  0  0  0  0  0  0  0  0
   41.1691   13.6034  -14.2910 C   0  0  0  0  0  0  0  0  0  0  0  0
   42.2884   14.1193  -13.6985 C   0  0  0  0  0  0  0  0  0  0  0  0
   44.7582   15.8597  -13.6576 O   0  0  0  0  0  0  0  0  0  0  0  0
   44.6983   14.5568  -13.6438 C   0  0  0  0  0  0  0  0  0  0  0  0
   45.7757   13.9721  -12.9785 N   0  0  0  0  0  0  0  0  0  0  0  0
   46.7999   14.8807  -12.4048 C   0  0  0  0  0  0  0  0  0  0  0  0
   48.1730   14.5287  -12.8788 C   0  0  0  0  0  0  0  0  0  0  0  0
   48.3735   13.0863  -12.7986 N   0  0  0  0  0  0  0  0  0  0  0  0
   47.3578   12.4672  -11.9835 C   0  0  0  0  0  0  0  0  0  0  0  0
   46.0328   12.5755  -12.7641 C   0  0  0  0  0  0  0  0  0  0  0  0
   49.3251   12.8399  -12.4674 H   0  0  0  0  0  0  0  0  0  0  0  0
   40.0293   12.3900  -16.1474 C   0  0  0  0  0  0  0  0  0  0  0  0
   38.8505   12.2581  -15.5728 C   0  0  0  0  0  0  0  0  0  0  0  0
   37.7167   11.6779  -16.3237 C   0  0  0  0  0  0  0  0  0  0  0  0
   37.7934   11.0304  -17.4984 N   0  0  0  0  0  0  0  0  0  0  0  0
   36.6019   10.6482  -17.8814 N   0  0  0  0  0  0  0  0  0  0  0  0
   35.7160   11.0556  -16.9322 C   0  0  0  0  0  0  0  0  0  0  0  0
   34.3595   10.8873  -16.8919 C   0  0  0  0  0  0  0  0  0  0  0  0
   33.6525   11.3947  -15.8093 C   0  0  0  0  0  0  0  0  0  0  0  0
   34.3387   12.0540  -14.8051 C   0  0  0  0  0  0  0  0  0  0  0  0
   35.7072   12.2203  -14.8516 C   0  0  0  0  0  0  0  0  0  0  0  0
   36.3960   11.7125  -15.9306 C   0  0  0  0  0  0  0  0  0  0  0  0
   36.4066   10.1269  -18.7625 H   0  0  0  0  0  0  0  0  0  0  0  0
  7  8  2  0  0  0
  8  9  1  0  0  0
  9 10  1  0  0  0
 10 11  1  0  0  0
 11 12  1  0  0  0
 12 13  1  0  0  0
 13 14  1  0  0  0
  8  1  1  0  0  0
  1  2  2  0  0  0
  2  3  1  0  0  0
  3  4  2  0  0  0
  4 16  1  0  0  0
 16 17  2  0  0  0
 17 18  1  0  0  0
 18 19  2  0  0  0
 19 20  1  0  0  0
 20 21  1  0  0  0
 21 22  2  0  0  0
 22 23  1  0  0  0
 23 24  2  0  0  0
 24 25  1  0  0  0
 25 26  2  0  0  0
  4  5  1  0  0  0
  5  6  2  0  0  0
 14  9  1  0  0  0
  6  1  1  0  0  0
 26 18  1  0  0  0
 26 21  1  0  0  0
 12 15  1  0  0  0
 20 27  1  0  0  0
M  END
> <minimizedAffinity>
-8.72855

> <CNNscore>
0.2982315719

> <CNNaffinity>
5.8289632797

> <CNN_VS>
1.7383809090

> <CNNaffinity_variance>
0.1732455939

$$$$
[H]/C(=C(/[H])c1nn([H])c2c([H])c([H])c([H])c([H])c12)c1c([H])c([H])c(C(=O)N2C([H])([H])C([H])([H])N([H])C([H])([H])C2([H])[H])c([H])c1[H]


 27 30  0  0  0  0  0  0  0  0999 V2000
   43.7786   13.0554  -15.4116 C   0  0  0  0  0  0  0  0  0  0  0  0
   42.8441   12.6427  -16.3278 C   0  0  0  0  0  0  0  0  0  0  0  0
   41.4611   12.7608  -16.0850 C   0  0  0  0  0  0  0  0  0  0  0  0
   41.0005   13.2998  -14.9082 C   0  0  0  0  0  0  0  0  0  0  0  0
   41.9373   13.7126  -13.9920 C   0  0  0  0  0  0  0  0  0  0  0  0
   43.2822   13.6042  -14.2140 C   0  0  0  0  0  0  0  0  0  0  0  0
   45.5837   12.0063  -16.3983 O   0  0  0  0  0  0  0  0  0  0  0  0
   45.1996   12.9609  -15.5968 C   0  0  0  0  0  0  0  0  0  0  0  0
   46.2659   13.6981  -15.0823 N   0  0  0  0  0  0  0  0  0  0  0  0
   47.6346   13.3048  -15.5016 C   0  0  0  0  0  0  0  0  0  0  0  0
   48.5202   13.0591  -14.3229 C   0  0  0  0  0  0  0  0  0  0  0  0
   48.3532   14.1261  -13.3427 N   0  0  0  0  0  0  0  0  0  0  0  0
   47.6718   15.2578  -13.9210 C   0  0  0  0  0  0  0  0  0  0  0  0
   46.2180   14.8166  -14.1826 C   0  0  0  0  0  0  0  0  0  0  0  0
   49.2536   14.4079  -12.9116 H   0  0  0  0  0  0  0  0  0  0  0  0
   39.5647   13.4048  -14.6947 C   0  0  0  0  0  0  0  0  0  0  0  0
   38.6678   12.6087  -15.2416 C   0  0  0  0  0  0  0  0  0  0  0  0
   37.2296   12.8015  -14.9586 C   0  0  0  0  0  0  0  0  0  0  0  0
   36.7048   13.6774  -14.0855 N   0  0  0  0  0  0  0  0  0  0  0  0
   35.3995   13.5855  -14.0837 N   0  0  0  0  0  0  0  0  0  0  0  0
   35.0553   12.6220  -14.9809 C   0  0  0  0  0  0  0  0  0  0  0  0
   33.8109   12.1719  -15.3258 C   0  0  0  0  0  0  0  0  0  0  0  0
   33.7013   11.1670  -16.2785 C   0  0  0  0  0  0  0  0  0  0  0  0
   34.8509   10.6515  -16.8500 C   0  0  0  0  0  0  0  0  0  0  0  0
   36.1032   11.1099  -16.4978 C   0  0  0  0  0  0  0  0  0  0  0  0
   36.1977   12.1065  -15.5520 C   0  0  0  0  0  0  0  0  0  0  0  0
   34.7700   14.1641  -13.4876 H   0  0  0  0  0  0  0  0  0  0  0  0
  7  8  2  0  0  0
  8  9  1  0  0  0
  9 10  1  0  0  0
 10 11  1  0  0  0
 11 12  1  0  0  0
 12 13  1  0  0  0
 13 14  1  0  0  0
  8  1  1  0  0  0
  1  2  2  0  0  0
  2  3  1  0  0  0
  3  4  2  0  0  0
  4 16  1  0  0  0
 16 17  2  0  0  0
 17 18  1  0  0  0
 18 19  2  0  0  0
 19 20  1  0  0  0
 20 21  1  0  0  0
 21 22  2  0  0  0
 22 23  1  0  0  0
 23 24  2  0  0  0
 24 25  1  0  0  0
 25 26  2  0  0  0
  4  5  1  0  0  0
  5  6  2  0  0  0
 14  9  1  0  0  0
  6  1  1  0  0  0
 26 18  1  0  0  0
 26 21  1  0  0  0
 12 15  1  0  0  0
 20 27  1  0  0  0
M  END
> <minimizedAffinity>
-8.89386

> <CNNscore>
0.2910112739

> <CNNaffinity>
5.9028878212

> <CNN_VS>
1.7178069353

> <CNNaffinity_variance>
0.0244109929

$$$$
[H]/C(=C(/[H])c1nn([H])c2c([H])c([H])c([H])c([H])c12)c1c([H])c([H])c(C(=O)N2C([H])([H])C([H])([H])N([H])C([H])([H])C2([H])[H])c([H])c1[H]


 27 30  0  0  0  0  0  0  0  0999 V2000
   37.1759   13.6804  -14.1862 C   0  0  0  0  0  0  0  0  0  0  0  0
   36.0830   14.0140  -14.9459 C   0  0  0  0  0  0  0  0  0  0  0  0
   34.7817   14.0415  -14.4060 C   0  0  0  0  0  0  0  0  0  0  0  0
   34.5652   13.7311  -13.0852 C   0  0  0  0  0  0  0  0  0  0  0  0
   35.6603   13.3974  -12.3260 C   0  0  0  0  0  0  0  0  0  0  0  0
   36.9286   13.3666  -12.8363 C   0  0  0  0  0  0  0  0  0  0  0  0
   39.3539   14.4396  -14.0743 O   0  0  0  0  0  0  0  0  0  0  0  0
   38.5252   13.6316  -14.6756 C   0  0  0  0  0  0  0  0  0  0  0  0
   39.1342   12.8807  -15.6808 N   0  0  0  0  0  0  0  0  0  0  0  0
   40.5831   13.1013  -15.9167 C   0  0  0  0  0  0  0  0  0  0  0  0
   40.8632   13.4223  -17.3493 C   0  0  0  0  0  0  0  0  0  0  0  0
   40.1300   12.5082  -18.2176 N   0  0  0  0  0  0  0  0  0  0  0  0
   39.6401   11.3721  -17.4769 C   0  0  0  0  0  0  0  0  0  0  0  0
   38.5356   11.8955  -16.5373 C   0  0  0  0  0  0  0  0  0  0  0  0
   40.6912   12.2104  -19.0376 H   0  0  0  0  0  0  0  0  0  0  0  0
   33.2065   13.7708  -12.5649 C   0  0  0  0  0  0  0  0  0  0  0  0
   32.6024   14.8607  -12.1356 C   0  0  0  0  0  0  0  0  0  0  0  0
   31.2167   14.7922  -11.6251 C   0  0  0  0  0  0  0  0  0  0  0  0
   30.1020   14.7011  -12.3695 N   0  0  0  0  0  0  0  0  0  0  0  0
   29.0460   14.6608  -11.5977 N   0  0  0  0  0  0  0  0  0  0  0  0
   29.4777   14.7270  -10.3089 C   0  0  0  0  0  0  0  0  0  0  0  0
   28.7451   14.7182   -9.1542 C   0  0  0  0  0  0  0  0  0  0  0  0
   29.4102   14.7966   -7.9373 C   0  0  0  0  0  0  0  0  0  0  0  0
   30.7911   14.8811   -7.9278 C   0  0  0  0  0  0  0  0  0  0  0  0
   31.5242   14.8895   -9.0961 C   0  0  0  0  0  0  0  0  0  0  0  0
   30.8524   14.8113  -10.2957 C   0  0  0  0  0  0  0  0  0  0  0  0
   28.0660   14.5902  -11.9453 H   0  0  0  0  0  0  0  0  0  0  0  0
  7  8  2  0  0  0
  8  9  1  0  0  0
  9 10  1  0  0  0
 10 11  1  0  0  0
 11 12  1  0  0  0
 12 13  1  0  0  0
 13 14  1  0  0  0
  8  1  1  0  0  0
  1  2  2  0  0  0
  2  3  1  0  0  0
  3  4  2  0  0  0
  4 16  1  0  0  0
 16 17  2  0  0  0
 17 18  1  0  0  0
 18 19  2  0  0  0
 19 20  1  0  0  0
 20 21  1  0  0  0
 21 22  2  0  0  0
 22 23  1  0  0  0
 23 24  2  0  0  0
 24 25  1  0  0  0
 25 26  2  0  0  0
  4  5  1  0  0  0
  5  6  2  0  0  0
 14  9  1  0  0  0
  6  1  1  0  0  0
 26 18  1  0  0  0
 26 21  1  0  0  0
 12 15  1  0  0  0
 20 27  1  0  0  0
M  END
> <minimizedAffinity>
-7.21857

> <CNNscore>
0.2795341015

> <CNNaffinity>
5.8677291870

> <CNN_VS>
1.6402304173

> <CNNaffinity_variance>
0.3330339789

$$$$
[H]/C(=C(/[H])c1nn([H])c2c([H])c([H])c([H])c([H])c12)c1c([H])c([H])c(C(=O)N2C([H])([H])C([H])([H])N([H])C([H])([H])C2([H])[H])c([H])c1[H]


 27 30  0  0  0  0  0  0  0  0999 V2000
   43.1015   14.5392  -13.3377 C   0  0  0  0  0  0  0  0  0  0  0  0
   43.3208   13.6310  -14.3428 C   0  0  0  0  0  0  0  0  0  0  0  0
   42.2635   13.0926  -15.1030 C   0  0  0  0  0  0  0  0  0  0  0  0
   40.9642   13.4656  -14.8576 C   0  0  0  0  0  0  0  0  0  0  0  0
   40.7463   14.3749  -13.8512 C   0  0  0  0  0  0  0  0  0  0  0  0
   41.7622   14.9056  -13.1055 C   0  0  0  0  0  0  0  0  0  0  0  0
   44.3652   14.4975  -11.4054 O   0  0  0  0  0  0  0  0  0  0  0  0
   44.1329   15.1226  -12.5264 C   0  0  0  0  0  0  0  0  0  0  0  0
   44.9472   16.2413  -12.7017 N   0  0  0  0  0  0  0  0  0  0  0  0
   45.9235   16.5515  -11.6273 C   0  0  0  0  0  0  0  0  0  0  0  0
   45.7778   17.9580  -11.1429 C   0  0  0  0  0  0  0  0  0  0  0  0
   45.6530   18.8658  -12.2776 N   0  0  0  0  0  0  0  0  0  0  0  0
   46.0461   18.2176  -13.5043 C   0  0  0  0  0  0  0  0  0  0  0  0
   44.9727   17.1542  -13.8101 C   0  0  0  0  0  0  0  0  0  0  0  0
   46.1768   19.7494  -12.1331 H   0  0  0  0  0  0  0  0  0  0  0  0
   39.9000   12.8871  -15.6645 C   0  0  0  0  0  0  0  0  0  0  0  0
   38.8125   12.3257  -15.1753 C   0  0  0  0  0  0  0  0  0  0  0  0
   37.7895   11.7666  -16.0845 C   0  0  0  0  0  0  0  0  0  0  0  0
   38.0178   11.2027  -17.2824 N   0  0  0  0  0  0  0  0  0  0  0  0
   36.8900   10.8145  -17.8206 N   0  0  0  0  0  0  0  0  0  0  0  0
   35.8911   11.1316  -16.9526 C   0  0  0  0  0  0  0  0  0  0  0  0
   34.5452   10.9234  -17.0758 C   0  0  0  0  0  0  0  0  0  0  0  0
   33.7058   11.3362  -16.0489 C   0  0  0  0  0  0  0  0  0  0  0  0
   34.2536   11.9445  -14.9337 C   0  0  0  0  0  0  0  0  0  0  0  0
   35.6121   12.1516  -14.8154 C   0  0  0  0  0  0  0  0  0  0  0  0
   36.4330   11.7376  -15.8408 C   0  0  0  0  0  0  0  0  0  0  0  0
   36.8114   10.3491  -18.7498 H   0  0  0  0  0  0  0  0  0  0  0  0
  7  8  2  0  0  0
  8  9  1  0  0  0
  9 10  1  0  0  0
 10 11  1  0  0  0
 11 12  1  0  0  0
 12 13  1  0  0  0
 13 14  1  0  0  0
  8  1  1  0  0  0
  1  2  2  0  0  0
  2  3  1  0  0  0
  3  4  2  0  0  0
  4 16  1  0  0  0
 16 17  2  0  0  0
 17 18  1  0  0  0
 18 19  2  0  0  0
 19 20  1  0  0  0
 20 21  1  0  0  0
 21 22  2  0  0  0
 22 23  1  0  0  0
 23 24  2  0  0  0
 24 25  1  0  0  0
 25 26  2  0  0  0
  4  5  1  0  0  0
  5  6  2  0  0  0
 14  9  1  0  0  0
  6  1  1  0  0  0
 26 18  1  0  0  0
 26 21  1  0  0  0
 12 15  1  0  0  0
 20 27  1  0  0  0
M  END
> <minimizedAffinity>
-8.66640

> <CNNscore>
0.2756042480

> <CNNaffinity>
5.6943235397

> <CNN_VS>
1.5693798065

> <CNNaffinity_variance>
0.1891451627

$$$$
[H]O[C@]([H])(c1c([H])c([H])c([H])c([H])c1[H])C([H])([H])N([H])C(=O)c1c(C([H])([H])[H])c(/C([H])=C2\C(=O)N([H])c3c([H])c([H])c(F)c([H])c32)n([H])c1C([H])([H])[H]


 35 38  0  0  0  0  0  0  0  0999 V2000
   38.6372   16.3451  -10.4107 C   0  0  0  0  0  0  0  0  0  0  0  0
   37.9763   15.3667  -11.2762 C   0  0  0  0  0  0  0  0  0  0  0  0
   38.5467   14.8660  -12.4213 N   0  0  0  0  0  0  0  0  0  0  0  0
   37.7239   13.9929  -13.0062 C   0  0  0  0  0  0  0  0  0  0  0  0
   36.5914   13.9440  -12.1930 C   0  0  0  0  0  0  0  0  0  0  0  0
   35.4306   13.0833  -12.4963 C   0  0  0  0  0  0  0  0  0  0  0  0
   36.7430   14.7982  -11.1140 C   0  0  0  0  0  0  0  0  0  0  0  0
   39.4979   15.1378  -12.7529 H   0  0  0  0  0  0  0  0  0  0  0  0
   37.9105   13.2481  -14.2321 C   0  0  0  0  0  0  0  0  0  0  0  0
   39.0314   13.2056  -14.8924 C   0  0  0  0  0  0  0  0  0  0  0  0
   40.2878   13.8411  -14.6122 C   0  0  0  0  0  0  0  0  0  0  0  0
   40.5417   14.6053  -13.6583 O   0  0  0  0  0  0  0  0  0  0  0  0
   41.2037   13.4278  -15.6516 N   0  0  0  0  0  0  0  0  0  0  0  0
   40.5125   12.5621  -16.5400 C   0  0  0  0  0  0  0  0  0  0  0  0
   40.9173   11.8979  -17.6845 C   0  0  0  0  0  0  0  0  0  0  0  0
   40.0383   11.1004  -18.3834 C   0  0  0  0  0  0  0  0  0  0  0  0
   38.7189   10.9272  -17.9772 C   0  0  0  0  0  0  0  0  0  0  0  0
   37.8512   10.1503  -18.6525 F   0  0  0  0  0  0  0  0  0  0  0  0
   38.3418   11.5998  -16.8347 C   0  0  0  0  0  0  0  0  0  0  0  0
   39.2107   12.4005  -16.1263 C   0  0  0  0  0  0  0  0  0  0  0  0
   42.1952   13.7275  -15.7152 H   0  0  0  0  0  0  0  0  0  0  0  0
   35.7291   14.9701  -10.0988 C   0  0  0  0  0  0  0  0  0  0  0  0
   35.9138   14.3795   -8.9750 O   0  0  0  0  0  0  0  0  0  0  0  0
   34.5473   15.7113  -10.1834 N   0  0  0  0  0  0  0  0  0  0  0  0
   34.3366   16.2028  -11.0961 H   0  0  0  0  0  0  0  0  0  0  0  0
   33.5660   15.8888   -9.1702 C   0  0  0  0  0  0  0  0  0  0  0  0
   32.1328   15.8492   -9.5309 C   0  0  0  0  0  0  0  0  0  0  0  0
   31.4427   17.0192   -9.3510 O   0  0  0  0  0  0  0  0  0  0  0  0
   30.7950   17.2363  -10.0640 H   0  0  0  0  0  0  0  0  0  0  0  0
   31.4526   14.8252   -8.6505 C   0  0  0  0  0  0  0  0  0  0  0  0
   32.0022   14.5092   -7.4391 C   0  0  0  0  0  0  0  0  0  0  0  0
   31.3797   13.5630   -6.6184 C   0  0  0  0  0  0  0  0  0  0  0  0
   30.2239   12.9452   -7.0095 C   0  0  0  0  0  0  0  0  0  0  0  0
   29.6709   13.2577   -8.2187 C   0  0  0  0  0  0  0  0  0  0  0  0
   30.2905   14.2032   -9.0421 C   0  0  0  0  0  0  0  0  0  0  0  0
  1  2  1  0  0  0
  2  3  1  0  0  0
  3  4  1  0  0  0
  4  9  1  0  0  0
  9 10  2  0  0  0
 10 11  1  0  0  0
 11 12  2  0  0  0
 11 13  1  0  0  0
 13 14  1  0  0  0
 14 15  2  0  0  0
 15 16  1  0  0  0
 16 17  2  0  0  0
 17 18  1  0  0  0
 17 19  1  0  0  0
 19 20  2  0  0  0
  4  5  2  0  0  0
  5  6  1  0  0  0
  5  7  1  0  0  0
  7 22  1  0  0  0
 22 23  2  0  0  0
 22 24  1  0  0  0
 24 26  1  0  0  0
 26 27  1  0  0  0
 27 28  1  0  0  0
 27 30  1  0  0  0
 30 31  2  0  0  0
 31 32  1  0  0  0
 32 33  2  0  0  0
 33 34  1  0  0  0
 34 35  2  0  0  0
  7  2  2  0  0  0
 35 30  1  0  0  0
 20 10  1  0  0  0
 20 14  1  0  0  0
  3  8  1  0  0  0
 13 21  1  0  0  0
 24 25  1  0  0  0
 28 29  1  0  0  0
M  END
> <minimizedAffinity>
-10.22118

> <CNNscore>
0.5131932497

> <CNNaffinity>
6.2848920822

> <CNN_VS>
3.2253642082

> <CNNaffinity_variance>
0.3392481506

$$$$
[H]O[C@]([H])(c1c([H])c([H])c([H])c([H])c1[H])C([H])([H])N([H])C(=O)c1c(C([H])([H])[H])c(/C([H])=C2\C(=O)N([H])c3c([H])c([H])c(F)c([H])c32)n([H])c1C([H])([H])[H]


 35 38  0  0  0  0  0  0  0  0999 V2000
   39.4893   16.3744  -10.7202 C   0  0  0  0  0  0  0  0  0  0  0  0
   38.6846   15.4371  -11.5058 C   0  0  0  0  0  0  0  0  0  0  0  0
   39.1175   14.8727  -12.6812 N   0  0  0  0  0  0  0  0  0  0  0  0
   38.1834   14.0582  -13.1765 C   0  0  0  0  0  0  0  0  0  0  0  0
   37.1217   14.1140  -12.2733 C   0  0  0  0  0  0  0  0  0  0  0  0
   35.8760   13.3436  -12.4610 C   0  0  0  0  0  0  0  0  0  0  0  0
   37.4283   14.9718  -11.2306 C   0  0  0  0  0  0  0  0  0  0  0  0
   40.0563   15.0619  -13.0951 H   0  0  0  0  0  0  0  0  0  0  0  0
   38.2091   13.2798  -14.3954 C   0  0  0  0  0  0  0  0  0  0  0  0
   39.2575   13.1583  -15.1573 C   0  0  0  0  0  0  0  0  0  0  0  0
   40.5691   13.7238  -15.0130 C   0  0  0  0  0  0  0  0  0  0  0  0
   40.9562   14.4903  -14.1068 O   0  0  0  0  0  0  0  0  0  0  0  0
   41.3563   13.2369  -16.1235 N   0  0  0  0  0  0  0  0  0  0  0  0
   40.5352   12.3963  -16.9207 C   0  0  0  0  0  0  0  0  0  0  0  0
   40.7901   11.6870  -18.0812 C   0  0  0  0  0  0  0  0  0  0  0  0
   39.8044   10.9293  -18.6738 C   0  0  0  0  0  0  0  0  0  0  0  0
   38.5221   10.8424  -18.1407 C   0  0  0  0  0  0  0  0  0  0  0  0
   37.5511   10.1050  -18.7113 F   0  0  0  0  0  0  0  0  0  0  0  0
   38.2950   11.5583  -16.9849 C   0  0  0  0  0  0  0  0  0  0  0  0
   39.2718   12.3199  -16.3820 C   0  0  0  0  0  0  0  0  0  0  0  0
   42.3527   13.4762  -16.2878 H   0  0  0  0  0  0  0  0  0  0  0  0
   36.5183   15.2417  -10.1410 C   0  0  0  0  0  0  0  0  0  0  0  0
   36.5568   14.4513   -9.1313 O   0  0  0  0  0  0  0  0  0  0  0  0
   35.5809   16.2734  -10.0416 N   0  0  0  0  0  0  0  0  0  0  0  0
   35.4945   16.9427  -10.8562 H   0  0  0  0  0  0  0  0  0  0  0  0
   34.7038   16.5403   -8.9550 C   0  0  0  0  0  0  0  0  0  0  0  0
   33.3874   15.8696   -8.9015 C   0  0  0  0  0  0  0  0  0  0  0  0
   32.2998   16.6802   -9.0956 O   0  0  0  0  0  0  0  0  0  0  0  0
   31.5818   16.2906   -9.6502 H   0  0  0  0  0  0  0  0  0  0  0  0
   33.2188   15.2698   -7.5238 C   0  0  0  0  0  0  0  0  0  0  0  0
   34.1157   15.5825   -6.5403 C   0  0  0  0  0  0  0  0  0  0  0  0
   33.9675   15.0320   -5.2630 C   0  0  0  0  0  0  0  0  0  0  0  0
   32.9345   14.1816   -4.9798 C   0  0  0  0  0  0  0  0  0  0  0  0
   32.0359   13.8664   -5.9589 C   0  0  0  0  0  0  0  0  0  0  0  0
   32.1808   14.4147   -7.2372 C   0  0  0  0  0  0  0  0  0  0  0  0
  1  2  1  0  0  0
  2  3  1  0  0  0
  3  4  1  0  0  0
  4  9  1  0  0  0
  9 10  2  0  0  0
 10 11  1  0  0  0
 11 12  2  0  0  0
 11 13  1  0  0  0
 13 14  1  0  0  0
 14 15  2  0  0  0
 15 16  1  0  0  0
 16 17  2  0  0  0
 17 18  1  0  0  0
 17 19  1  0  0  0
 19 20  2  0  0  0
  4  5  2  0  0  0
  5  6  1  0  0  0
  5  7  1  0  0  0
  7 22  1  0  0  0
 22 23  2  0  0  0
 22 24  1  0  0  0
 24 26  1  0  0  0
 26 27  1  0  0  0
 27 28  1  0  0  0
 27 30  1  0  0  0
 30 31  2  0  0  0
 31 32  1  0  0  0
 32 33  2  0  0  0
 33 34  1  0  0  0
 34 35  2  0  0  0
  7  2  2  0  0  0
 35 30  1  0  0  0
 20 10  1  0  0  0
 20 14  1  0  0  0
  3  8  1  0  0  0
 13 21  1  0  0  0
 24 25  1  0  0  0
 28 29  1  0  0  0
M  END
> <minimizedAffinity>
-9.61123

> <CNNscore>
0.4258456230

> <CNNaffinity>
6.1432991028

> <CNN_VS>
2.6160969734

> <CNNaffinity_variance>
0.2101776153

$$$$
[H]O[C@]([H])(c1c([H])c([H])c([H])c([H])c1[H])C([H])([H])N([H])C(=O)c1c(C([H])([H])[H])c(/C([H])=C2\C(=O)N([H])c3c([H])c([H])c(F)c([H])c32)n([H])c1C([H])([H])[H]


 35 38  0  0  0  0  0  0  0  0999 V2000
   39.4839   16.4223  -10.5449 C   0  0  0  0  0  0  0  0  0  0  0  0
   38.6738   15.4784  -11.3168 C   0  0  0  0  0  0  0  0  0  0  0  0
   39.0949   14.9109  -12.4949 N   0  0  0  0  0  0  0  0  0  0  0  0
   38.1583   14.0904  -12.9757 C   0  0  0  0  0  0  0  0  0  0  0  0
   37.1073   14.1456  -12.0599 C   0  0  0  0  0  0  0  0  0  0  0  0
   35.8627   13.3694  -12.2294 C   0  0  0  0  0  0  0  0  0  0  0  0
   37.4228   15.0091  -11.0247 C   0  0  0  0  0  0  0  0  0  0  0  0
   40.0279   15.1022  -12.9209 H   0  0  0  0  0  0  0  0  0  0  0  0
   38.1727   13.3070  -14.1915 C   0  0  0  0  0  0  0  0  0  0  0  0
   39.2006   13.2168  -14.9850 C   0  0  0  0  0  0  0  0  0  0  0  0
   40.4962   13.8268  -14.8838 C   0  0  0  0  0  0  0  0  0  0  0  0
   40.8849   14.6105  -13.9932 O   0  0  0  0  0  0  0  0  0  0  0  0
   41.2647   13.3608  -16.0161 N   0  0  0  0  0  0  0  0  0  0  0  0
   40.4482   12.4891  -16.7840 C   0  0  0  0  0  0  0  0  0  0  0  0
   40.6910   11.7827  -17.9489 C   0  0  0  0  0  0  0  0  0  0  0  0
   39.7136   10.9893  -18.5075 C   0  0  0  0  0  0  0  0  0  0  0  0
   38.4521   10.8621  -17.9346 C   0  0  0  0  0  0  0  0  0  0  0  0
   37.4893   10.0896  -18.4718 F   0  0  0  0  0  0  0  0  0  0  0  0
   38.2367   11.5759  -16.7753 C   0  0  0  0  0  0  0  0  0  0  0  0
   39.2054   12.3731  -16.2061 C   0  0  0  0  0  0  0  0  0  0  0  0
   42.2469   13.6326  -16.2122 H   0  0  0  0  0  0  0  0  0  0  0  0
   36.5249   15.2798   -9.9253 C   0  0  0  0  0  0  0  0  0  0  0  0
   36.2846   14.3189   -9.1100 O   0  0  0  0  0  0  0  0  0  0  0  0
   35.8692   16.4776   -9.6281 N   0  0  0  0  0  0  0  0  0  0  0  0
   36.0175   17.2971  -10.2803 H   0  0  0  0  0  0  0  0  0  0  0  0
   35.0025   16.7375   -8.5316 C   0  0  0  0  0  0  0  0  0  0  0  0
   35.5649   17.2593   -7.2678 C   0  0  0  0  0  0  0  0  0  0  0  0
   34.6833   17.3641   -6.2241 O   0  0  0  0  0  0  0  0  0  0  0  0
   35.0441   17.0990   -5.3440 H   0  0  0  0  0  0  0  0  0  0  0  0
   36.0776   18.6590   -7.5216 C   0  0  0  0  0  0  0  0  0  0  0  0
   35.2725   19.7296   -7.2480 C   0  0  0  0  0  0  0  0  0  0  0  0
   35.7385   21.0278   -7.4799 C   0  0  0  0  0  0  0  0  0  0  0  0
   36.9934   21.2454   -7.9786 C   0  0  0  0  0  0  0  0  0  0  0  0
   37.8014   20.1791   -8.2534 C   0  0  0  0  0  0  0  0  0  0  0  0
   37.3389   18.8796   -8.0229 C   0  0  0  0  0  0  0  0  0  0  0  0
  1  2  1  0  0  0
  2  3  1  0  0  0
  3  4  1  0  0  0
  4  9  1  0  0  0
  9 10  2  0  0  0
 10 11  1  0  0  0
 11 12  2  0  0  0
 11 13  1  0  0  0
 13 14  1  0  0  0
 14 15  2  0  0  0
 15 16  1  0  0  0
 16 17  2  0  0  0
 17 18  1  0  0  0
 17 19  1  0  0  0
 19 20  2  0  0  0
  4  5  2  0  0  0
  5  6  1  0  0  0
  5  7  1  0  0  0
  7 22  1  0  0  0
 22 23  2  0  0  0
 22 24  1  0  0  0
 24 26  1  0  0  0
 26 27  1  0  0  0
 27 28  1  0  0  0
 27 30  1  0  0  0
 30 31  2  0  0  0
 31 32  1  0  0  0
 32 33  2  0  0  0
 33 34  1  0  0  0
 34 35  2  0  0  0
  7  2  2  0  0  0
 35 30  1  0  0  0
 20 10  1  0  0  0
 20 14  1  0  0  0
  3  8  1  0  0  0
 13 21  1  0  0  0
 24 25  1  0  0  0
 28 29  1  0  0  0
M  END
> <minimizedAffinity>
-9.61853

> <CNNscore>
0.4054002762

> <CNNaffinity>
6.1554450989

> <CNN_VS>
2.4954190254

> <CNNaffinity_variance>
0.2734474838

$$$$
[H]O[C@]([H])(c1c([H])c([H])c([H])c([H])c1[H])C([H])([H])N([H])C(=O)c1c(C([H])([H])[H])c(/C([H])=C2\C(=O)N([H])c3c([H])c([H])c(F)c([H])c32)n([H])c1C([H])([H])[H]


 35 38  0  0  0  0  0  0  0  0999 V2000
   32.7478   15.2874  -12.2163 C   0  0  0  0  0  0  0  0  0  0  0  0
   34.1586   14.9404  -12.3965 C   0  0  0  0  0  0  0  0  0  0  0  0
   34.6514   14.3553  -13.5377 N   0  0  0  0  0  0  0  0  0  0  0  0
   35.9666   14.1564  -13.4264 C   0  0  0  0  0  0  0  0  0  0  0  0
   36.3119   14.6379  -12.1634 C   0  0  0  0  0  0  0  0  0  0  0  0
   37.6955   14.6012  -11.6488 C   0  0  0  0  0  0  0  0  0  0  0  0
   35.1894   15.1272  -11.5172 C   0  0  0  0  0  0  0  0  0  0  0  0
   34.0585   14.1250  -14.3646 H   0  0  0  0  0  0  0  0  0  0  0  0
   36.8786   13.5545  -14.3741 C   0  0  0  0  0  0  0  0  0  0  0  0
   36.5331   12.6410  -15.2347 C   0  0  0  0  0  0  0  0  0  0  0  0
   35.2562   12.0240  -15.4572 C   0  0  0  0  0  0  0  0  0  0  0  0
   34.2026   12.2384  -14.8229 O   0  0  0  0  0  0  0  0  0  0  0  0
   35.4263   11.1016  -16.5573 N   0  0  0  0  0  0  0  0  0  0  0  0
   36.7782   11.1613  -16.9876 C   0  0  0  0  0  0  0  0  0  0  0  0
   37.4593   10.4927  -17.9895 C   0  0  0  0  0  0  0  0  0  0  0  0
   38.7973   10.7324  -18.2119 C   0  0  0  0  0  0  0  0  0  0  0  0
   39.5181   11.6463  -17.4496 C   0  0  0  0  0  0  0  0  0  0  0  0
   40.8258   11.8886  -17.6581 F   0  0  0  0  0  0  0  0  0  0  0  0
   38.8159   12.2983  -16.4587 C   0  0  0  0  0  0  0  0  0  0  0  0
   37.4778   12.0679  -16.2256 C   0  0  0  0  0  0  0  0  0  0  0  0
   34.6709   10.5071  -16.9486 H   0  0  0  0  0  0  0  0  0  0  0  0
   35.2301   15.6866  -10.1855 C   0  0  0  0  0  0  0  0  0  0  0  0
   35.8434   16.8030  -10.0334 O   0  0  0  0  0  0  0  0  0  0  0  0
   34.6770   15.1583   -9.0158 N   0  0  0  0  0  0  0  0  0  0  0  0
   34.1766   14.2288   -9.0819 H   0  0  0  0  0  0  0  0  0  0  0  0
   34.7071   15.7281   -7.7137 C   0  0  0  0  0  0  0  0  0  0  0  0
   33.9989   17.0008   -7.4603 C   0  0  0  0  0  0  0  0  0  0  0  0
   34.7403   18.1390   -7.6407 O   0  0  0  0  0  0  0  0  0  0  0  0
   34.2621   18.8844   -8.0773 H   0  0  0  0  0  0  0  0  0  0  0  0
   33.5583   17.0161   -6.0139 C   0  0  0  0  0  0  0  0  0  0  0  0
   32.4022   17.6601   -5.6703 C   0  0  0  0  0  0  0  0  0  0  0  0
   31.9872   17.6794   -4.3347 C   0  0  0  0  0  0  0  0  0  0  0  0
   32.7227   17.0613   -3.3612 C   0  0  0  0  0  0  0  0  0  0  0  0
   33.8783   16.4166   -3.6996 C   0  0  0  0  0  0  0  0  0  0  0  0
   34.2965   16.3952   -5.0340 C   0  0  0  0  0  0  0  0  0  0  0  0
  1  2  1  0  0  0
  2  3  1  0  0  0
  3  4  1  0  0  0
  4  9  1  0  0  0
  9 10  2  0  0  0
 10 11  1  0  0  0
 11 12  2  0  0  0
 11 13  1  0  0  0
 13 14  1  0  0  0
 14 15  2  0  0  0
 15 16  1  0  0  0
 16 17  2  0  0  0
 17 18  1  0  0  0
 17 19  1  0  0  0
 19 20  2  0  0  0
  4  5  2  0  0  0
  5  6  1  0  0  0
  5  7  1  0  0  0
  7 22  1  0  0  0
 22 23  2  0  0  0
 22 24  1  0  0  0
 24 26  1  0  0  0
 26 27  1  0  0  0
 27 28  1  0  0  0
 27 30  1  0  0  0
 30 31  2  0  0  0
 31 32  1  0  0  0
 32 33  2  0  0  0
 33 34  1  0  0  0
 34 35  2  0  0  0
  7  2  2  0  0  0
 35 30  1  0  0  0
 20 10  1  0  0  0
 20 14  1  0  0  0
  3  8  1  0  0  0
 13 21  1  0  0  0
 24 25  1  0  0  0
 28 29  1  0  0  0
M  END
> <minimizedAffinity>
-9.26019

> <CNNscore>
0.2862400413

> <CNNaffinity>
5.9615373611

> <CNN_VS>
1.7064306736

> <CNNaffinity_variance>
0.3264712393

$$$$
[H]O[C@]([H])(c1c([H])c([H])c([H])c([H])c1[H])C([H])([H])N([H])C(=O)c1c(C([H])([H])[H])c(/C([H])=C2\C(=O)N([H])c3c([H])c([H])c(F)c([H])c32)n([H])c1C([H])([H])[H]


 35 38  0  0  0  0  0  0  0  0999 V2000
   39.1332   16.4283  -10.5631 C   0  0  0  0  0  0  0  0  0  0  0  0
   38.4136   15.4360  -11.3635 C   0  0  0  0  0  0  0  0  0  0  0  0
   38.8946   14.9283  -12.5460 N   0  0  0  0  0  0  0  0  0  0  0  0
   38.0351   14.0428  -13.0546 C   0  0  0  0  0  0  0  0  0  0  0  0
   36.9720   13.9932  -12.1526 C   0  0  0  0  0  0  0  0  0  0  0  0
   35.7981   13.1203  -12.3536 C   0  0  0  0  0  0  0  0  0  0  0  0
   37.2023   14.8594  -11.0973 C   0  0  0  0  0  0  0  0  0  0  0  0
   39.8137   15.2043  -12.9554 H   0  0  0  0  0  0  0  0  0  0  0  0
   38.1292   13.2872  -14.2844 C   0  0  0  0  0  0  0  0  0  0  0  0
   39.2139   13.1934  -14.9978 C   0  0  0  0  0  0  0  0  0  0  0  0
   40.5092   13.7733  -14.7816 C   0  0  0  0  0  0  0  0  0  0  0  0
   40.8424   14.5281  -13.8447 O   0  0  0  0  0  0  0  0  0  0  0  0
   41.3546   13.3171  -15.8619 N   0  0  0  0  0  0  0  0  0  0  0  0
   40.5838   12.4805  -16.7117 C   0  0  0  0  0  0  0  0  0  0  0  0
   40.9031   11.7959  -17.8711 C   0  0  0  0  0  0  0  0  0  0  0  0
   39.9571   11.0363  -18.5231 C   0  0  0  0  0  0  0  0  0  0  0  0
   38.6524   10.9228  -18.0530 C   0  0  0  0  0  0  0  0  0  0  0  0
   37.7197   10.1833  -18.6819 F   0  0  0  0  0  0  0  0  0  0  0  0
   38.3611   11.6145  -16.8968 C   0  0  0  0  0  0  0  0  0  0  0  0
   39.2977   12.3778  -16.2350 C   0  0  0  0  0  0  0  0  0  0  0  0
   42.3542   13.5724  -15.9746 H   0  0  0  0  0  0  0  0  0  0  0  0
   36.2716   15.0334  -10.0057 C   0  0  0  0  0  0  0  0  0  0  0  0
   36.3099   14.1726   -9.0553 O   0  0  0  0  0  0  0  0  0  0  0  0
   35.3139   16.0388   -9.8468 N   0  0  0  0  0  0  0  0  0  0  0  0
   35.2270   16.7639  -10.6121 H   0  0  0  0  0  0  0  0  0  0  0  0
   34.4162   16.2106   -8.7579 C   0  0  0  0  0  0  0  0  0  0  0  0
   34.7379   17.1896   -7.6978 C   0  0  0  0  0  0  0  0  0  0  0  0
   35.3615   18.3354   -8.1172 O   0  0  0  0  0  0  0  0  0  0  0  0
   35.0521   19.1642   -7.6785 H   0  0  0  0  0  0  0  0  0  0  0  0
   35.6870   16.5329   -6.7209 C   0  0  0  0  0  0  0  0  0  0  0  0
   35.2126   15.5858   -5.8565 C   0  0  0  0  0  0  0  0  0  0  0  0
   36.0835   14.9734   -4.9493 C   0  0  0  0  0  0  0  0  0  0  0  0
   37.4091   15.3079   -4.9125 C   0  0  0  0  0  0  0  0  0  0  0  0
   37.8877   16.2535   -5.7741 C   0  0  0  0  0  0  0  0  0  0  0  0
   37.0200   16.8681   -6.6825 C   0  0  0  0  0  0  0  0  0  0  0  0
  1  2  1  0  0  0
  2  3  1  0  0  0
  3  4  1  0  0  0
  4  9  1  0  0  0
  9 10  2  0  0  0
 10 11  1  0  0  0
 11 12  2  0  0  0
 11 13  1  0  0  0
 13 14  1  0  0  0
 14 15  2  0  0  0
 15 16  1  0  0  0
 16 17  2  0  0  0
 17 18  1  0  0  0
 17 19  1  0  0  0
 19 20  2  0  0  0
  4  5  2  0  0  0
  5  6  1  0  0  0
  5  7  1  0  0  0
  7 22  1  0  0  0
 22 23  2  0  0  0
 22 24  1  0  0  0
 24 26  1  0  0  0
 26 27  1  0  0  0
 27 28  1  0  0  0
 27 30  1  0  0  0
 30 31  2  0  0  0
 31 32  1  0  0  0
 32 33  2  0  0  0
 33 34  1  0  0  0
 34 35  2  0  0  0
  7  2  2  0  0  0
 35 30  1  0  0  0
 20 10  1  0  0  0
 20 14  1  0  0  0
  3  8  1  0  0  0
 13 21  1  0  0  0
 24 25  1  0  0  0
 28 29  1  0  0  0
M  END
> <minimizedAffinity>
-9.34303

> <CNNscore>
0.2773548067

> <CNNaffinity>
5.9308023453

> <CNN_VS>
1.6449365616

> <CNNaffinity_variance>
0.2916519642

$$$$
[H]O[C@]([H])(c1c([H])c([H])c([H])c([H])c1[H])C([H])([H])N([H])C(=O)c1c(C([H])([H])[H])c(/C([H])=C2\C(=O)N([H])c3c([H])c([H])c(F)c([H])c32)n([H])c1C([H])([H])[H]


 35 38  0  0  0  0  0  0  0  0999 V2000
   33.0101   15.3118  -11.9537 C   0  0  0  0  0  0  0  0  0  0  0  0
   34.4186   15.0207  -12.2264 C   0  0  0  0  0  0  0  0  0  0  0  0
   34.8496   14.3764  -13.3606 N   0  0  0  0  0  0  0  0  0  0  0  0
   36.1783   14.2499  -13.3460 C   0  0  0  0  0  0  0  0  0  0  0  0
   36.5968   14.8405  -12.1534 C   0  0  0  0  0  0  0  0  0  0  0  0
   38.0171   14.9089  -11.7550 C   0  0  0  0  0  0  0  0  0  0  0  0
   35.5047   15.3220  -11.4518 C   0  0  0  0  0  0  0  0  0  0  0  0
   34.2058   14.0567  -14.1168 H   0  0  0  0  0  0  0  0  0  0  0  0
   37.0429   13.6235  -14.3218 C   0  0  0  0  0  0  0  0  0  0  0  0
   36.6475   12.7134  -15.1643 C   0  0  0  0  0  0  0  0  0  0  0  0
   35.3505   12.1232  -15.3380 C   0  0  0  0  0  0  0  0  0  0  0  0
   34.3249   12.3637  -14.6680 O   0  0  0  0  0  0  0  0  0  0  0  0
   35.4614   11.1918  -16.4380 N   0  0  0  0  0  0  0  0  0  0  0  0
   36.7982   11.2198  -16.9161 C   0  0  0  0  0  0  0  0  0  0  0  0
   37.4288   10.5315  -17.9376 C   0  0  0  0  0  0  0  0  0  0  0  0
   38.7628   10.7409  -18.2086 C   0  0  0  0  0  0  0  0  0  0  0  0
   39.5298   11.6428  -17.4776 C   0  0  0  0  0  0  0  0  0  0  0  0
   40.8342   11.8555  -17.7336 F   0  0  0  0  0  0  0  0  0  0  0  0
   38.8774   12.3148  -16.4663 C   0  0  0  0  0  0  0  0  0  0  0  0
   37.5438   12.1148  -16.1847 C   0  0  0  0  0  0  0  0  0  0  0  0
   34.6800   10.6119  -16.7988 H   0  0  0  0  0  0  0  0  0  0  0  0
   35.6214   15.9807  -10.1709 C   0  0  0  0  0  0  0  0  0  0  0  0
   35.0922   15.3981   -9.1579 O   0  0  0  0  0  0  0  0  0  0  0  0
   36.2487   17.1965   -9.8853 N   0  0  0  0  0  0  0  0  0  0  0  0
   36.6849   17.7282  -10.6891 H   0  0  0  0  0  0  0  0  0  0  0  0
   36.3739   17.8255   -8.6165 C   0  0  0  0  0  0  0  0  0  0  0  0
   37.4631   18.7996   -8.3920 C   0  0  0  0  0  0  0  0  0  0  0  0
   38.5670   18.3160   -7.7400 O   0  0  0  0  0  0  0  0  0  0  0  0
   39.4329   18.6366   -8.0899 H   0  0  0  0  0  0  0  0  0  0  0  0
   36.9258   19.9177   -7.5276 C   0  0  0  0  0  0  0  0  0  0  0  0
   37.2226   21.2142   -7.8444 C   0  0  0  0  0  0  0  0  0  0  0  0
   36.7299   22.2547   -7.0501 C   0  0  0  0  0  0  0  0  0  0  0  0
   35.9517   21.9955   -5.9557 C   0  0  0  0  0  0  0  0  0  0  0  0
   35.6523   20.7020   -5.6353 C   0  0  0  0  0  0  0  0  0  0  0  0
   36.1432   19.6589   -6.4270 C   0  0  0  0  0  0  0  0  0  0  0  0
  1  2  1  0  0  0
  2  3  1  0  0  0
  3  4  1  0  0  0
  4  9  1  0  0  0
  9 10  2  0  0  0
 10 11  1  0  0  0
 11 12  2  0  0  0
 11 13  1  0  0  0
 13 14  1  0  0  0
 14 15  2  0  0  0
 15 16  1  0  0  0
 16 17  2  0  0  0
 17 18  1  0  0  0
 17 19  1  0  0  0
 19 20  2  0  0  0
  4  5  2  0  0  0
  5  6  1  0  0  0
  5  7  1  0  0  0
  7 22  1  0  0  0
 22 23  2  0  0  0
 22 24  1  0  0  0
 24 26  1  0  0  0
 26 27  1  0  0  0
 27 28  1  0  0  0
 27 30  1  0  0  0
 30 31  2  0  0  0
 31 32  1  0  0  0
 32 33  2  0  0  0
 33 34  1  0  0  0
 34 35  2  0  0  0
  7  2  2  0  0  0
 35 30  1  0  0  0
 20 10  1  0  0  0
 20 14  1  0  0  0
  3  8  1  0  0  0
 13 21  1  0  0  0
 24 25  1  0  0  0
 28 29  1  0  0  0
M  END
> <minimizedAffinity>
-9.56949

> <CNNscore>
0.2773367167

> <CNNaffinity>
6.0499639511

> <CNN_VS>
1.6778771877

> <CNNaffinity_variance>
0.1844870746

$$$$
[H]O[C@]([H])(c1c([H])c([H])c([H])c([H])c1[H])C([H])([H])N([H])C(=O)c1c(C([H])([H])[H])c(/C([H])=C2\C(=O)N([H])c3c([H])c([H])c(F)c([H])c32)n([H])c1C([H])([H])[H]


 35 38  0  0  0  0  0  0  0  0999 V2000
   32.8131   15.2797  -12.0935 C   0  0  0  0  0  0  0  0  0  0  0  0
   34.2220   14.9325  -12.2870 C   0  0  0  0  0  0  0  0  0  0  0  0
   34.7085   14.3708  -13.4426 N   0  0  0  0  0  0  0  0  0  0  0  0
   36.0234   14.1655  -13.3410 C   0  0  0  0  0  0  0  0  0  0  0  0
   36.3753   14.6183  -12.0692 C   0  0  0  0  0  0  0  0  0  0  0  0
   37.7608   14.5661  -11.5611 C   0  0  0  0  0  0  0  0  0  0  0  0
   35.2569   15.0969  -11.4080 C   0  0  0  0  0  0  0  0  0  0  0  0
   34.1115   14.1605  -14.2720 H   0  0  0  0  0  0  0  0  0  0  0  0
   36.9298   13.5816  -14.3052 C   0  0  0  0  0  0  0  0  0  0  0  0
   36.5854   12.6655  -15.1634 C   0  0  0  0  0  0  0  0  0  0  0  0
   35.3152   12.0286  -15.3678 C   0  0  0  0  0  0  0  0  0  0  0  0
   34.2686   12.2238  -14.7159 O   0  0  0  0  0  0  0  0  0  0  0  0
   35.4825   11.1127  -16.4737 N   0  0  0  0  0  0  0  0  0  0  0  0
   36.8262   11.1957  -16.9253 C   0  0  0  0  0  0  0  0  0  0  0  0
   37.5020   10.5416  -17.9403 C   0  0  0  0  0  0  0  0  0  0  0  0
   38.8321   10.8037  -18.1832 C   0  0  0  0  0  0  0  0  0  0  0  0
   39.5501   11.7267  -17.4292 C   0  0  0  0  0  0  0  0  0  0  0  0
   40.8503   11.9908  -17.6577 F   0  0  0  0  0  0  0  0  0  0  0  0
   38.8535   12.3639  -16.4249 C   0  0  0  0  0  0  0  0  0  0  0  0
   37.5232   12.1111  -16.1714 C   0  0  0  0  0  0  0  0  0  0  0  0
   34.7307   10.5073  -16.8550 H   0  0  0  0  0  0  0  0  0  0  0  0
   35.3047   15.6270  -10.0646 C   0  0  0  0  0  0  0  0  0  0  0  0
   35.7168   16.8333   -9.9210 O   0  0  0  0  0  0  0  0  0  0  0  0
   34.9535   14.9827   -8.8751 N   0  0  0  0  0  0  0  0  0  0  0  0
   34.6253   13.9790   -8.9351 H   0  0  0  0  0  0  0  0  0  0  0  0
   34.9865   15.5217   -7.5600 C   0  0  0  0  0  0  0  0  0  0  0  0
   36.2285   15.4220   -6.7641 C   0  0  0  0  0  0  0  0  0  0  0  0
   36.1482   14.6543   -5.6321 O   0  0  0  0  0  0  0  0  0  0  0  0
   36.9368   14.0870   -5.4550 H   0  0  0  0  0  0  0  0  0  0  0  0
   36.6040   16.8110   -6.2992 C   0  0  0  0  0  0  0  0  0  0  0  0
   37.9218   17.1731   -6.2594 C   0  0  0  0  0  0  0  0  0  0  0  0
   38.2782   18.4558   -5.8305 C   0  0  0  0  0  0  0  0  0  0  0  0
   37.3251   19.3591   -5.4481 C   0  0  0  0  0  0  0  0  0  0  0  0
   36.0073   19.0021   -5.4863 C   0  0  0  0  0  0  0  0  0  0  0  0
   35.6471   17.7204   -5.9145 C   0  0  0  0  0  0  0  0  0  0  0  0
  1  2  1  0  0  0
  2  3  1  0  0  0
  3  4  1  0  0  0
  4  9  1  0  0  0
  9 10  2  0  0  0
 10 11  1  0  0  0
 11 12  2  0  0  0
 11 13  1  0  0  0
 13 14  1  0  0  0
 14 15  2  0  0  0
 15 16  1  0  0  0
 16 17  2  0  0  0
 17 18  1  0  0  0
 17 19  1  0  0  0
 19 20  2  0  0  0
  4  5  2  0  0  0
  5  6  1  0  0  0
  5  7  1  0  0  0
  7 22  1  0  0  0
 22 23  2  0  0  0
 22 24  1  0  0  0
 24 26  1  0  0  0
 26 27  1  0  0  0
 27 28  1  0  0  0
 27 30  1  0  0  0
 30 31  2  0  0  0
 31 32  1  0  0  0
 32 33  2  0  0  0
 33 34  1  0  0  0
 34 35  2  0  0  0
  7  2  2  0  0  0
 35 30  1  0  0  0
 20 10  1  0  0  0
 20 14  1  0  0  0
  3  8  1  0  0  0
 13 21  1  0  0  0
 24 25  1  0  0  0
 28 29  1  0  0  0
M  END
> <minimizedAffinity>
-8.73498

> <CNNscore>
0.2343887538

> <CNNaffinity>
6.0268421173

> <CNN_VS>
1.4126240015

> <CNNaffinity_variance>
0.2969304919

$$$$
[H]O[C@]([H])(c1c([H])c([H])c([H])c([H])c1[H])C([H])([H])N([H])C(=O)c1c(C([H])([H])[H])c(/C([H])=C2\C(=O)N([H])c3c([H])c([H])c(F)c([H])c32)n([H])c1C([H])([H])[H]


 35 38  0  0  0  0  0  0  0  0999 V2000
   32.9196   15.5891  -11.7047 C   0  0  0  0  0  0  0  0  0  0  0  0
   34.3581   15.3189  -11.7351 C   0  0  0  0  0  0  0  0  0  0  0  0
   35.0267   14.9200  -12.8670 N   0  0  0  0  0  0  0  0  0  0  0  0
   36.3244   14.7512  -12.6043 C   0  0  0  0  0  0  0  0  0  0  0  0
   36.4749   15.0583  -11.2518 C   0  0  0  0  0  0  0  0  0  0  0  0
   37.7788   14.9946  -10.5617 C   0  0  0  0  0  0  0  0  0  0  0  0
   35.2530   15.4123  -10.7051 C   0  0  0  0  0  0  0  0  0  0  0  0
   34.5605   14.7907  -13.7914 H   0  0  0  0  0  0  0  0  0  0  0  0
   37.3834   14.3220  -13.4911 C   0  0  0  0  0  0  0  0  0  0  0  0
   37.2743   13.3283  -14.3247 C   0  0  0  0  0  0  0  0  0  0  0  0
   36.1647   12.4507  -14.5685 C   0  0  0  0  0  0  0  0  0  0  0  0
   35.0619   12.4612  -13.9835 O   0  0  0  0  0  0  0  0  0  0  0  0
   36.5721   11.5480  -15.6216 N   0  0  0  0  0  0  0  0  0  0  0  0
   37.9002   11.8747  -16.0033 C   0  0  0  0  0  0  0  0  0  0  0  0
   38.7500   11.3301  -16.9500 C   0  0  0  0  0  0  0  0  0  0  0  0
   40.0176   11.8368  -17.1323 C   0  0  0  0  0  0  0  0  0  0  0  0
   40.4978   12.9062  -16.3828 C   0  0  0  0  0  0  0  0  0  0  0  0
   41.7349   13.4095  -16.5524 F   0  0  0  0  0  0  0  0  0  0  0  0
   39.6315   13.4297  -15.4471 C   0  0  0  0  0  0  0  0  0  0  0  0
   38.3612   12.9325  -15.2547 C   0  0  0  0  0  0  0  0  0  0  0  0
   35.9751   10.7959  -16.0153 H   0  0  0  0  0  0  0  0  0  0  0  0
   35.0889   15.7764   -9.3164 C   0  0  0  0  0  0  0  0  0  0  0  0
   34.8732   14.8281   -8.4797 O   0  0  0  0  0  0  0  0  0  0  0  0
   35.1349   17.0547   -8.7534 N   0  0  0  0  0  0  0  0  0  0  0  0
   35.2909   17.8752   -9.4026 H   0  0  0  0  0  0  0  0  0  0  0  0
   34.9911   17.3987   -7.3815 C   0  0  0  0  0  0  0  0  0  0  0  0
   36.1796   17.8174   -6.6083 C   0  0  0  0  0  0  0  0  0  0  0  0
   36.0509   17.7622   -5.2453 O   0  0  0  0  0  0  0  0  0  0  0  0
   36.8454   17.4280   -4.7636 H   0  0  0  0  0  0  0  0  0  0  0  0
   36.4736   19.2630   -6.9403 C   0  0  0  0  0  0  0  0  0  0  0  0
   35.8230   20.2546   -6.2599 C   0  0  0  0  0  0  0  0  0  0  0  0
   36.0887   21.5945   -6.5606 C   0  0  0  0  0  0  0  0  0  0  0  0
   36.9935   21.9313   -7.5294 C   0  0  0  0  0  0  0  0  0  0  0  0
   37.6460   20.9443   -8.2117 C   0  0  0  0  0  0  0  0  0  0  0  0
   37.3829   19.6034   -7.9139 C   0  0  0  0  0  0  0  0  0  0  0  0
  1  2  1  0  0  0
  2  3  1  0  0  0
  3  4  1  0  0  0
  4  9  1  0  0  0
  9 10  2  0  0  0
 10 11  1  0  0  0
 11 12  2  0  0  0
 11 13  1  0  0  0
 13 14  1  0  0  0
 14 15  2  0  0  0
 15 16  1  0  0  0
 16 17  2  0  0  0
 17 18  1  0  0  0
 17 19  1  0  0  0
 19 20  2  0  0  0
  4  5  2  0  0  0
  5  6  1  0  0  0
  5  7  1  0  0  0
  7 22  1  0  0  0
 22 23  2  0  0  0
 22 24  1  0  0  0
 24 26  1  0  0  0
 26 27  1  0  0  0
 27 28  1  0  0  0
 27 30  1  0  0  0
 30 31  2  0  0  0
 31 32  1  0  0  0
 32 33  2  0  0  0
 33 34  1  0  0  0
 34 35  2  0  0  0
  7  2  2  0  0  0
 35 30  1  0  0  0
 20 10  1  0  0  0
 20 14  1  0  0  0
  3  8  1  0  0  0
 13 21  1  0  0  0
 24 25  1  0  0  0
 28 29  1  0  0  0
M  END
> <minimizedAffinity>
-8.49837

> <CNNscore>
0.2156370729

> <CNNaffinity>
5.8602352142

> <CNN_VS>
1.2636839151

> <CNNaffinity_variance>
0.3190023005

$$$$
[H]O[C@]([H])(c1c([H])c([H])c([H])c([H])c1[H])C([H])([H])N([H])C(=O)c1c(C([H])([H])[H])c(/C([H])=C2\C(=O)N([H])c3c([H])c([H])c(F)c([H])c32)n([H])c1C([H])([H])[H]


 35 38  0  0  0  0  0  0  0  0999 V2000
   32.7258   15.2629  -12.1661 C   0  0  0  0  0  0  0  0  0  0  0  0
   34.1446   14.9286  -12.3013 C   0  0  0  0  0  0  0  0  0  0  0  0
   34.6924   14.4171  -13.4526 N   0  0  0  0  0  0  0  0  0  0  0  0
   36.0015   14.2120  -13.2924 C   0  0  0  0  0  0  0  0  0  0  0  0
   36.2855   14.6127  -11.9866 C   0  0  0  0  0  0  0  0  0  0  0  0
   37.6435   14.5440  -11.4108 C   0  0  0  0  0  0  0  0  0  0  0  0
   35.1323   15.0597  -11.3644 C   0  0  0  0  0  0  0  0  0  0  0  0
   34.1397   14.2394  -14.3195 H   0  0  0  0  0  0  0  0  0  0  0  0
   36.9591   13.6716  -14.2322 C   0  0  0  0  0  0  0  0  0  0  0  0
   36.6845   12.7303  -15.0882 C   0  0  0  0  0  0  0  0  0  0  0  0
   35.4565   12.0213  -15.3122 C   0  0  0  0  0  0  0  0  0  0  0  0
   34.3872   12.1630  -14.6837 O   0  0  0  0  0  0  0  0  0  0  0  0
   35.6978   11.1067  -16.4055 N   0  0  0  0  0  0  0  0  0  0  0  0
   37.0439   11.2612  -16.8304 C   0  0  0  0  0  0  0  0  0  0  0  0
   37.7763   10.6373  -17.8250 C   0  0  0  0  0  0  0  0  0  0  0  0
   39.0944   10.9716  -18.0433 C   0  0  0  0  0  0  0  0  0  0  0  0
   39.7438   11.9399  -17.2839 C   0  0  0  0  0  0  0  0  0  0  0  0
   41.0316   12.2746  -17.4884 F   0  0  0  0  0  0  0  0  0  0  0  0
   38.9918   12.5456  -16.3003 C   0  0  0  0  0  0  0  0  0  0  0  0
   37.6727   12.2207  -16.0714 C   0  0  0  0  0  0  0  0  0  0  0  0
   34.9892   10.4568  -16.7960 H   0  0  0  0  0  0  0  0  0  0  0  0
   35.1086   15.5337   -9.9995 C   0  0  0  0  0  0  0  0  0  0  0  0
   35.4986   16.7371   -9.7864 O   0  0  0  0  0  0  0  0  0  0  0  0
   34.7081   14.8369   -8.8562 N   0  0  0  0  0  0  0  0  0  0  0  0
   34.3953   13.8332   -8.9735 H   0  0  0  0  0  0  0  0  0  0  0  0
   34.6708   15.3207   -7.5199 C   0  0  0  0  0  0  0  0  0  0  0  0
   33.4193   15.9048   -6.9926 C   0  0  0  0  0  0  0  0  0  0  0  0
   33.3131   15.9475   -5.6272 O   0  0  0  0  0  0  0  0  0  0  0  0
   32.9109   16.7733   -5.2648 H   0  0  0  0  0  0  0  0  0  0  0  0
   32.2633   15.0570   -7.4735 C   0  0  0  0  0  0  0  0  0  0  0  0
   31.9396   13.9149   -6.7951 C   0  0  0  0  0  0  0  0  0  0  0  0
   30.8720   13.1245   -7.2331 C   0  0  0  0  0  0  0  0  0  0  0  0
   30.1422   13.4771   -8.3348 C   0  0  0  0  0  0  0  0  0  0  0  0
   30.4617   14.6172   -9.0157 C   0  0  0  0  0  0  0  0  0  0  0  0
   31.5286   15.4099   -8.5809 C   0  0  0  0  0  0  0  0  0  0  0  0
  1  2  1  0  0  0
  2  3  1  0  0  0
  3  4  1  0  0  0
  4  9  1  0  0  0
  9 10  2  0  0  0
 10 11  1  0  0  0
 11 12  2  0  0  0
 11 13  1  0  0  0
 13 14  1  0  0  0
 14 15  2  0  0  0
 15 16  1  0  0  0
 16 17  2  0  0  0
 17 18  1  0  0  0
 17 19  1  0  0  0
 19 20  2  0  0  0
  4  5  2  0  0  0
  5  6  1  0  0  0
  5  7  1  0  0  0
  7 22  1  0  0  0
 22 23  2  0  0  0
 22 24  1  0  0  0
 24 26  1  0  0  0
 26 27  1  0  0  0
 27 28  1  0  0  0
 27 30  1  0  0  0
 30 31  2  0  0  0
 31 32  1  0  0  0
 32 33  2  0  0  0
 33 34  1  0  0  0
 34 35  2  0  0  0
  7  2  2  0  0  0
 35 30  1  0  0  0
 20 10  1  0  0  0
 20 14  1  0  0  0
  3  8  1  0  0  0
 13 21  1  0  0  0
 24 25  1  0  0  0
 28 29  1  0  0  0
M  END
> <minimizedAffinity>
-9.47464

> <CNNscore>
0.2023565322

> <CNNaffinity>
6.0017447472

> <CNN_VS>
1.2144922018

> <CNNaffinity_variance>
0.3885564208

$$$$
[H]O[C@@]([H])(C([H])([H])N([H])C(=O)c1c(C([H])([H])[H])c(/C([H])=C2\C(=O)N([H])c3c([H])c([H])c(F)c([H])c32)n([H])c1C([H])([H])[H])C([H])([H])N1C([H])([H])C([H])([H])C([H])([H])C1([H])[H]


 35 38  0  0  0  0  0  0  0  0999 V2000
   44.7393   12.0166  -17.5485 C   0  0  0  0  0  0  0  0  0  0  0  0
   43.6364   12.4457  -16.6314 C   0  0  0  0  0  0  0  0  0  0  0  0
   42.3151   12.1644  -16.8431 N   0  0  0  0  0  0  0  0  0  0  0  0
   41.5451   12.6587  -15.8691 C   0  0  0  0  0  0  0  0  0  0  0  0
   42.4318   13.2781  -15.0078 C   0  0  0  0  0  0  0  0  0  0  0  0
   42.0081   13.9725  -13.7609 C   0  0  0  0  0  0  0  0  0  0  0  0
   43.7405   13.1552  -15.4682 C   0  0  0  0  0  0  0  0  0  0  0  0
   41.9860   11.6167  -17.6604 H   0  0  0  0  0  0  0  0  0  0  0  0
   40.1017   12.6299  -15.6717 C   0  0  0  0  0  0  0  0  0  0  0  0
   39.2345   12.0125  -16.4493 C   0  0  0  0  0  0  0  0  0  0  0  0
   39.5197   11.2557  -17.6409 C   0  0  0  0  0  0  0  0  0  0  0  0
   40.6372   11.0661  -18.1770 O   0  0  0  0  0  0  0  0  0  0  0  0
   38.2519   10.7517  -18.1095 N   0  0  0  0  0  0  0  0  0  0  0  0
   37.2290   11.1879  -17.2335 C   0  0  0  0  0  0  0  0  0  0  0  0
   35.8439   10.9769  -17.2398 C   0  0  0  0  0  0  0  0  0  0  0  0
   35.0107   11.5003  -16.2755 C   0  0  0  0  0  0  0  0  0  0  0  0
   35.5778   12.2607  -15.2690 C   0  0  0  0  0  0  0  0  0  0  0  0
   34.7564   12.7768  -14.3185 F   0  0  0  0  0  0  0  0  0  0  0  0
   36.9446   12.4711  -15.2588 C   0  0  0  0  0  0  0  0  0  0  0  0
   37.7670   11.9450  -16.2256 C   0  0  0  0  0  0  0  0  0  0  0  0
   38.1503   10.1680  -18.9562 H   0  0  0  0  0  0  0  0  0  0  0  0
   44.8841   13.7158  -14.7775 C   0  0  0  0  0  0  0  0  0  0  0  0
   45.4622   12.9760  -13.8887 O   0  0  0  0  0  0  0  0  0  0  0  0
   45.4484   14.9728  -14.9535 N   0  0  0  0  0  0  0  0  0  0  0  0
   44.9703   15.6070  -15.6677 H   0  0  0  0  0  0  0  0  0  0  0  0
   46.5754   15.5734  -14.3211 C   0  0  0  0  0  0  0  0  0  0  0  0
   47.9241   15.0304  -14.5941 C   0  0  0  0  0  0  0  0  0  0  0  0
   48.3786   14.0369  -13.7661 O   0  0  0  0  0  0  0  0  0  0  0  0
   48.5612   14.4515  -12.8640 H   0  0  0  0  0  0  0  0  0  0  0  0
   48.9388   16.1819  -14.5424 C   0  0  0  0  0  0  0  0  0  0  0  0
   48.5359   17.2702  -13.7571 N   0  0  0  0  0  0  0  0  0  0  0  0
   48.5784   18.5774  -14.2940 C   0  0  0  0  0  0  0  0  0  0  0  0
   48.8445   19.5379  -13.1470 C   0  0  0  0  0  0  0  0  0  0  0  0
   48.6612   18.7013  -11.9028 C   0  0  0  0  0  0  0  0  0  0  0  0
   49.0051   17.3071  -12.4123 C   0  0  0  0  0  0  0  0  0  0  0  0
  1  2  1  0  0  0
  2  3  1  0  0  0
  3  4  1  0  0  0
  4  9  1  0  0  0
  9 10  2  0  0  0
 10 11  1  0  0  0
 11 12  2  0  0  0
 11 13  1  0  0  0
 13 14  1  0  0  0
 14 15  2  0  0  0
 15 16  1  0  0  0
 16 17  2  0  0  0
 17 18  1  0  0  0
 17 19  1  0  0  0
 19 20  2  0  0  0
  4  5  2  0  0  0
  5  6  1  0  0  0
  5  7  1  0  0  0
  7 22  1  0  0  0
 22 23  2  0  0  0
 22 24  1  0  0  0
 24 26  1  0  0  0
 26 27  1  0  0  0
 27 28  1  0  0  0
 27 30  1  0  0  0
 30 31  1  0  0  0
 31 32  1  0  0  0
 32 33  1  0  0  0
 33 34  1  0  0  0
 34 35  1  0  0  0
  7  2  2  0  0  0
 35 31  1  0  0  0
 20 10  1  0  0  0
 20 14  1  0  0  0
  3  8  1  0  0  0
 13 21  1  0  0  0
 24 25  1  0  0  0
 28 29  1  0  0  0
M  END
> <minimizedAffinity>
-8.67011

> <CNNscore>
0.8928828239

> <CNNaffinity>
6.8018431664

> <CNN_VS>
6.0732488632

> <CNNaffinity_variance>
0.2841868699

$$$$
[H]O[C@@]([H])(C([H])([H])N([H])C(=O)c1c(C([H])([H])[H])c(/C([H])=C2\C(=O)N([H])c3c([H])c([H])c(F)c([H])c32)n([H])c1C([H])([H])[H])C([H])([H])N1C([H])([H])C([H])([H])C([H])([H])C1([H])[H]


 35 38  0  0  0  0  0  0  0  0999 V2000
   44.7428   12.0368  -17.3527 C   0  0  0  0  0  0  0  0  0  0  0  0
   43.6048   12.5028  -16.4988 C   0  0  0  0  0  0  0  0  0  0  0  0
   42.2997   12.1534  -16.7095 N   0  0  0  0  0  0  0  0  0  0  0  0
   41.4907   12.7023  -15.7984 C   0  0  0  0  0  0  0  0  0  0  0  0
   42.3347   13.4291  -14.9792 C   0  0  0  0  0  0  0  0  0  0  0  0
   41.8581   14.2144  -13.8076 C   0  0  0  0  0  0  0  0  0  0  0  0
   43.6570   13.3160  -15.4019 C   0  0  0  0  0  0  0  0  0  0  0  0
   42.0092   11.5233  -17.4807 H   0  0  0  0  0  0  0  0  0  0  0  0
   40.0451   12.6358  -15.6267 C   0  0  0  0  0  0  0  0  0  0  0  0
   39.2066   12.0104  -16.4289 C   0  0  0  0  0  0  0  0  0  0  0  0
   39.5303   11.2798  -17.6270 C   0  0  0  0  0  0  0  0  0  0  0  0
   40.6611   11.1256  -18.1465 O   0  0  0  0  0  0  0  0  0  0  0  0
   38.2833   10.7532  -18.1255 N   0  0  0  0  0  0  0  0  0  0  0  0
   37.2353   11.1507  -17.2607 C   0  0  0  0  0  0  0  0  0  0  0  0
   35.8560   10.9067  -17.2945 C   0  0  0  0  0  0  0  0  0  0  0  0
   34.9940   11.3945  -16.3368 C   0  0  0  0  0  0  0  0  0  0  0  0
   35.5253   12.1521  -15.3089 C   0  0  0  0  0  0  0  0  0  0  0  0
   34.6756   12.6331  -14.3649 F   0  0  0  0  0  0  0  0  0  0  0  0
   36.8862   12.3949  -15.2715 C   0  0  0  0  0  0  0  0  0  0  0  0
   37.7375   11.9042  -16.2319 C   0  0  0  0  0  0  0  0  0  0  0  0
   38.2103   10.1809  -18.9828 H   0  0  0  0  0  0  0  0  0  0  0  0
   44.7637   13.9790  -14.7424 C   0  0  0  0  0  0  0  0  0  0  0  0
   45.3250   13.3590  -13.7566 O   0  0  0  0  0  0  0  0  0  0  0  0
   45.3079   15.2214  -15.0419 N   0  0  0  0  0  0  0  0  0  0  0  0
   44.8423   15.7589  -15.8390 H   0  0  0  0  0  0  0  0  0  0  0  0
   46.3992   15.9172  -14.4454 C   0  0  0  0  0  0  0  0  0  0  0  0
   46.2749   17.3710  -14.2019 C   0  0  0  0  0  0  0  0  0  0  0  0
   47.3747   18.1461  -14.4643 O   0  0  0  0  0  0  0  0  0  0  0  0
   48.0713   17.9336  -13.7653 H   0  0  0  0  0  0  0  0  0  0  0  0
   45.8867   17.5933  -12.7328 C   0  0  0  0  0  0  0  0  0  0  0  0
   45.1465   16.5464  -12.1676 N   0  0  0  0  0  0  0  0  0  0  0  0
   43.7577   16.7036  -11.9546 C   0  0  0  0  0  0  0  0  0  0  0  0
   43.3803   15.8685  -10.7426 C   0  0  0  0  0  0  0  0  0  0  0  0
   44.5988   15.0166  -10.4759 C   0  0  0  0  0  0  0  0  0  0  0  0
   45.7154   15.8861  -11.0404 C   0  0  0  0  0  0  0  0  0  0  0  0
  1  2  1  0  0  0
  2  3  1  0  0  0
  3  4  1  0  0  0
  4  9  1  0  0  0
  9 10  2  0  0  0
 10 11  1  0  0  0
 11 12  2  0  0  0
 11 13  1  0  0  0
 13 14  1  0  0  0
 14 15  2  0  0  0
 15 16  1  0  0  0
 16 17  2  0  0  0
 17 18  1  0  0  0
 17 19  1  0  0  0
 19 20  2  0  0  0
  4  5  2  0  0  0
  5  6  1  0  0  0
  5  7  1  0  0  0
  7 22  1  0  0  0
 22 23  2  0  0  0
 22 24  1  0  0  0
 24 26  1  0  0  0
 26 27  1  0  0  0
 27 28  1  0  0  0
 27 30  1  0  0  0
 30 31  1  0  0  0
 31 32  1  0  0  0
 32 33  1  0  0  0
 33 34  1  0  0  0
 34 35  1  0  0  0
  7  2  2  0  0  0
 35 31  1  0  0  0
 20 10  1  0  0  0
 20 14  1  0  0  0
  3  8  1  0  0  0
 13 21  1  0  0  0
 24 25  1  0  0  0
 28 29  1  0  0  0
M  END
> <minimizedAffinity>
-9.16177

> <CNNscore>
0.8217408657

> <CNNaffinity>
7.0379815102

> <CNN_VS>
5.7833971977

> <CNNaffinity_variance>
0.2353188992

$$$$
[H]O[C@@]([H])(C([H])([H])N([H])C(=O)c1c(C([H])([H])[H])c(/C([H])=C2\C(=O)N([H])c3c([H])c([H])c(F)c([H])c32)n([H])c1C([H])([H])[H])C([H])([H])N1C([H])([H])C([H])([H])C([H])([H])C1([H])[H]


 35 38  0  0  0  0  0  0  0  0999 V2000
   39.8395   11.2375  -19.4723 C   0  0  0  0  0  0  0  0  0  0  0  0
   39.9730   11.7593  -18.0754 C   0  0  0  0  0  0  0  0  0  0  0  0
   41.1091   12.3391  -17.5827 N   0  0  0  0  0  0  0  0  0  0  0  0
   40.9545   12.7210  -16.3114 C   0  0  0  0  0  0  0  0  0  0  0  0
   39.6568   12.3614  -15.9975 C   0  0  0  0  0  0  0  0  0  0  0  0
   39.0431   12.6033  -14.6628 C   0  0  0  0  0  0  0  0  0  0  0  0
   39.0302   11.7600  -17.0863 C   0  0  0  0  0  0  0  0  0  0  0  0
   41.9632   12.4677  -18.1572 H   0  0  0  0  0  0  0  0  0  0  0  0
   41.8742   13.3548  -15.3756 C   0  0  0  0  0  0  0  0  0  0  0  0
   43.1848   13.2121  -15.3745 C   0  0  0  0  0  0  0  0  0  0  0  0
   43.9731   12.4099  -16.2739 C   0  0  0  0  0  0  0  0  0  0  0  0
   43.5621   11.6770  -17.2046 O   0  0  0  0  0  0  0  0  0  0  0  0
   45.3491   12.6115  -15.8907 N   0  0  0  0  0  0  0  0  0  0  0  0
   45.3970   13.5055  -14.7941 C   0  0  0  0  0  0  0  0  0  0  0  0
   46.4721   14.0207  -14.0581 C   0  0  0  0  0  0  0  0  0  0  0  0
   46.2990   14.8953  -13.0077 C   0  0  0  0  0  0  0  0  0  0  0  0
   45.0088   15.2699  -12.6792 C   0  0  0  0  0  0  0  0  0  0  0  0
   44.8381   16.1320  -11.6437 F   0  0  0  0  0  0  0  0  0  0  0  0
   43.9448   14.7641  -13.4034 C   0  0  0  0  0  0  0  0  0  0  0  0
   44.1281   13.8918  -14.4491 C   0  0  0  0  0  0  0  0  0  0  0  0
   46.1445   12.1556  -16.3676 H   0  0  0  0  0  0  0  0  0  0  0  0
   37.6677   11.2685  -17.0498 C   0  0  0  0  0  0  0  0  0  0  0  0
   37.4382   10.1146  -17.5857 O   0  0  0  0  0  0  0  0  0  0  0  0
   36.5552   11.8936  -16.5011 N   0  0  0  0  0  0  0  0  0  0  0  0
   36.7210   12.8585  -16.0739 H   0  0  0  0  0  0  0  0  0  0  0  0
   35.2007   11.4585  -16.4196 C   0  0  0  0  0  0  0  0  0  0  0  0
   34.4800   11.5960  -15.1350 C   0  0  0  0  0  0  0  0  0  0  0  0
   33.1724   11.1854  -15.1035 O   0  0  0  0  0  0  0  0  0  0  0  0
   32.6339   11.8405  -15.6512 H   0  0  0  0  0  0  0  0  0  0  0  0
   34.5172   13.0696  -14.7042 C   0  0  0  0  0  0  0  0  0  0  0  0
   35.6053   13.4038  -13.8872 N   0  0  0  0  0  0  0  0  0  0  0  0
   35.6358   12.9641  -12.5438 C   0  0  0  0  0  0  0  0  0  0  0  0
   36.4024   13.9992  -11.7377 C   0  0  0  0  0  0  0  0  0  0  0  0
   37.0369   14.8935  -12.7765 C   0  0  0  0  0  0  0  0  0  0  0  0
   36.0679   14.7503  -13.9436 C   0  0  0  0  0  0  0  0  0  0  0  0
  1  2  1  0  0  0
  2  3  1  0  0  0
  3  4  1  0  0  0
  4  9  1  0  0  0
  9 10  2  0  0  0
 10 11  1  0  0  0
 11 12  2  0  0  0
 11 13  1  0  0  0
 13 14  1  0  0  0
 14 15  2  0  0  0
 15 16  1  0  0  0
 16 17  2  0  0  0
 17 18  1  0  0  0
 17 19  1  0  0  0
 19 20  2  0  0  0
  4  5  2  0  0  0
  5  6  1  0  0  0
  5  7  1  0  0  0
  7 22  1  0  0  0
 22 23  2  0  0  0
 22 24  1  0  0  0
 24 26  1  0  0  0
 26 27  1  0  0  0
 27 28  1  0  0  0
 27 30  1  0  0  0
 30 31  1  0  0  0
 31 32  1  0  0  0
 32 33  1  0  0  0
 33 34  1  0  0  0
 34 35  1  0  0  0
  7  2  2  0  0  0
 35 31  1  0  0  0
 20 10  1  0  0  0
 20 14  1  0  0  0
  3  8  1  0  0  0
 13 21  1  0  0  0
 24 25  1  0  0  0
 28 29  1  0  0  0
M  END
> <minimizedAffinity>
-8.99517

> <CNNscore>
0.5977732539

> <CNNaffinity>
7.0978622437

> <CNN_VS>
4.2429122925

> <CNNaffinity_variance>
0.0595483072

$$$$
[H]O[C@@]([H])(C([H])([H])N([H])C(=O)c1c(C([H])([H])[H])c(/C([H])=C2\C(=O)N([H])c3c([H])c([H])c(F)c([H])c32)n([H])c1C([H])([H])[H])C([H])([H])N1C([H])([H])C([H])([H])C([H])([H])C1([H])[H]


 35 38  0  0  0  0  0  0  0  0999 V2000
   38.8226   16.4063  -10.2067 C   0  0  0  0  0  0  0  0  0  0  0  0
   38.1330   15.4254  -11.1032 C   0  0  0  0  0  0  0  0  0  0  0  0
   38.6765   14.9336  -12.2575 N   0  0  0  0  0  0  0  0  0  0  0  0
   37.8526   14.0712  -12.8603 C   0  0  0  0  0  0  0  0  0  0  0  0
   36.7410   14.0234  -12.0396 C   0  0  0  0  0  0  0  0  0  0  0  0
   35.5521   13.1738  -12.3246 C   0  0  0  0  0  0  0  0  0  0  0  0
   36.8989   14.8623  -10.9390 C   0  0  0  0  0  0  0  0  0  0  0  0
   39.6223   15.2038  -12.5873 H   0  0  0  0  0  0  0  0  0  0  0  0
   37.9832   13.3187  -14.1013 C   0  0  0  0  0  0  0  0  0  0  0  0
   39.0762   13.2324  -14.8333 C   0  0  0  0  0  0  0  0  0  0  0  0
   40.3480   13.8563  -14.5740 C   0  0  0  0  0  0  0  0  0  0  0  0
   40.6463   14.6184  -13.6240 O   0  0  0  0  0  0  0  0  0  0  0  0
   41.2272   13.4322  -15.6361 N   0  0  0  0  0  0  0  0  0  0  0  0
   40.5144   12.5798  -16.5133 C   0  0  0  0  0  0  0  0  0  0  0  0
   40.9017   11.9106  -17.6817 C   0  0  0  0  0  0  0  0  0  0  0  0
   40.0371   11.1140  -18.4001 C   0  0  0  0  0  0  0  0  0  0  0  0
   38.7407   10.9792  -17.9376 C   0  0  0  0  0  0  0  0  0  0  0  0
   37.8883   10.1941  -18.6458 F   0  0  0  0  0  0  0  0  0  0  0  0
   38.3544   11.6376  -16.7845 C   0  0  0  0  0  0  0  0  0  0  0  0
   39.2244   12.4303  -16.0754 C   0  0  0  0  0  0  0  0  0  0  0  0
   42.2148   13.7277  -15.7085 H   0  0  0  0  0  0  0  0  0  0  0  0
   35.8905   15.0273   -9.9118 C   0  0  0  0  0  0  0  0  0  0  0  0
   36.0219   14.3273   -8.8329 O   0  0  0  0  0  0  0  0  0  0  0  0
   34.7784   15.8591   -9.9412 N   0  0  0  0  0  0  0  0  0  0  0  0
   34.6406   16.4285  -10.8344 H   0  0  0  0  0  0  0  0  0  0  0  0
   33.7650   16.0772   -8.9634 C   0  0  0  0  0  0  0  0  0  0  0  0
   32.3667   15.7207   -9.2888 C   0  0  0  0  0  0  0  0  0  0  0  0
   31.6234   16.6540   -9.9639 O   0  0  0  0  0  0  0  0  0  0  0  0
   31.4421   17.4171   -9.3285 H   0  0  0  0  0  0  0  0  0  0  0  0
   31.6264   15.3886   -7.9849 C   0  0  0  0  0  0  0  0  0  0  0  0
   31.1059   14.0887   -7.9328 N   0  0  0  0  0  0  0  0  0  0  0  0
   29.8288   13.8215   -8.4773 C   0  0  0  0  0  0  0  0  0  0  0  0
   29.2157   12.6845   -7.6771 C   0  0  0  0  0  0  0  0  0  0  0  0
   30.3555   12.1535   -6.8402 C   0  0  0  0  0  0  0  0  0  0  0  0
   31.2391   13.3868   -6.7000 C   0  0  0  0  0  0  0  0  0  0  0  0
  1  2  1  0  0  0
  2  3  1  0  0  0
  3  4  1  0  0  0
  4  9  1  0  0  0
  9 10  2  0  0  0
 10 11  1  0  0  0
 11 12  2  0  0  0
 11 13  1  0  0  0
 13 14  1  0  0  0
 14 15  2  0  0  0
 15 16  1  0  0  0
 16 17  2  0  0  0
 17 18  1  0  0  0
 17 19  1  0  0  0
 19 20  2  0  0  0
  4  5  2  0  0  0
  5  6  1  0  0  0
  5  7  1  0  0  0
  7 22  1  0  0  0
 22 23  2  0  0  0
 22 24  1  0  0  0
 24 26  1  0  0  0
 26 27  1  0  0  0
 27 28  1  0  0  0
 27 30  1  0  0  0
 30 31  1  0  0  0
 31 32  1  0  0  0
 32 33  1  0  0  0
 33 34  1  0  0  0
 34 35  1  0  0  0
  7  2  2  0  0  0
 35 31  1  0  0  0
 20 10  1  0  0  0
 20 14  1  0  0  0
  3  8  1  0  0  0
 13 21  1  0  0  0
 24 25  1  0  0  0
 28 29  1  0  0  0
M  END
> <minimizedAffinity>
-9.80266

> <CNNscore>
0.5163604617

> <CNNaffinity>
6.2178282738

> <CNN_VS>
3.2106406689

> <CNNaffinity_variance>
0.1947333664

$$$$
[H]O[C@@]([H])(C([H])([H])N([H])C(=O)c1c(C([H])([H])[H])c(/C([H])=C2\C(=O)N([H])c3c([H])c([H])c(F)c([H])c32)n([H])c1C([H])([H])[H])C([H])([H])N1C([H])([H])C([H])([H])C([H])([H])C1([H])[H]


 35 38  0  0  0  0  0  0  0  0999 V2000
   37.0163   16.9181  -10.4760 C   0  0  0  0  0  0  0  0  0  0  0  0
   36.4960   15.8811  -11.4222 C   0  0  0  0  0  0  0  0  0  0  0  0
   37.2546   15.2804  -12.3884 N   0  0  0  0  0  0  0  0  0  0  0  0
   36.5449   14.3895  -13.0874 C   0  0  0  0  0  0  0  0  0  0  0  0
   35.2816   14.4376  -12.5276 C   0  0  0  0  0  0  0  0  0  0  0  0
   34.1479   13.5951  -12.9980 C   0  0  0  0  0  0  0  0  0  0  0  0
   35.2333   15.3630  -11.4877 C   0  0  0  0  0  0  0  0  0  0  0  0
   38.2595   15.4994  -12.5241 H   0  0  0  0  0  0  0  0  0  0  0  0
   36.9084   13.5315  -14.2077 C   0  0  0  0  0  0  0  0  0  0  0  0
   38.0973   13.4746  -14.7744 C   0  0  0  0  0  0  0  0  0  0  0  0
   39.2666   14.2375  -14.4213 C   0  0  0  0  0  0  0  0  0  0  0  0
   39.3666   15.1158  -13.5320 O   0  0  0  0  0  0  0  0  0  0  0  0
   40.3177   13.7928  -15.3035 N   0  0  0  0  0  0  0  0  0  0  0  0
   39.8055   12.7936  -16.1656 C   0  0  0  0  0  0  0  0  0  0  0  0
   40.4055   12.0494  -17.1899 C   0  0  0  0  0  0  0  0  0  0  0  0
   39.7166   11.1073  -17.9220 C   0  0  0  0  0  0  0  0  0  0  0  0
   38.3825   10.8991  -17.6225 C   0  0  0  0  0  0  0  0  0  0  0  0
   37.7033    9.9705  -18.3443 F   0  0  0  0  0  0  0  0  0  0  0  0
   37.7864   11.6312  -16.6120 C   0  0  0  0  0  0  0  0  0  0  0  0
   38.4823   12.5690  -15.8879 C   0  0  0  0  0  0  0  0  0  0  0  0
   41.2793   14.1705  -15.2775 H   0  0  0  0  0  0  0  0  0  0  0  0
   34.0350   15.6383  -10.7212 C   0  0  0  0  0  0  0  0  0  0  0  0
   34.1857   15.9521   -9.4761 O   0  0  0  0  0  0  0  0  0  0  0  0
   32.7190   15.6065  -11.1643 N   0  0  0  0  0  0  0  0  0  0  0  0
   32.5731   15.3267  -12.1848 H   0  0  0  0  0  0  0  0  0  0  0  0
   31.5058   15.8808  -10.4688 C   0  0  0  0  0  0  0  0  0  0  0  0
   30.5280   14.7878  -10.2751 C   0  0  0  0  0  0  0  0  0  0  0  0
   29.3755   14.8402  -11.0155 O   0  0  0  0  0  0  0  0  0  0  0  0
   28.8203   15.6056  -10.6618 H   0  0  0  0  0  0  0  0  0  0  0  0
   30.1290   14.7403   -8.7929 C   0  0  0  0  0  0  0  0  0  0  0  0
   30.0257   13.4464   -8.2652 N   0  0  0  0  0  0  0  0  0  0  0  0
   28.7501   12.8830   -8.0320 C   0  0  0  0  0  0  0  0  0  0  0  0
   28.8748   11.9330   -6.8527 C   0  0  0  0  0  0  0  0  0  0  0  0
   30.3630   11.7946   -6.6342 C   0  0  0  0  0  0  0  0  0  0  0  0
   30.8809   13.1226   -7.1725 C   0  0  0  0  0  0  0  0  0  0  0  0
  1  2  1  0  0  0
  2  3  1  0  0  0
  3  4  1  0  0  0
  4  9  1  0  0  0
  9 10  2  0  0  0
 10 11  1  0  0  0
 11 12  2  0  0  0
 11 13  1  0  0  0
 13 14  1  0  0  0
 14 15  2  0  0  0
 15 16  1  0  0  0
 16 17  2  0  0  0
 17 18  1  0  0  0
 17 19  1  0  0  0
 19 20  2  0  0  0
  4  5  2  0  0  0
  5  6  1  0  0  0
  5  7  1  0  0  0
  7 22  1  0  0  0
 22 23  2  0  0  0
 22 24  1  0  0  0
 24 26  1  0  0  0
 26 27  1  0  0  0
 27 28  1  0  0  0
 27 30  1  0  0  0
 30 31  1  0  0  0
 31 32  1  0  0  0
 32 33  1  0  0  0
 33 34  1  0  0  0
 34 35  1  0  0  0
  7  2  2  0  0  0
 35 31  1  0  0  0
 20 10  1  0  0  0
 20 14  1  0  0  0
  3  8  1  0  0  0
 13 21  1  0  0  0
 24 25  1  0  0  0
 28 29  1  0  0  0
M  END
> <minimizedAffinity>
-9.67648

> <CNNscore>
0.3612473607

> <CNNaffinity>
6.3286399841

> <CNN_VS>
2.2862045765

> <CNNaffinity_variance>
0.1878709197

$$$$
[H]O[C@@]([H])(C([H])([H])N([H])C(=O)c1c(C([H])([H])[H])c(/C([H])=C2\C(=O)N([H])c3c([H])c([H])c(F)c([H])c32)n([H])c1C([H])([H])[H])C([H])([H])N1C([H])([H])C([H])([H])C([H])([H])C1([H])[H]


 35 38  0  0  0  0  0  0  0  0999 V2000
   32.6685   15.5265  -11.7838 C   0  0  0  0  0  0  0  0  0  0  0  0
   34.0920   15.1378  -12.0368 C   0  0  0  0  0  0  0  0  0  0  0  0
   34.5279   14.5456  -13.1896 N   0  0  0  0  0  0  0  0  0  0  0  0
   35.8433   14.3119  -13.1552 C   0  0  0  0  0  0  0  0  0  0  0  0
   36.2462   14.7829  -11.9194 C   0  0  0  0  0  0  0  0  0  0  0  0
   37.6566   14.7293  -11.4458 C   0  0  0  0  0  0  0  0  0  0  0  0
   35.1664   15.3013  -11.2085 C   0  0  0  0  0  0  0  0  0  0  0  0
   33.8926   14.3335  -13.9818 H   0  0  0  0  0  0  0  0  0  0  0  0
   36.7391   13.6937  -14.1241 C   0  0  0  0  0  0  0  0  0  0  0  0
   36.4000   12.7667  -14.9980 C   0  0  0  0  0  0  0  0  0  0  0  0
   35.1005   12.1719  -15.1749 C   0  0  0  0  0  0  0  0  0  0  0  0
   34.0586   12.4010  -14.5158 O   0  0  0  0  0  0  0  0  0  0  0  0
   35.2295   11.2439  -16.2717 N   0  0  0  0  0  0  0  0  0  0  0  0
   36.5631   11.2717  -16.7459 C   0  0  0  0  0  0  0  0  0  0  0  0
   37.1996   10.5710  -17.7788 C   0  0  0  0  0  0  0  0  0  0  0  0
   38.5315   10.7491  -18.0833 C   0  0  0  0  0  0  0  0  0  0  0  0
   39.2545   11.6578  -17.3322 C   0  0  0  0  0  0  0  0  0  0  0  0
   40.5674   11.8333  -17.6323 F   0  0  0  0  0  0  0  0  0  0  0  0
   38.6300   12.3519  -16.3121 C   0  0  0  0  0  0  0  0  0  0  0  0
   37.3011   12.1666  -16.0160 C   0  0  0  0  0  0  0  0  0  0  0  0
   34.4470   10.6682  -16.6241 H   0  0  0  0  0  0  0  0  0  0  0  0
   35.2829   15.8566   -9.8754 C   0  0  0  0  0  0  0  0  0  0  0  0
   34.3150   15.6269   -9.0497 O   0  0  0  0  0  0  0  0  0  0  0  0
   36.3241   16.6200   -9.3629 N   0  0  0  0  0  0  0  0  0  0  0  0
   37.1225   16.8396  -10.0376 H   0  0  0  0  0  0  0  0  0  0  0  0
   36.5044   17.1786   -8.0643 C   0  0  0  0  0  0  0  0  0  0  0  0
   37.3102   18.4108   -7.9199 C   0  0  0  0  0  0  0  0  0  0  0  0
   38.6096   18.2646   -7.5083 O   0  0  0  0  0  0  0  0  0  0  0  0
   38.5925   17.9794   -6.5401 H   0  0  0  0  0  0  0  0  0  0  0  0
   36.6074   19.3455   -6.9244 C   0  0  0  0  0  0  0  0  0  0  0  0
   35.9515   20.4318   -7.5186 N   0  0  0  0  0  0  0  0  0  0  0  0
   36.6541   21.6374   -7.7457 C   0  0  0  0  0  0  0  0  0  0  0  0
   35.6544   22.7778   -7.6516 C   0  0  0  0  0  0  0  0  0  0  0  0
   34.3054   22.0984   -7.6412 C   0  0  0  0  0  0  0  0  0  0  0  0
   34.6459   20.7408   -7.0390 C   0  0  0  0  0  0  0  0  0  0  0  0
  1  2  1  0  0  0
  2  3  1  0  0  0
  3  4  1  0  0  0
  4  9  1  0  0  0
  9 10  2  0  0  0
 10 11  1  0  0  0
 11 12  2  0  0  0
 11 13  1  0  0  0
 13 14  1  0  0  0
 14 15  2  0  0  0
 15 16  1  0  0  0
 16 17  2  0  0  0
 17 18  1  0  0  0
 17 19  1  0  0  0
 19 20  2  0  0  0
  4  5  2  0  0  0
  5  6  1  0  0  0
  5  7  1  0  0  0
  7 22  1  0  0  0
 22 23  2  0  0  0
 22 24  1  0  0  0
 24 26  1  0  0  0
 26 27  1  0  0  0
 27 28  1  0  0  0
 27 30  1  0  0  0
 30 31  1  0  0  0
 31 32  1  0  0  0
 32 33  1  0  0  0
 33 34  1  0  0  0
 34 35  1  0  0  0
  7  2  2  0  0  0
 35 31  1  0  0  0
 20 10  1  0  0  0
 20 14  1  0  0  0
  3  8  1  0  0  0
 13 21  1  0  0  0
 24 25  1  0  0  0
 28 29  1  0  0  0
M  END
> <minimizedAffinity>
-8.80179

> <CNNscore>
0.3095866442

> <CNNaffinity>
6.2291235924

> <CNN_VS>
1.9284534454

> <CNNaffinity_variance>
0.1075712293

$$$$
[H]O[C@@]([H])(C([H])([H])N([H])C(=O)c1c(C([H])([H])[H])c(/C([H])=C2\C(=O)N([H])c3c([H])c([H])c(F)c([H])c32)n([H])c1C([H])([H])[H])C([H])([H])N1C([H])([H])C([H])([H])C([H])([H])C1([H])[H]


 35 38  0  0  0  0  0  0  0  0999 V2000
   37.8787   15.4184   -9.4866 C   0  0  0  0  0  0  0  0  0  0  0  0
   37.2431   14.8878  -10.7340 C   0  0  0  0  0  0  0  0  0  0  0  0
   37.9151   14.1785  -11.6906 N   0  0  0  0  0  0  0  0  0  0  0  0
   37.1088   13.8207  -12.6944 C   0  0  0  0  0  0  0  0  0  0  0  0
   35.8728   14.3323  -12.3446 C   0  0  0  0  0  0  0  0  0  0  0  0
   34.6543   14.1680  -13.1839 C   0  0  0  0  0  0  0  0  0  0  0  0
   35.9386   15.0012  -11.1247 C   0  0  0  0  0  0  0  0  0  0  0  0
   38.9233   13.9483  -11.6080 H   0  0  0  0  0  0  0  0  0  0  0  0
   37.3681   13.0845  -13.9249 C   0  0  0  0  0  0  0  0  0  0  0  0
   38.4227   13.2374  -14.7010 C   0  0  0  0  0  0  0  0  0  0  0  0
   39.5191   14.1510  -14.5085 C   0  0  0  0  0  0  0  0  0  0  0  0
   39.6631   14.9893  -13.5872 O   0  0  0  0  0  0  0  0  0  0  0  0
   40.4340   13.9157  -15.5987 N   0  0  0  0  0  0  0  0  0  0  0  0
   39.9117   12.8941  -16.4278 C   0  0  0  0  0  0  0  0  0  0  0  0
   40.4033   12.3016  -17.5984 C   0  0  0  0  0  0  0  0  0  0  0  0
   39.7262   11.3029  -18.2636 C   0  0  0  0  0  0  0  0  0  0  0  0
   38.5166   10.8794  -17.7436 C   0  0  0  0  0  0  0  0  0  0  0  0
   37.8491    9.8950  -18.3993 F   0  0  0  0  0  0  0  0  0  0  0  0
   38.0280   11.4613  -16.5881 C   0  0  0  0  0  0  0  0  0  0  0  0
   38.7109   12.4572  -15.9325 C   0  0  0  0  0  0  0  0  0  0  0  0
   41.3201   14.4338  -15.7189 H   0  0  0  0  0  0  0  0  0  0  0  0
   34.7989   15.6507  -10.5097 C   0  0  0  0  0  0  0  0  0  0  0  0
   35.0356   16.6639   -9.7423 O   0  0  0  0  0  0  0  0  0  0  0  0
   33.4576   15.3151  -10.6433 N   0  0  0  0  0  0  0  0  0  0  0  0
   33.2441   14.4662  -11.2555 H   0  0  0  0  0  0  0  0  0  0  0  0
   32.2962   15.9202  -10.0814 C   0  0  0  0  0  0  0  0  0  0  0  0
   31.9364   15.6150   -8.6793 C   0  0  0  0  0  0  0  0  0  0  0  0
   32.4918   14.4932   -8.1203 O   0  0  0  0  0  0  0  0  0  0  0  0
   32.0699   13.6906   -8.5639 H   0  0  0  0  0  0  0  0  0  0  0  0
   30.4099   15.4791   -8.5805 C   0  0  0  0  0  0  0  0  0  0  0  0
   29.8008   16.4203   -7.7401 N   0  0  0  0  0  0  0  0  0  0  0  0
   30.5319   17.5490   -7.3037 C   0  0  0  0  0  0  0  0  0  0  0  0
   30.0050   17.9370   -5.9324 C   0  0  0  0  0  0  0  0  0  0  0  0
   28.7434   17.1229   -5.7677 C   0  0  0  0  0  0  0  0  0  0  0  0
   29.0355   15.9152   -6.6495 C   0  0  0  0  0  0  0  0  0  0  0  0
  1  2  1  0  0  0
  2  3  1  0  0  0
  3  4  1  0  0  0
  4  9  1  0  0  0
  9 10  2  0  0  0
 10 11  1  0  0  0
 11 12  2  0  0  0
 11 13  1  0  0  0
 13 14  1  0  0  0
 14 15  2  0  0  0
 15 16  1  0  0  0
 16 17  2  0  0  0
 17 18  1  0  0  0
 17 19  1  0  0  0
 19 20  2  0  0  0
  4  5  2  0  0  0
  5  6  1  0  0  0
  5  7  1  0  0  0
  7 22  1  0  0  0
 22 23  2  0  0  0
 22 24  1  0  0  0
 24 26  1  0  0  0
 26 27  1  0  0  0
 27 28  1  0  0  0
 27 30  1  0  0  0
 30 31  1  0  0  0
 31 32  1  0  0  0
 32 33  1  0  0  0
 33 34  1  0  0  0
 34 35  1  0  0  0
  7  2  2  0  0  0
 35 31  1  0  0  0
 20 10  1  0  0  0
 20 14  1  0  0  0
  3  8  1  0  0  0
 13 21  1  0  0  0
 24 25  1  0  0  0
 28 29  1  0  0  0
M  END
> <minimizedAffinity>
-9.21782

> <CNNscore>
0.2959305346

> <CNNaffinity>
6.0554704666

> <CNN_VS>
1.7919986248

> <CNNaffinity_variance>
0.2638009787

$$$$
[H]O[C@@]([H])(C([H])([H])N([H])C(=O)c1c(C([H])([H])[H])c(/C([H])=C2\C(=O)N([H])c3c([H])c([H])c(F)c([H])c32)n([H])c1C([H])([H])[H])C([H])([H])N1C([H])([H])C([H])([H])C([H])([H])C1([H])[H]


 35 38  0  0  0  0  0  0  0  0999 V2000
   32.6705   15.3147  -11.9750 C   0  0  0  0  0  0  0  0  0  0  0  0
   34.1106   14.9647  -12.1874 C   0  0  0  0  0  0  0  0  0  0  0  0
   34.5994   14.4097  -13.3375 N   0  0  0  0  0  0  0  0  0  0  0  0
   35.9180   14.2053  -13.2629 C   0  0  0  0  0  0  0  0  0  0  0  0
   36.2673   14.6565  -12.0035 C   0  0  0  0  0  0  0  0  0  0  0  0
   37.6617   14.6240  -11.4827 C   0  0  0  0  0  0  0  0  0  0  0  0
   35.1520   15.1332  -11.3189 C   0  0  0  0  0  0  0  0  0  0  0  0
   33.9966   14.2017  -14.1557 H   0  0  0  0  0  0  0  0  0  0  0  0
   36.8606   13.6306  -14.2139 C   0  0  0  0  0  0  0  0  0  0  0  0
   36.5755   12.7105  -15.1139 C   0  0  0  0  0  0  0  0  0  0  0  0
   35.2997   12.0825  -15.3417 C   0  0  0  0  0  0  0  0  0  0  0  0
   34.2319   12.2699  -14.7116 O   0  0  0  0  0  0  0  0  0  0  0  0
   35.4892   11.1787  -16.4499 N   0  0  0  0  0  0  0  0  0  0  0  0
   36.8353   11.2530  -16.8817 C   0  0  0  0  0  0  0  0  0  0  0  0
   37.5233   10.5895  -17.9062 C   0  0  0  0  0  0  0  0  0  0  0  0
   38.8582   10.8108  -18.1658 C   0  0  0  0  0  0  0  0  0  0  0  0
   39.5312   11.7257  -17.3767 C   0  0  0  0  0  0  0  0  0  0  0  0
   40.8471   11.9438  -17.6326 F   0  0  0  0  0  0  0  0  0  0  0  0
   38.8559   12.3831  -16.3647 C   0  0  0  0  0  0  0  0  0  0  0  0
   37.5244   12.1549  -16.1136 C   0  0  0  0  0  0  0  0  0  0  0  0
   34.7348   10.5877  -16.8366 H   0  0  0  0  0  0  0  0  0  0  0  0
   35.2099   15.6598   -9.9704 C   0  0  0  0  0  0  0  0  0  0  0  0
   35.7527   16.8222   -9.8096 O   0  0  0  0  0  0  0  0  0  0  0  0
   34.7468   15.0612   -8.8057 N   0  0  0  0  0  0  0  0  0  0  0  0
   34.3156   14.0901   -8.9156 H   0  0  0  0  0  0  0  0  0  0  0  0
   34.7595   15.5310   -7.4604 C   0  0  0  0  0  0  0  0  0  0  0  0
   33.5980   16.2971   -6.9579 C   0  0  0  0  0  0  0  0  0  0  0  0
   33.8073   17.1153   -5.8781 O   0  0  0  0  0  0  0  0  0  0  0  0
   33.9601   16.5252   -5.0735 H   0  0  0  0  0  0  0  0  0  0  0  0
   32.4804   15.3113   -6.5871 C   0  0  0  0  0  0  0  0  0  0  0  0
   31.7692   14.8073   -7.6841 N   0  0  0  0  0  0  0  0  0  0  0  0
   31.1269   15.6986   -8.5740 C   0  0  0  0  0  0  0  0  0  0  0  0
   29.9035   14.9908   -9.1317 C   0  0  0  0  0  0  0  0  0  0  0  0
   30.0741   13.5508   -8.7089 C   0  0  0  0  0  0  0  0  0  0  0  0
   30.9112   13.6954   -7.4439 C   0  0  0  0  0  0  0  0  0  0  0  0
  1  2  1  0  0  0
  2  3  1  0  0  0
  3  4  1  0  0  0
  4  9  1  0  0  0
  9 10  2  0  0  0
 10 11  1  0  0  0
 11 12  2  0  0  0
 11 13  1  0  0  0
 13 14  1  0  0  0
 14 15  2  0  0  0
 15 16  1  0  0  0
 16 17  2  0  0  0
 17 18  1  0  0  0
 17 19  1  0  0  0
 19 20  2  0  0  0
  4  5  2  0  0  0
  5  6  1  0  0  0
  5  7  1  0  0  0
  7 22  1  0  0  0
 22 23  2  0  0  0
 22 24  1  0  0  0
 24 26  1  0  0  0
 26 27  1  0  0  0
 27 28  1  0  0  0
 27 30  1  0  0  0
 30 31  1  0  0  0
 31 32  1  0  0  0
 32 33  1  0  0  0
 33 34  1  0  0  0
 34 35  1  0  0  0
  7  2  2  0  0  0
 35 31  1  0  0  0
 20 10  1  0  0  0
 20 14  1  0  0  0
  3  8  1  0  0  0
 13 21  1  0  0  0
 24 25  1  0  0  0
 28 29  1  0  0  0
M  END
> <minimizedAffinity>
-8.87319

> <CNNscore>
0.2676182091

> <CNNaffinity>
6.2060503960

> <CNN_VS>
1.6608520746

> <CNNaffinity_variance>
0.3236245215

$$$$
[H]O[C@@]([H])(C([H])([H])N([H])C(=O)c1c(C([H])([H])[H])c(/C([H])=C2\C(=O)N([H])c3c([H])c([H])c(F)c([H])c32)n([H])c1C([H])([H])[H])C([H])([H])N1C([H])([H])C([H])([H])C([H])([H])C1([H])[H]


 35 38  0  0  0  0  0  0  0  0999 V2000
   40.8810   16.4264  -10.9176 C   0  0  0  0  0  0  0  0  0  0  0  0
   39.5876   15.8214  -11.3678 C   0  0  0  0  0  0  0  0  0  0  0  0
   39.4551   15.0511  -12.4897 N   0  0  0  0  0  0  0  0  0  0  0  0
   38.1960   14.6344  -12.6540 C   0  0  0  0  0  0  0  0  0  0  0  0
   37.5107   15.1718  -11.5800 C   0  0  0  0  0  0  0  0  0  0  0  0
   36.0548   14.9603  -11.3525 C   0  0  0  0  0  0  0  0  0  0  0  0
   38.3635   15.9154  -10.7677 C   0  0  0  0  0  0  0  0  0  0  0  0
   40.2573   14.8224  -13.1065 H   0  0  0  0  0  0  0  0  0  0  0  0
   37.5763   13.8217  -13.6927 C   0  0  0  0  0  0  0  0  0  0  0  0
   38.2177   13.1930  -14.6578 C   0  0  0  0  0  0  0  0  0  0  0  0
   39.6383   13.1803  -14.8935 C   0  0  0  0  0  0  0  0  0  0  0  0
   40.5262   13.7846  -14.2463 O   0  0  0  0  0  0  0  0  0  0  0  0
   39.8478   12.3275  -16.0379 N   0  0  0  0  0  0  0  0  0  0  0  0
   38.5967   11.8385  -16.4849 C   0  0  0  0  0  0  0  0  0  0  0  0
   38.2532   10.9869  -17.5431 C   0  0  0  0  0  0  0  0  0  0  0  0
   36.9505   10.6279  -17.8118 C   0  0  0  0  0  0  0  0  0  0  0  0
   35.9548   11.1353  -16.9969 C   0  0  0  0  0  0  0  0  0  0  0  0
   34.6706   10.7816  -17.2619 F   0  0  0  0  0  0  0  0  0  0  0  0
   36.2896   11.9759  -15.9511 C   0  0  0  0  0  0  0  0  0  0  0  0
   37.5921   12.3283  -15.6917 C   0  0  0  0  0  0  0  0  0  0  0  0
   40.7805   12.1312  -16.4372 H   0  0  0  0  0  0  0  0  0  0  0  0
   37.9237   16.6067   -9.5728 C   0  0  0  0  0  0  0  0  0  0  0  0
   37.6929   15.8889   -8.5226 O   0  0  0  0  0  0  0  0  0  0  0  0
   37.7147   17.9703   -9.4105 N   0  0  0  0  0  0  0  0  0  0  0  0
   37.8784   18.5771  -10.2742 H   0  0  0  0  0  0  0  0  0  0  0  0
   37.3008   18.7089   -8.2642 C   0  0  0  0  0  0  0  0  0  0  0  0
   37.2887   20.1867   -8.3299 C   0  0  0  0  0  0  0  0  0  0  0  0
   38.4876   20.8135   -8.5514 O   0  0  0  0  0  0  0  0  0  0  0  0
   39.0479   20.7027   -7.7190 H   0  0  0  0  0  0  0  0  0  0  0  0
   36.7114   20.7338   -7.0162 C   0  0  0  0  0  0  0  0  0  0  0  0
   35.6369   21.6175   -7.1829 N   0  0  0  0  0  0  0  0  0  0  0  0
   34.3934   21.3338   -6.5730 C   0  0  0  0  0  0  0  0  0  0  0  0
   33.3038   21.9238   -7.4525 C   0  0  0  0  0  0  0  0  0  0  0  0
   34.0443   22.7975   -8.4373 C   0  0  0  0  0  0  0  0  0  0  0  0
   35.4044   22.1133   -8.4983 C   0  0  0  0  0  0  0  0  0  0  0  0
  1  2  1  0  0  0
  2  3  1  0  0  0
  3  4  1  0  0  0
  4  9  1  0  0  0
  9 10  2  0  0  0
 10 11  1  0  0  0
 11 12  2  0  0  0
 11 13  1  0  0  0
 13 14  1  0  0  0
 14 15  2  0  0  0
 15 16  1  0  0  0
 16 17  2  0  0  0
 17 18  1  0  0  0
 17 19  1  0  0  0
 19 20  2  0  0  0
  4  5  2  0  0  0
  5  6  1  0  0  0
  5  7  1  0  0  0
  7 22  1  0  0  0
 22 23  2  0  0  0
 22 24  1  0  0  0
 24 26  1  0  0  0
 26 27  1  0  0  0
 27 28  1  0  0  0
 27 30  1  0  0  0
 30 31  1  0  0  0
 31 32  1  0  0  0
 32 33  1  0  0  0
 33 34  1  0  0  0
 34 35  1  0  0  0
  7  2  2  0  0  0
 35 31  1  0  0  0
 20 10  1  0  0  0
 20 14  1  0  0  0
  3  8  1  0  0  0
 13 21  1  0  0  0
 24 25  1  0  0  0
 28 29  1  0  0  0
M  END
> <minimizedAffinity>
-8.98480

> <CNNscore>
0.2623537183

> <CNNaffinity>
6.1567678452

> <CNN_VS>
1.6152509451

> <CNNaffinity_variance>
0.2147254199

$$$$
[H]c1nc(C([H])([H])[H])nc([H])c1N([H])C(=O)c1c([H])c(N([H])C(=O)c2c([H])c([H])c(C([H])([H])N3C([H])([H])C([H])([H])N(C([H])([H])[H])C([H])([H])C3([H])[H])c(C(F)(F)F)c2[H])c([H])c([H])c1C([H])([H])[H]


 40 43  0  0  0  0  0  0  0  0999 V2000
   40.1025   13.4318  -15.0028 C   0  0  0  0  0  0  0  0  0  0  0  0
   39.5215   14.4418  -14.5968 O   0  0  0  0  0  0  0  0  0  0  0  0
   39.4255   12.3172  -15.5106 N   0  0  0  0  0  0  0  0  0  0  0  0
   40.0559   11.5049  -15.8362 H   0  0  0  0  0  0  0  0  0  0  0  0
   38.0298   12.1312  -15.6468 C   0  0  0  0  0  0  0  0  0  0  0  0
   37.5872   11.4732  -16.8016 C   0  0  0  0  0  0  0  0  0  0  0  0
   36.2408   11.2585  -16.9740 C   0  0  0  0  0  0  0  0  0  0  0  0
   35.2956   11.6678  -16.0483 C   0  0  0  0  0  0  0  0  0  0  0  0
   33.8738   11.4300  -16.3934 C   0  0  0  0  0  0  0  0  0  0  0  0
   35.6967   12.3039  -14.9225 C   0  0  0  0  0  0  0  0  0  0  0  0
   37.0800   12.5257  -14.7452 C   0  0  0  0  0  0  0  0  0  0  0  0
   34.8191   12.7264  -13.8321 C   0  0  0  0  0  0  0  0  0  0  0  0
   34.3957   11.7708  -13.0988 O   0  0  0  0  0  0  0  0  0  0  0  0
   34.4739   14.0412  -13.6159 N   0  0  0  0  0  0  0  0  0  0  0  0
   34.8357   14.7599  -14.3325 H   0  0  0  0  0  0  0  0  0  0  0  0
   33.6515   14.5854  -12.5856 C   0  0  0  0  0  0  0  0  0  0  0  0
   34.2715   15.3091  -11.5586 C   0  0  0  0  0  0  0  0  0  0  0  0
   33.5618   15.8386  -10.5557 N   0  0  0  0  0  0  0  0  0  0  0  0
   32.2275   15.6971  -10.4941 C   0  0  0  0  0  0  0  0  0  0  0  0
   31.4418   16.2844   -9.3810 C   0  0  0  0  0  0  0  0  0  0  0  0
   31.6418   15.0112  -11.4683 N   0  0  0  0  0  0  0  0  0  0  0  0
   32.2999   14.4502  -12.5103 C   0  0  0  0  0  0  0  0  0  0  0  0
   44.3622   13.4317  -14.8222 C   0  0  0  0  0  0  0  0  0  0  0  0
   43.5961   14.1268  -13.8960 C   0  0  0  0  0  0  0  0  0  0  0  0
   42.2281   14.1450  -13.9322 C   0  0  0  0  0  0  0  0  0  0  0  0
   41.5749   13.4420  -14.9335 C   0  0  0  0  0  0  0  0  0  0  0  0
   42.3371   12.7548  -15.8489 C   0  0  0  0  0  0  0  0  0  0  0  0
   43.7240   12.7153  -15.8409 C   0  0  0  0  0  0  0  0  0  0  0  0
   44.4641   11.9484  -16.8565 C   0  0  0  0  0  0  0  0  0  0  0  0
   44.7850   10.6726  -16.5233 F   0  0  0  0  0  0  0  0  0  0  0  0
   45.5990   12.6464  -17.2964 F   0  0  0  0  0  0  0  0  0  0  0  0
   43.6726   11.8522  -18.0072 F   0  0  0  0  0  0  0  0  0  0  0  0
   45.8141   13.4434  -14.8002 C   0  0  0  0  0  0  0  0  0  0  0  0
   49.2294   11.1844  -11.5418 C   0  0  0  0  0  0  0  0  0  0  0  0
   48.1065   12.0695  -11.6995 N   0  0  0  0  0  0  0  0  0  0  0  0
   46.8693   11.3692  -11.9476 C   0  0  0  0  0  0  0  0  0  0  0  0
   45.9903   12.3007  -12.7357 C   0  0  0  0  0  0  0  0  0  0  0  0
   46.4655   12.3366  -14.1268 N   0  0  0  0  0  0  0  0  0  0  0  0
   47.9166   12.4988  -14.1278 C   0  0  0  0  0  0  0  0  0  0  0  0
   48.3339   13.0063  -12.7716 C   0  0  0  0  0  0  0  0  0  0  0  0
 34 35  1  0  0  0
 35 36  1  0  0  0
 36 37  1  0  0  0
 37 38  1  0  0  0
 38 33  1  0  0  0
 33 23  1  0  0  0
 23 24  2  0  0  0
 24 25  1  0  0  0
 25 26  2  0  0  0
 26 27  1  0  0  0
 27 28  2  0  0  0
 28 29  1  0  0  0
 29 30  1  0  0  0
 29 31  1  0  0  0
 29 32  1  0  0  0
 26  1  1  0  0  0
  1  2  2  0  0  0
  1  3  1  0  0  0
  3  5  1  0  0  0
  5  6  2  0  0  0
  6  7  1  0  0  0
  7  8  2  0  0  0
  8  9  1  0  0  0
  8 10  1  0  0  0
 10 11  2  0  0  0
 10 12  1  0  0  0
 12 13  2  0  0  0
 12 14  1  0  0  0
 14 16  1  0  0  0
 16 17  2  0  0  0
 17 18  1  0  0  0
 18 19  2  0  0  0
 19 20  1  0  0  0
 19 21  1  0  0  0
 21 22  2  0  0  0
 38 39  1  0  0  0
 39 40  1  0  0  0
 40 35  1  0  0  0
 28 23  1  0  0  0
 11  5  1  0  0  0
 22 16  1  0  0  0
  3  4  1  0  0  0
 14 15  1  0  0  0
M  END
> <minimizedAffinity>
-9.78510

> <CNNscore>
0.2580898702

> <CNNaffinity>
6.5329756737

> <CNN_VS>
1.6860948801

> <CNNaffinity_variance>
0.1239687204

$$$$
[H]c1nc(C([H])([H])[H])nc([H])c1N([H])C(=O)c1c([H])c(N([H])C(=O)c2c([H])c([H])c(C([H])([H])N3C([H])([H])C([H])([H])N(C([H])([H])[H])C([H])([H])C3([H])[H])c(C(F)(F)F)c2[H])c([H])c([H])c1C([H])([H])[H]


 40 43  0  0  0  0  0  0  0  0999 V2000
   40.0432   13.3838  -15.0566 C   0  0  0  0  0  0  0  0  0  0  0  0
   39.4554   14.4140  -14.7163 O   0  0  0  0  0  0  0  0  0  0  0  0
   39.3770   12.2532  -15.5429 N   0  0  0  0  0  0  0  0  0  0  0  0
   40.0126   11.4236  -15.8094 H   0  0  0  0  0  0  0  0  0  0  0  0
   37.9861   12.0710  -15.7252 C   0  0  0  0  0  0  0  0  0  0  0  0
   37.5803   11.4121  -16.8930 C   0  0  0  0  0  0  0  0  0  0  0  0
   36.2397   11.2009  -17.1097 C   0  0  0  0  0  0  0  0  0  0  0  0
   35.2654   11.6147  -16.2167 C   0  0  0  0  0  0  0  0  0  0  0  0
   33.8552   11.3803  -16.6086 C   0  0  0  0  0  0  0  0  0  0  0  0
   35.6307   12.2517  -15.0793 C   0  0  0  0  0  0  0  0  0  0  0  0
   37.0079   12.4699  -14.8564 C   0  0  0  0  0  0  0  0  0  0  0  0
   34.7185   12.6789  -14.0196 C   0  0  0  0  0  0  0  0  0  0  0  0
   34.0970   11.7228  -13.4451 O   0  0  0  0  0  0  0  0  0  0  0  0
   34.5400   13.9988  -13.6726 N   0  0  0  0  0  0  0  0  0  0  0  0
   35.0661   14.7294  -14.2646 H   0  0  0  0  0  0  0  0  0  0  0  0
   33.7049   14.5438  -12.6530 C   0  0  0  0  0  0  0  0  0  0  0  0
   34.3114   15.2754  -11.6235 C   0  0  0  0  0  0  0  0  0  0  0  0
   33.5893   15.8061  -10.6301 N   0  0  0  0  0  0  0  0  0  0  0  0
   32.2552   15.6584  -10.5807 C   0  0  0  0  0  0  0  0  0  0  0  0
   31.4559   16.2470   -9.4781 C   0  0  0  0  0  0  0  0  0  0  0  0
   31.6824   14.9650  -11.5573 N   0  0  0  0  0  0  0  0  0  0  0  0
   32.3533   14.4024  -12.5902 C   0  0  0  0  0  0  0  0  0  0  0  0
   44.2929   13.3646  -14.7137 C   0  0  0  0  0  0  0  0  0  0  0  0
   43.4924   14.0168  -13.7853 C   0  0  0  0  0  0  0  0  0  0  0  0
   42.1267   14.0399  -13.8728 C   0  0  0  0  0  0  0  0  0  0  0  0
   41.5119   13.3870  -14.9307 C   0  0  0  0  0  0  0  0  0  0  0  0
   42.3082   12.7424  -15.8481 C   0  0  0  0  0  0  0  0  0  0  0  0
   43.6937   12.6991  -15.7890 C   0  0  0  0  0  0  0  0  0  0  0  0
   44.4715   11.9797  -16.8110 C   0  0  0  0  0  0  0  0  0  0  0  0
   44.7821   10.6898  -16.5253 F   0  0  0  0  0  0  0  0  0  0  0  0
   45.6207   12.6970  -17.1766 F   0  0  0  0  0  0  0  0  0  0  0  0
   43.7228   11.9366  -17.9931 F   0  0  0  0  0  0  0  0  0  0  0  0
   45.7429   13.3717  -14.6357 C   0  0  0  0  0  0  0  0  0  0  0  0
   49.3670   16.9621  -13.4698 C   0  0  0  0  0  0  0  0  0  0  0  0
   48.3699   16.5021  -14.3990 N   0  0  0  0  0  0  0  0  0  0  0  0
   47.0224   16.7544  -13.9480 C   0  0  0  0  0  0  0  0  0  0  0  0
   46.1483   15.7020  -14.5725 C   0  0  0  0  0  0  0  0  0  0  0  0
   46.3494   14.4335  -13.8564 N   0  0  0  0  0  0  0  0  0  0  0  0
   47.7818   14.2088  -13.6834 C   0  0  0  0  0  0  0  0  0  0  0  0
   48.5173   15.0916  -14.6585 C   0  0  0  0  0  0  0  0  0  0  0  0
 34 35  1  0  0  0
 35 36  1  0  0  0
 36 37  1  0  0  0
 37 38  1  0  0  0
 38 33  1  0  0  0
 33 23  1  0  0  0
 23 24  2  0  0  0
 24 25  1  0  0  0
 25 26  2  0  0  0
 26 27  1  0  0  0
 27 28  2  0  0  0
 28 29  1  0  0  0
 29 30  1  0  0  0
 29 31  1  0  0  0
 29 32  1  0  0  0
 26  1  1  0  0  0
  1  2  2  0  0  0
  1  3  1  0  0  0
  3  5  1  0  0  0
  5  6  2  0  0  0
  6  7  1  0  0  0
  7  8  2  0  0  0
  8  9  1  0  0  0
  8 10  1  0  0  0
 10 11  2  0  0  0
 10 12  1  0  0  0
 12 13  2  0  0  0
 12 14  1  0  0  0
 14 16  1  0  0  0
 16 17  2  0  0  0
 17 18  1  0  0  0
 18 19  2  0  0  0
 19 20  1  0  0  0
 19 21  1  0  0  0
 21 22  2  0  0  0
 38 39  1  0  0  0
 39 40  1  0  0  0
 40 35  1  0  0  0
 28 23  1  0  0  0
 11  5  1  0  0  0
 22 16  1  0  0  0
  3  4  1  0  0  0
 14 15  1  0  0  0
M  END
> <minimizedAffinity>
-9.55640

> <CNNscore>
0.2490980625

> <CNNaffinity>
6.5140085220

> <CNN_VS>
1.6226269007

> <CNNaffinity_variance>
0.1282766163

$$$$
[H]c1nc(C([H])([H])[H])nc([H])c1N([H])C(=O)c1c([H])c(N([H])C(=O)c2c([H])c([H])c(C([H])([H])N3C([H])([H])C([H])([H])N(C([H])([H])[H])C([H])([H])C3([H])[H])c(C(F)(F)F)c2[H])c([H])c([H])c1C([H])([H])[H]


 40 43  0  0  0  0  0  0  0  0999 V2000
   36.4612   15.0397  -11.1515 C   0  0  0  0  0  0  0  0  0  0  0  0
   37.0589   15.8386  -11.8776 O   0  0  0  0  0  0  0  0  0  0  0  0
   35.9709   13.8127  -11.6125 N   0  0  0  0  0  0  0  0  0  0  0  0
   35.4734   13.2080  -10.8708 H   0  0  0  0  0  0  0  0  0  0  0  0
   36.0496   13.2769  -12.9193 C   0  0  0  0  0  0  0  0  0  0  0  0
   34.8405   13.0872  -13.6010 C   0  0  0  0  0  0  0  0  0  0  0  0
   34.8657   12.5799  -14.8780 C   0  0  0  0  0  0  0  0  0  0  0  0
   36.0437   12.2456  -15.5247 C   0  0  0  0  0  0  0  0  0  0  0  0
   35.9195   11.6470  -16.8751 C   0  0  0  0  0  0  0  0  0  0  0  0
   37.2263   12.4212  -14.8893 C   0  0  0  0  0  0  0  0  0  0  0  0
   37.2010   12.9415  -13.5768 C   0  0  0  0  0  0  0  0  0  0  0  0
   38.5441   12.1788  -15.4741 C   0  0  0  0  0  0  0  0  0  0  0  0
   38.5614   11.2700  -16.3708 O   0  0  0  0  0  0  0  0  0  0  0  0
   39.6720   12.8673  -15.0888 N   0  0  0  0  0  0  0  0  0  0  0  0
   39.5571   13.5683  -14.2787 H   0  0  0  0  0  0  0  0  0  0  0  0
   41.0018   12.7442  -15.5894 C   0  0  0  0  0  0  0  0  0  0  0  0
   42.0529   13.2240  -14.7971 C   0  0  0  0  0  0  0  0  0  0  0  0
   43.3235   13.1495  -15.2093 N   0  0  0  0  0  0  0  0  0  0  0  0
   43.6411   12.6121  -16.3985 C   0  0  0  0  0  0  0  0  0  0  0  0
   45.0506   12.5307  -16.8546 C   0  0  0  0  0  0  0  0  0  0  0  0
   42.6437   12.1578  -17.1479 N   0  0  0  0  0  0  0  0  0  0  0  0
   41.3382   12.2025  -16.7912 C   0  0  0  0  0  0  0  0  0  0  0  0
   35.9358   16.1454   -7.0675 C   0  0  0  0  0  0  0  0  0  0  0  0
   35.5413   16.9821   -8.1029 C   0  0  0  0  0  0  0  0  0  0  0  0
   35.7000   16.6526   -9.4217 C   0  0  0  0  0  0  0  0  0  0  0  0
   36.2787   15.4338   -9.7428 C   0  0  0  0  0  0  0  0  0  0  0  0
   36.6682   14.6078   -8.7146 C   0  0  0  0  0  0  0  0  0  0  0  0
   36.5218   14.9107   -7.3685 C   0  0  0  0  0  0  0  0  0  0  0  0
   36.9608   13.9652   -6.3291 C   0  0  0  0  0  0  0  0  0  0  0  0
   38.1327   14.2603   -5.7115 F   0  0  0  0  0  0  0  0  0  0  0  0
   36.9719   12.6471   -6.8099 F   0  0  0  0  0  0  0  0  0  0  0  0
   35.9951   13.9359   -5.3160 F   0  0  0  0  0  0  0  0  0  0  0  0
   35.7968   16.5140   -5.6698 C   0  0  0  0  0  0  0  0  0  0  0  0
   40.0977   18.4673   -3.4179 C   0  0  0  0  0  0  0  0  0  0  0  0
   39.5337   17.7110   -4.5038 N   0  0  0  0  0  0  0  0  0  0  0  0
   38.8649   18.5395   -5.4780 C   0  0  0  0  0  0  0  0  0  0  0  0
   37.8004   17.6906   -6.1166 C   0  0  0  0  0  0  0  0  0  0  0  0
   36.6744   17.5593   -5.1801 N   0  0  0  0  0  0  0  0  0  0  0  0
   37.1951   17.2335   -3.8555 C   0  0  0  0  0  0  0  0  0  0  0  0
   38.6037   16.7228   -4.0166 C   0  0  0  0  0  0  0  0  0  0  0  0
 34 35  1  0  0  0
 35 36  1  0  0  0
 36 37  1  0  0  0
 37 38  1  0  0  0
 38 33  1  0  0  0
 33 23  1  0  0  0
 23 24  2  0  0  0
 24 25  1  0  0  0
 25 26  2  0  0  0
 26 27  1  0  0  0
 27 28  2  0  0  0
 28 29  1  0  0  0
 29 30  1  0  0  0
 29 31  1  0  0  0
 29 32  1  0  0  0
 26  1  1  0  0  0
  1  2  2  0  0  0
  1  3  1  0  0  0
  3  5  1  0  0  0
  5  6  2  0  0  0
  6  7  1  0  0  0
  7  8  2  0  0  0
  8  9  1  0  0  0
  8 10  1  0  0  0
 10 11  2  0  0  0
 10 12  1  0  0  0
 12 13  2  0  0  0
 12 14  1  0  0  0
 14 16  1  0  0  0
 16 17  2  0  0  0
 17 18  1  0  0  0
 18 19  2  0  0  0
 19 20  1  0  0  0
 19 21  1  0  0  0
 21 22  2  0  0  0
 38 39  1  0  0  0
 39 40  1  0  0  0
 40 35  1  0  0  0
 28 23  1  0  0  0
 11  5  1  0  0  0
 22 16  1  0  0  0
  3  4  1  0  0  0
 14 15  1  0  0  0
M  END
> <minimizedAffinity>
-8.20494

> <CNNscore>
0.2405674011

> <CNNaffinity>
6.5902585983

> <CNN_VS>
1.5854014158

> <CNNaffinity_variance>
0.2335989177

$$$$
[H]c1nc(C([H])([H])[H])nc([H])c1N([H])C(=O)c1c([H])c(N([H])C(=O)c2c([H])c([H])c(C([H])([H])N3C([H])([H])C([H])([H])N(C([H])([H])[H])C([H])([H])C3([H])[H])c(C(F)(F)F)c2[H])c([H])c([H])c1C([H])([H])[H]


 40 43  0  0  0  0  0  0  0  0999 V2000
   40.6381   13.4967  -14.8404 C   0  0  0  0  0  0  0  0  0  0  0  0
   40.0816   14.5623  -14.5621 O   0  0  0  0  0  0  0  0  0  0  0  0
   39.9375   12.3579  -15.2535 N   0  0  0  0  0  0  0  0  0  0  0  0
   40.5480   11.4956  -15.4706 H   0  0  0  0  0  0  0  0  0  0  0  0
   38.5410   12.2047  -15.4190 C   0  0  0  0  0  0  0  0  0  0  0  0
   38.1062   11.5852  -16.5980 C   0  0  0  0  0  0  0  0  0  0  0  0
   36.7590   11.4031  -16.7996 C   0  0  0  0  0  0  0  0  0  0  0  0
   35.8057   11.8088  -15.8806 C   0  0  0  0  0  0  0  0  0  0  0  0
   34.3858   11.6095  -16.2568 C   0  0  0  0  0  0  0  0  0  0  0  0
   36.1991   12.4079  -14.7320 C   0  0  0  0  0  0  0  0  0  0  0  0
   37.5832   12.5962  -14.5247 C   0  0  0  0  0  0  0  0  0  0  0  0
   35.3106   12.8213  -13.6470 C   0  0  0  0  0  0  0  0  0  0  0  0
   35.1134   11.9246  -12.7597 O   0  0  0  0  0  0  0  0  0  0  0  0
   34.7315   14.0685  -13.5879 N   0  0  0  0  0  0  0  0  0  0  0  0
   34.9143   14.7261  -14.4216 H   0  0  0  0  0  0  0  0  0  0  0  0
   33.8709   14.6012  -12.5831 C   0  0  0  0  0  0  0  0  0  0  0  0
   34.4538   15.2924  -11.5128 C   0  0  0  0  0  0  0  0  0  0  0  0
   33.7069   15.8094  -10.5307 N   0  0  0  0  0  0  0  0  0  0  0  0
   32.3694   15.6860  -10.5320 C   0  0  0  0  0  0  0  0  0  0  0  0
   31.5424   16.2593   -9.4418 C   0  0  0  0  0  0  0  0  0  0  0  0
   31.8189   15.0307  -11.5471 N   0  0  0  0  0  0  0  0  0  0  0  0
   32.5156   14.4840  -12.5714 C   0  0  0  0  0  0  0  0  0  0  0  0
   44.8840   13.4213  -14.4604 C   0  0  0  0  0  0  0  0  0  0  0  0
   44.2648   13.3617  -15.7018 C   0  0  0  0  0  0  0  0  0  0  0  0
   42.9046   13.3823  -15.8518 C   0  0  0  0  0  0  0  0  0  0  0  0
   42.1070   13.4657  -14.7203 C   0  0  0  0  0  0  0  0  0  0  0  0
   42.7239   13.5246  -13.4926 C   0  0  0  0  0  0  0  0  0  0  0  0
   44.0986   13.5061  -13.3053 C   0  0  0  0  0  0  0  0  0  0  0  0
   44.6782   13.5794  -11.9541 C   0  0  0  0  0  0  0  0  0  0  0  0
   45.5956   14.5587  -11.7514 F   0  0  0  0  0  0  0  0  0  0  0  0
   45.1831   12.3351  -11.5471 F   0  0  0  0  0  0  0  0  0  0  0  0
   43.6481   13.8296  -11.0398 F   0  0  0  0  0  0  0  0  0  0  0  0
   46.3266   13.3646  -14.3042 C   0  0  0  0  0  0  0  0  0  0  0  0
   49.3674   17.6055  -14.6952 C   0  0  0  0  0  0  0  0  0  0  0  0
   49.2178   16.2609  -14.2065 N   0  0  0  0  0  0  0  0  0  0  0  0
   49.3329   15.2683  -15.2479 C   0  0  0  0  0  0  0  0  0  0  0  0
   48.5255   14.0782  -14.8084 C   0  0  0  0  0  0  0  0  0  0  0  0
   47.0984   14.3790  -14.9956 N   0  0  0  0  0  0  0  0  0  0  0  0
   46.8203   15.7090  -14.4611 C   0  0  0  0  0  0  0  0  0  0  0  0
   47.9504   16.0914  -13.5404 C   0  0  0  0  0  0  0  0  0  0  0  0
 34 35  1  0  0  0
 35 36  1  0  0  0
 36 37  1  0  0  0
 37 38  1  0  0  0
 38 33  1  0  0  0
 33 23  1  0  0  0
 23 24  2  0  0  0
 24 25  1  0  0  0
 25 26  2  0  0  0
 26 27  1  0  0  0
 27 28  2  0  0  0
 28 29  1  0  0  0
 29 30  1  0  0  0
 29 31  1  0  0  0
 29 32  1  0  0  0
 26  1  1  0  0  0
  1  2  2  0  0  0
  1  3  1  0  0  0
  3  5  1  0  0  0
  5  6  2  0  0  0
  6  7  1  0  0  0
  7  8  2  0  0  0
  8  9  1  0  0  0
  8 10  1  0  0  0
 10 11  2  0  0  0
 10 12  1  0  0  0
 12 13  2  0  0  0
 12 14  1  0  0  0
 14 16  1  0  0  0
 16 17  2  0  0  0
 17 18  1  0  0  0
 18 19  2  0  0  0
 19 20  1  0  0  0
 19 21  1  0  0  0
 21 22  2  0  0  0
 38 39  1  0  0  0
 39 40  1  0  0  0
 40 35  1  0  0  0
 28 23  1  0  0  0
 11  5  1  0  0  0
 22 16  1  0  0  0
  3  4  1  0  0  0
 14 15  1  0  0  0
M  END
> <minimizedAffinity>
-8.84685

> <CNNscore>
0.2197015435

> <CNNaffinity>
6.3376054764

> <CNN_VS>
1.3923816681

> <CNNaffinity_variance>
0.1968343109

$$$$
[H]c1nc(C([H])([H])[H])nc([H])c1N([H])C(=O)c1c([H])c(N([H])C(=O)c2c([H])c([H])c(C([H])([H])N3C([H])([H])C([H])([H])N(C([H])([H])[H])C([H])([H])C3([H])[H])c(C(F)(F)F)c2[H])c([H])c([H])c1C([H])([H])[H]


 40 43  0  0  0  0  0  0  0  0999 V2000
   36.0646   15.1501  -12.0346 C   0  0  0  0  0  0  0  0  0  0  0  0
   37.0873   15.5360  -12.6071 O   0  0  0  0  0  0  0  0  0  0  0  0
   35.2676   14.1079  -12.5214 N   0  0  0  0  0  0  0  0  0  0  0  0
   34.4053   13.8682  -11.9194 H   0  0  0  0  0  0  0  0  0  0  0  0
   35.4559   13.3399  -13.6943 C   0  0  0  0  0  0  0  0  0  0  0  0
   34.3041   12.8487  -14.3226 C   0  0  0  0  0  0  0  0  0  0  0  0
   34.4347   12.1067  -15.4720 C   0  0  0  0  0  0  0  0  0  0  0  0
   35.6652   11.8215  -16.0401 C   0  0  0  0  0  0  0  0  0  0  0  0
   35.6625   10.9552  -17.2429 C   0  0  0  0  0  0  0  0  0  0  0  0
   36.7938   12.2862  -15.4543 C   0  0  0  0  0  0  0  0  0  0  0  0
   36.6604   13.0479  -14.2727 C   0  0  0  0  0  0  0  0  0  0  0  0
   38.1481   12.1224  -15.9802 C   0  0  0  0  0  0  0  0  0  0  0  0
   38.2149   11.4321  -17.0523 O   0  0  0  0  0  0  0  0  0  0  0  0
   39.2581   12.6615  -15.3705 N   0  0  0  0  0  0  0  0  0  0  0  0
   39.0957   13.1722  -14.4358 H   0  0  0  0  0  0  0  0  0  0  0  0
   40.6204   12.5950  -15.7873 C   0  0  0  0  0  0  0  0  0  0  0  0
   41.5939   13.1652  -14.9565 C   0  0  0  0  0  0  0  0  0  0  0  0
   42.8892   13.1473  -15.2907 N   0  0  0  0  0  0  0  0  0  0  0  0
   43.3071   12.5823  -16.4353 C   0  0  0  0  0  0  0  0  0  0  0  0
   44.7438   12.5637  -16.8048 C   0  0  0  0  0  0  0  0  0  0  0  0
   42.3831   12.0424  -17.2212 N   0  0  0  0  0  0  0  0  0  0  0  0
   41.0580   12.0264  -16.9431 C   0  0  0  0  0  0  0  0  0  0  0  0
   35.0546   17.1646   -8.4152 C   0  0  0  0  0  0  0  0  0  0  0  0
   34.2066   16.2232   -8.9834 C   0  0  0  0  0  0  0  0  0  0  0  0
   34.5056   15.5637  -10.1448 C   0  0  0  0  0  0  0  0  0  0  0  0
   35.7035   15.8438  -10.7850 C   0  0  0  0  0  0  0  0  0  0  0  0
   36.5407   16.7767  -10.2192 C   0  0  0  0  0  0  0  0  0  0  0  0
   36.2686   17.4625   -9.0442 C   0  0  0  0  0  0  0  0  0  0  0  0
   37.2243   18.4426   -8.5027 C   0  0  0  0  0  0  0  0  0  0  0  0
   38.3052   18.7122   -9.2778 F   0  0  0  0  0  0  0  0  0  0  0  0
   37.6205   18.1034   -7.2001 F   0  0  0  0  0  0  0  0  0  0  0  0
   36.5630   19.6652   -8.3357 F   0  0  0  0  0  0  0  0  0  0  0  0
   34.7177   17.8867   -7.2013 C   0  0  0  0  0  0  0  0  0  0  0  0
   35.3319   14.3844   -3.3619 C   0  0  0  0  0  0  0  0  0  0  0  0
   35.7351   15.6415   -3.9330 N   0  0  0  0  0  0  0  0  0  0  0  0
   34.7682   16.6916   -3.7196 C   0  0  0  0  0  0  0  0  0  0  0  0
   34.9237   17.6660   -4.8544 C   0  0  0  0  0  0  0  0  0  0  0  0
   34.3096   17.0904   -6.0602 N   0  0  0  0  0  0  0  0  0  0  0  0
   34.7479   15.7046   -6.1999 C   0  0  0  0  0  0  0  0  0  0  0  0
   35.9763   15.5120   -5.3485 C   0  0  0  0  0  0  0  0  0  0  0  0
 34 35  1  0  0  0
 35 36  1  0  0  0
 36 37  1  0  0  0
 37 38  1  0  0  0
 38 33  1  0  0  0
 33 23  1  0  0  0
 23 24  2  0  0  0
 24 25  1  0  0  0
 25 26  2  0  0  0
 26 27  1  0  0  0
 27 28  2  0  0  0
 28 29  1  0  0  0
 29 30  1  0  0  0
 29 31  1  0  0  0
 29 32  1  0  0  0
 26  1  1  0  0  0
  1  2  2  0  0  0
  1  3  1  0  0  0
  3  5  1  0  0  0
  5  6  2  0  0  0
  6  7  1  0  0  0
  7  8  2  0  0  0
  8  9  1  0  0  0
  8 10  1  0  0  0
 10 11  2  0  0  0
 10 12  1  0  0  0
 12 13  2  0  0  0
 12 14  1  0  0  0
 14 16  1  0  0  0
 16 17  2  0  0  0
 17 18  1  0  0  0
 18 19  2  0  0  0
 19 20  1  0  0  0
 19 21  1  0  0  0
 21 22  2  0  0  0
 38 39  1  0  0  0
 39 40  1  0  0  0
 40 35  1  0  0  0
 28 23  1  0  0  0
 11  5  1  0  0  0
 22 16  1  0  0  0
  3  4  1  0  0  0
 14 15  1  0  0  0
M  END
> <minimizedAffinity>
-8.70217

> <CNNscore>
0.2141681165

> <CNNaffinity>
6.6707067490

> <CNN_VS>
1.4286526442

> <CNNaffinity_variance>
0.4606949389

$$$$
[H]c1nc(C([H])([H])[H])nc([H])c1N([H])C(=O)c1c([H])c(N([H])C(=O)c2c([H])c([H])c(C([H])([H])N3C([H])([H])C([H])([H])N(C([H])([H])[H])C([H])([H])C3([H])[H])c(C(F)(F)F)c2[H])c([H])c([H])c1C([H])([H])[H]


 40 43  0  0  0  0  0  0  0  0999 V2000
   35.8291   14.7862  -11.3471 C   0  0  0  0  0  0  0  0  0  0  0  0
   36.4899   15.6321  -11.9559 O   0  0  0  0  0  0  0  0  0  0  0  0
   35.4730   13.5531  -11.9050 N   0  0  0  0  0  0  0  0  0  0  0  0
   34.8995   12.9052  -11.2612 H   0  0  0  0  0  0  0  0  0  0  0  0
   35.7726   13.0607  -13.1968 C   0  0  0  0  0  0  0  0  0  0  0  0
   34.6889   12.8237  -14.0524 C   0  0  0  0  0  0  0  0  0  0  0  0
   34.9296   12.3559  -15.3220 C   0  0  0  0  0  0  0  0  0  0  0  0
   36.2069   12.1067  -15.7955 C   0  0  0  0  0  0  0  0  0  0  0  0
   36.3161   11.5416  -17.1615 C   0  0  0  0  0  0  0  0  0  0  0  0
   37.2720   12.3295  -14.9899 C   0  0  0  0  0  0  0  0  0  0  0  0
   37.0253   12.8093  -13.6849 C   0  0  0  0  0  0  0  0  0  0  0  0
   38.6729   12.1780  -15.3797 C   0  0  0  0  0  0  0  0  0  0  0  0
   38.9017   11.1754  -16.1363 O   0  0  0  0  0  0  0  0  0  0  0  0
   39.6628   13.0391  -14.9636 N   0  0  0  0  0  0  0  0  0  0  0  0
   39.3706   13.8147  -14.2752 H   0  0  0  0  0  0  0  0  0  0  0  0
   41.0521   13.0169  -15.2854 C   0  0  0  0  0  0  0  0  0  0  0  0
   41.9644   13.4213  -14.3021 C   0  0  0  0  0  0  0  0  0  0  0  0
   43.2809   13.4345  -14.5394 N   0  0  0  0  0  0  0  0  0  0  0  0
   43.7796   13.0608  -15.7292 C   0  0  0  0  0  0  0  0  0  0  0  0
   45.2398   13.0764  -15.9911 C   0  0  0  0  0  0  0  0  0  0  0  0
   42.9135   12.6777  -16.6597 N   0  0  0  0  0  0  0  0  0  0  0  0
   41.5711   12.6410  -16.4855 C   0  0  0  0  0  0  0  0  0  0  0  0
   34.6562   15.7490   -7.3627 C   0  0  0  0  0  0  0  0  0  0  0  0
   34.0455   16.3378   -8.4619 C   0  0  0  0  0  0  0  0  0  0  0  0
   34.4037   16.0482   -9.7507 C   0  0  0  0  0  0  0  0  0  0  0  0
   35.4185   15.1296   -9.9736 C   0  0  0  0  0  0  0  0  0  0  0  0
   36.0210   14.5485   -8.8825 C   0  0  0  0  0  0  0  0  0  0  0  0
   35.6823   14.8191   -7.5644 C   0  0  0  0  0  0  0  0  0  0  0  0
   36.3748   14.1466   -6.4530 C   0  0  0  0  0  0  0  0  0  0  0  0
   35.6014   13.3737   -5.6491 F   0  0  0  0  0  0  0  0  0  0  0  0
   37.1245   15.0573   -5.6930 F   0  0  0  0  0  0  0  0  0  0  0  0
   37.3444   13.2885   -6.9853 F   0  0  0  0  0  0  0  0  0  0  0  0
   34.2961   16.0849   -5.9967 C   0  0  0  0  0  0  0  0  0  0  0  0
   34.1753   20.6339   -3.4129 C   0  0  0  0  0  0  0  0  0  0  0  0
   34.0199   19.2048   -3.3610 N   0  0  0  0  0  0  0  0  0  0  0  0
   35.2792   18.5008   -3.3987 C   0  0  0  0  0  0  0  0  0  0  0  0
   35.0086   17.1535   -4.0094 C   0  0  0  0  0  0  0  0  0  0  0  0
   34.8434   17.3164   -5.4615 N   0  0  0  0  0  0  0  0  0  0  0  0
   33.9504   18.4439   -5.7134 C   0  0  0  0  0  0  0  0  0  0  0  0
   33.1921   18.7356   -4.4442 C   0  0  0  0  0  0  0  0  0  0  0  0
 34 35  1  0  0  0
 35 36  1  0  0  0
 36 37  1  0  0  0
 37 38  1  0  0  0
 38 33  1  0  0  0
 33 23  1  0  0  0
 23 24  2  0  0  0
 24 25  1  0  0  0
 25 26  2  0  0  0
 26 27  1  0  0  0
 27 28  2  0  0  0
 28 29  1  0  0  0
 29 30  1  0  0  0
 29 31  1  0  0  0
 29 32  1  0  0  0
 26  1  1  0  0  0
  1  2  2  0  0  0
  1  3  1  0  0  0
  3  5  1  0  0  0
  5  6  2  0  0  0
  6  7  1  0  0  0
  7  8  2  0  0  0
  8  9  1  0  0  0
  8 10  1  0  0  0
 10 11  2  0  0  0
 10 12  1  0  0  0
 12 13  2  0  0  0
 12 14  1  0  0  0
 14 16  1  0  0  0
 16 17  2  0  0  0
 17 18  1  0  0  0
 18 19  2  0  0  0
 19 20  1  0  0  0
 19 21  1  0  0  0
 21 22  2  0  0  0
 38 39  1  0  0  0
 39 40  1  0  0  0
 40 35  1  0  0  0
 28 23  1  0  0  0
 11  5  1  0  0  0
 22 16  1  0  0  0
  3  4  1  0  0  0
 14 15  1  0  0  0
M  END
> <minimizedAffinity>
-8.54031

> <CNNscore>
0.2011276782

> <CNNaffinity>
6.3811888695

> <CNN_VS>
1.2834336758

> <CNNaffinity_variance>
0.2488305271

$$$$
[H]c1nc(C([H])([H])[H])nc([H])c1N([H])C(=O)c1c([H])c(N([H])C(=O)c2c([H])c([H])c(C([H])([H])N3C([H])([H])C([H])([H])N(C([H])([H])[H])C([H])([H])C3([H])[H])c(C(F)(F)F)c2[H])c([H])c([H])c1C([H])([H])[H]


 40 43  0  0  0  0  0  0  0  0999 V2000
   40.8911   12.9768  -16.1290 C   0  0  0  0  0  0  0  0  0  0  0  0
   40.5592   13.4670  -17.2117 O   0  0  0  0  0  0  0  0  0  0  0  0
   39.9821   12.3570  -15.2641 N   0  0  0  0  0  0  0  0  0  0  0  0
   40.4070   11.9660  -14.3531 H   0  0  0  0  0  0  0  0  0  0  0  0
   38.5893   12.1835  -15.4402 C   0  0  0  0  0  0  0  0  0  0  0  0
   38.1731   11.5478  -16.6172 C   0  0  0  0  0  0  0  0  0  0  0  0
   36.8302   11.3457  -16.8287 C   0  0  0  0  0  0  0  0  0  0  0  0
   35.8636   11.7467  -15.9216 C   0  0  0  0  0  0  0  0  0  0  0  0
   34.4499   11.5249  -16.3081 C   0  0  0  0  0  0  0  0  0  0  0  0
   36.2390   12.3613  -14.7752 C   0  0  0  0  0  0  0  0  0  0  0  0
   37.6185   12.5700  -14.5577 C   0  0  0  0  0  0  0  0  0  0  0  0
   35.3356   12.7723  -13.7016 C   0  0  0  0  0  0  0  0  0  0  0  0
   35.1278   11.8744  -12.8180 O   0  0  0  0  0  0  0  0  0  0  0  0
   34.7541   14.0187  -13.6488 N   0  0  0  0  0  0  0  0  0  0  0  0
   34.9471   14.6775  -14.4793 H   0  0  0  0  0  0  0  0  0  0  0  0
   33.8796   14.5492  -12.6549 C   0  0  0  0  0  0  0  0  0  0  0  0
   34.4416   15.2953  -11.6108 C   0  0  0  0  0  0  0  0  0  0  0  0
   33.6811   15.8137  -10.6398 N   0  0  0  0  0  0  0  0  0  0  0  0
   32.3494   15.6391  -10.6279 C   0  0  0  0  0  0  0  0  0  0  0  0
   31.5074   16.2142   -9.5502 C   0  0  0  0  0  0  0  0  0  0  0  0
   31.8186   14.9319  -11.6183 N   0  0  0  0  0  0  0  0  0  0  0  0
   32.5299   14.3805  -12.6301 C   0  0  0  0  0  0  0  0  0  0  0  0
   45.0119   13.2736  -15.0761 C   0  0  0  0  0  0  0  0  0  0  0  0
   44.5783   12.4153  -16.0777 C   0  0  0  0  0  0  0  0  0  0  0  0
   43.2620   12.2994  -16.4341 C   0  0  0  0  0  0  0  0  0  0  0  0
   42.3179   13.0684  -15.7702 C   0  0  0  0  0  0  0  0  0  0  0  0
   42.7512   13.9173  -14.7787 C   0  0  0  0  0  0  0  0  0  0  0  0
   44.0765   14.0592  -14.3932 C   0  0  0  0  0  0  0  0  0  0  0  0
   44.4563   14.9974  -13.3243 C   0  0  0  0  0  0  0  0  0  0  0  0
   45.5422   15.7733  -13.5702 F   0  0  0  0  0  0  0  0  0  0  0  0
   44.5850   14.3410  -12.0909 F   0  0  0  0  0  0  0  0  0  0  0  0
   43.3954   15.8860  -13.1129 F   0  0  0  0  0  0  0  0  0  0  0  0
   46.4052   13.3681  -14.6781 C   0  0  0  0  0  0  0  0  0  0  0  0
   49.1487   10.7990  -11.0370 C   0  0  0  0  0  0  0  0  0  0  0  0
   48.0170   11.6342  -11.3385 N   0  0  0  0  0  0  0  0  0  0  0  0
   46.9452   10.9162  -11.9856 C   0  0  0  0  0  0  0  0  0  0  0  0
   46.1942   11.9140  -12.8234 C   0  0  0  0  0  0  0  0  0  0  0  0
   46.9798   12.2039  -14.0322 N   0  0  0  0  0  0  0  0  0  0  0  0
   48.3680   12.4446  -13.6488 C   0  0  0  0  0  0  0  0  0  0  0  0
   48.4026   12.7452  -12.1725 C   0  0  0  0  0  0  0  0  0  0  0  0
 34 35  1  0  0  0
 35 36  1  0  0  0
 36 37  1  0  0  0
 37 38  1  0  0  0
 38 33  1  0  0  0
 33 23  1  0  0  0
 23 24  2  0  0  0
 24 25  1  0  0  0
 25 26  2  0  0  0
 26 27  1  0  0  0
 27 28  2  0  0  0
 28 29  1  0  0  0
 29 30  1  0  0  0
 29 31  1  0  0  0
 29 32  1  0  0  0
 26  1  1  0  0  0
  1  2  2  0  0  0
  1  3  1  0  0  0
  3  5  1  0  0  0
  5  6  2  0  0  0
  6  7  1  0  0  0
  7  8  2  0  0  0
  8  9  1  0  0  0
  8 10  1  0  0  0
 10 11  2  0  0  0
 10 12  1  0  0  0
 12 13  2  0  0  0
 12 14  1  0  0  0
 14 16  1  0  0  0
 16 17  2  0  0  0
 17 18  1  0  0  0
 18 19  2  0  0  0
 19 20  1  0  0  0
 19 21  1  0  0  0
 21 22  2  0  0  0
 38 39  1  0  0  0
 39 40  1  0  0  0
 40 35  1  0  0  0
 28 23  1  0  0  0
 11  5  1  0  0  0
 22 16  1  0  0  0
  3  4  1  0  0  0
 14 15  1  0  0  0
M  END
> <minimizedAffinity>
-9.39008

> <CNNscore>
0.1998132169

> <CNNaffinity>
6.4841027260

> <CNN_VS>
1.2956094742

> <CNNaffinity_variance>
0.0797069743

$$$$
[H]c1nc(C([H])([H])[H])nc([H])c1N([H])C(=O)c1c([H])c(N([H])C(=O)c2c([H])c([H])c(C([H])([H])N3C([H])([H])C([H])([H])N(C([H])([H])[H])C([H])([H])C3([H])[H])c(C(F)(F)F)c2[H])c([H])c([H])c1C([H])([H])[H]


 40 43  0  0  0  0  0  0  0  0999 V2000
   42.6867   13.8692  -14.2875 C   0  0  0  0  0  0  0  0  0  0  0  0
   42.7389   14.8186  -13.5009 O   0  0  0  0  0  0  0  0  0  0  0  0
   43.8258   13.1975  -14.7455 N   0  0  0  0  0  0  0  0  0  0  0  0
   43.6367   12.3819  -15.4255 H   0  0  0  0  0  0  0  0  0  0  0  0
   45.1793   13.4569  -14.4264 C   0  0  0  0  0  0  0  0  0  0  0  0
   46.1424   13.0225  -15.3464 C   0  0  0  0  0  0  0  0  0  0  0  0
   47.4706   13.2616  -15.0865 C   0  0  0  0  0  0  0  0  0  0  0  0
   47.9010   13.9183  -13.9457 C   0  0  0  0  0  0  0  0  0  0  0  0
   49.3660   14.0494  -13.7613 C   0  0  0  0  0  0  0  0  0  0  0  0
   46.9907   14.3505  -13.0415 C   0  0  0  0  0  0  0  0  0  0  0  0
   45.6259   14.1043  -13.3075 C   0  0  0  0  0  0  0  0  0  0  0  0
   47.2965   15.1160  -11.8341 C   0  0  0  0  0  0  0  0  0  0  0  0
   47.5043   14.4002  -10.7974 O   0  0  0  0  0  0  0  0  0  0  0  0
   47.3515   16.4911  -11.8136 N   0  0  0  0  0  0  0  0  0  0  0  0
   47.0969   16.9986  -12.7294 H   0  0  0  0  0  0  0  0  0  0  0  0
   47.6570   17.3514  -10.7179 C   0  0  0  0  0  0  0  0  0  0  0  0
   48.8104   18.1424  -10.8008 C   0  0  0  0  0  0  0  0  0  0  0  0
   49.1620   18.9643   -9.8054 N   0  0  0  0  0  0  0  0  0  0  0  0
   48.4234   19.0632   -8.6880 C   0  0  0  0  0  0  0  0  0  0  0  0
   48.8149   19.9747   -7.5847 C   0  0  0  0  0  0  0  0  0  0  0  0
   47.3307   18.3130   -8.6113 N   0  0  0  0  0  0  0  0  0  0  0  0
   46.9186   17.4619   -9.5806 C   0  0  0  0  0  0  0  0  0  0  0  0
   38.8204   12.6684  -15.6244 C   0  0  0  0  0  0  0  0  0  0  0  0
   38.9892   13.4099  -14.4627 C   0  0  0  0  0  0  0  0  0  0  0  0
   40.2185   13.8066  -14.0103 C   0  0  0  0  0  0  0  0  0  0  0  0
   41.3456   13.4557  -14.7383 C   0  0  0  0  0  0  0  0  0  0  0  0
   41.1743   12.7213  -15.8883 C   0  0  0  0  0  0  0  0  0  0  0  0
   39.9439   12.3035  -16.3747 C   0  0  0  0  0  0  0  0  0  0  0  0
   39.8486   11.5242  -17.6200 C   0  0  0  0  0  0  0  0  0  0  0  0
   39.2417   12.1419  -18.6649 F   0  0  0  0  0  0  0  0  0  0  0  0
   39.2783   10.2629  -17.3904 F   0  0  0  0  0  0  0  0  0  0  0  0
   41.1437   11.2229  -18.0579 F   0  0  0  0  0  0  0  0  0  0  0  0
   37.5171   12.2206  -16.0822 C   0  0  0  0  0  0  0  0  0  0  0  0
   33.3584   13.7062  -13.2746 C   0  0  0  0  0  0  0  0  0  0  0  0
   33.8967   13.3880  -14.5700 N   0  0  0  0  0  0  0  0  0  0  0  0
   34.0879   11.9711  -14.7666 C   0  0  0  0  0  0  0  0  0  0  0  0
   35.2089   11.8146  -15.7567 C   0  0  0  0  0  0  0  0  0  0  0  0
   36.4839   12.0811  -15.0744 N   0  0  0  0  0  0  0  0  0  0  0  0
   36.3516   13.3004  -14.2821 C   0  0  0  0  0  0  0  0  0  0  0  0
   35.1529   14.0614  -14.7870 C   0  0  0  0  0  0  0  0  0  0  0  0
 34 35  1  0  0  0
 35 36  1  0  0  0
 36 37  1  0  0  0
 37 38  1  0  0  0
 38 33  1  0  0  0
 33 23  1  0  0  0
 23 24  2  0  0  0
 24 25  1  0  0  0
 25 26  2  0  0  0
 26 27  1  0  0  0
 27 28  2  0  0  0
 28 29  1  0  0  0
 29 30  1  0  0  0
 29 31  1  0  0  0
 29 32  1  0  0  0
 26  1  1  0  0  0
  1  2  2  0  0  0
  1  3  1  0  0  0
  3  5  1  0  0  0
  5  6  2  0  0  0
  6  7  1  0  0  0
  7  8  2  0  0  0
  8  9  1  0  0  0
  8 10  1  0  0  0
 10 11  2  0  0  0
 10 12  1  0  0  0
 12 13  2  0  0  0
 12 14  1  0  0  0
 14 16  1  0  0  0
 16 17  2  0  0  0
 17 18  1  0  0  0
 18 19  2  0  0  0
 19 20  1  0  0  0
 19 21  1  0  0  0
 21 22  2  0  0  0
 38 39  1  0  0  0
 39 40  1  0  0  0
 40 35  1  0  0  0
 28 23  1  0  0  0
 11  5  1  0  0  0
 22 16  1  0  0  0
  3  4  1  0  0  0
 14 15  1  0  0  0
M  END
> <minimizedAffinity>
-7.90648

> <CNNscore>
0.1742623001

> <CNNaffinity>
6.4451141357

> <CNN_VS>
1.1231404543

> <CNNaffinity_variance>
0.3072064519

$$$$
[H]c1nc(C([H])([H])[H])nc([H])c1N([H])C(=O)c1c([H])c(N([H])C(=O)c2c([H])c([H])c(C([H])([H])N3C([H])([H])C([H])([H])N(C([H])([H])[H])C([H])([H])C3([H])[H])c(C(F)(F)F)c2[H])c([H])c([H])c1C([H])([H])[H]


 40 43  0  0  0  0  0  0  0  0999 V2000
   35.9057   15.4854  -11.4817 C   0  0  0  0  0  0  0  0  0  0  0  0
   36.5748   16.1824  -12.2493 O   0  0  0  0  0  0  0  0  0  0  0  0
   35.4488   14.2063  -11.8189 N   0  0  0  0  0  0  0  0  0  0  0  0
   34.8796   13.7042  -11.0525 H   0  0  0  0  0  0  0  0  0  0  0  0
   35.6426   13.5014  -13.0299 C   0  0  0  0  0  0  0  0  0  0  0  0
   34.4954   13.1783  -13.7663 C   0  0  0  0  0  0  0  0  0  0  0  0
   34.6329   12.5038  -14.9558 C   0  0  0  0  0  0  0  0  0  0  0  0
   35.8658   12.1269  -15.4615 C   0  0  0  0  0  0  0  0  0  0  0  0
   35.8623   11.3468  -16.7220 C   0  0  0  0  0  0  0  0  0  0  0  0
   36.9904   12.4289  -14.7708 C   0  0  0  0  0  0  0  0  0  0  0  0
   36.8498   13.1211  -13.5480 C   0  0  0  0  0  0  0  0  0  0  0  0
   38.3555   12.1565  -15.2177 C   0  0  0  0  0  0  0  0  0  0  0  0
   38.5214   10.9941  -15.7193 O   0  0  0  0  0  0  0  0  0  0  0  0
   39.3770   13.0718  -15.1038 N   0  0  0  0  0  0  0  0  0  0  0  0
   39.1421   13.9987  -14.6072 H   0  0  0  0  0  0  0  0  0  0  0  0
   40.7362   12.9415  -15.5159 C   0  0  0  0  0  0  0  0  0  0  0  0
   41.7349   13.4264  -14.6613 C   0  0  0  0  0  0  0  0  0  0  0  0
   43.0293   13.3457  -14.9895 N   0  0  0  0  0  0  0  0  0  0  0  0
   43.4221   12.7968  -16.1508 C   0  0  0  0  0  0  0  0  0  0  0  0
   44.8580   12.7085  -16.5136 C   0  0  0  0  0  0  0  0  0  0  0  0
   42.4743   12.3378  -16.9592 N   0  0  0  0  0  0  0  0  0  0  0  0
   41.1485   12.3883  -16.6884 C   0  0  0  0  0  0  0  0  0  0  0  0
   35.0497   17.1541   -7.6528 C   0  0  0  0  0  0  0  0  0  0  0  0
   34.0589   16.5630   -8.4254 C   0  0  0  0  0  0  0  0  0  0  0  0
   34.3060   16.0217   -9.6579 C   0  0  0  0  0  0  0  0  0  0  0  0
   35.5978   16.0630  -10.1610 C   0  0  0  0  0  0  0  0  0  0  0  0
   36.5764   16.6493   -9.3929 C   0  0  0  0  0  0  0  0  0  0  0  0
   36.3603   17.2066   -8.1408 C   0  0  0  0  0  0  0  0  0  0  0  0
   37.4673   17.8099   -7.3808 C   0  0  0  0  0  0  0  0  0  0  0  0
   38.7180   17.4321   -7.7482 F   0  0  0  0  0  0  0  0  0  0  0  0
   37.2861   17.6473   -5.9990 F   0  0  0  0  0  0  0  0  0  0  0  0
   37.4239   19.1982   -7.5555 F   0  0  0  0  0  0  0  0  0  0  0  0
   34.7761   17.7576   -6.3607 C   0  0  0  0  0  0  0  0  0  0  0  0
   32.7081   22.2298   -4.5981 C   0  0  0  0  0  0  0  0  0  0  0  0
   33.8478   21.5616   -5.1672 N   0  0  0  0  0  0  0  0  0  0  0  0
   33.6836   21.2669   -6.5705 C   0  0  0  0  0  0  0  0  0  0  0  0
   34.5256   20.0560   -6.8641 C   0  0  0  0  0  0  0  0  0  0  0  0
   33.8396   18.8645   -6.3425 N   0  0  0  0  0  0  0  0  0  0  0  0
   33.3754   19.1406   -4.9860 C   0  0  0  0  0  0  0  0  0  0  0  0
   34.1316   20.3352   -4.4644 C   0  0  0  0  0  0  0  0  0  0  0  0
 34 35  1  0  0  0
 35 36  1  0  0  0
 36 37  1  0  0  0
 37 38  1  0  0  0
 38 33  1  0  0  0
 33 23  1  0  0  0
 23 24  2  0  0  0
 24 25  1  0  0  0
 25 26  2  0  0  0
 26 27  1  0  0  0
 27 28  2  0  0  0
 28 29  1  0  0  0
 29 30  1  0  0  0
 29 31  1  0  0  0
 29 32  1  0  0  0
 26  1  1  0  0  0
  1  2  2  0  0  0
  1  3  1  0  0  0
  3  5  1  0  0  0
  5  6  2  0  0  0
  6  7  1  0  0  0
  7  8  2  0  0  0
  8  9  1  0  0  0
  8 10  1  0  0  0
 10 11  2  0  0  0
 10 12  1  0  0  0
 12 13  2  0  0  0
 12 14  1  0  0  0
 14 16  1  0  0  0
 16 17  2  0  0  0
 17 18  1  0  0  0
 18 19  2  0  0  0
 19 20  1  0  0  0
 19 21  1  0  0  0
 21 22  2  0  0  0
 38 39  1  0  0  0
 39 40  1  0  0  0
 40 35  1  0  0  0
 28 23  1  0  0  0
 11  5  1  0  0  0
 22 16  1  0  0  0
  3  4  1  0  0  0
 14 15  1  0  0  0
M  END
> <minimizedAffinity>
-8.39985

> <CNNscore>
0.1683835685

> <CNNaffinity>
6.3939585686

> <CNN_VS>
1.0766375065

> <CNNaffinity_variance>
0.5154356360

$$$$
[H]c1c([H])c(C([H])([H])N2C([H])([H])C([H])([H])N(C([H])([H])[H])C([H])([H])C2([H])[H])c(C(F)(F)F)c([H])c1C(=O)N([H])c1c([H])c([H])c(C([H])([H])[H])c(C(=O)N([H])c2c([H])c([H])c(C([H])([H])[H])c(C(=O)N([H])[H])c2[H])c1[H]


 45 48  0  0  0  0  0  0  0  0999 V2000
   37.9895   11.9072  -15.8553 C   0  0  0  0  0  0  0  0  0  0  0  0
   37.3662   11.3693  -16.9537 C   0  0  0  0  0  0  0  0  0  0  0  0
   35.9908   11.2713  -17.0282 C   0  0  0  0  0  0  0  0  0  0  0  0
   35.1595   11.7163  -15.9869 C   0  0  0  0  0  0  0  0  0  0  0  0
   33.7004   11.5311  -16.1174 C   0  0  0  0  0  0  0  0  0  0  0  0
   35.7791   12.2500  -14.9016 C   0  0  0  0  0  0  0  0  0  0  0  0
   37.1706   12.3454  -14.8338 C   0  0  0  0  0  0  0  0  0  0  0  0
   40.0224   13.1299  -15.2309 C   0  0  0  0  0  0  0  0  0  0  0  0
   39.3047   14.1373  -14.9195 O   0  0  0  0  0  0  0  0  0  0  0  0
   39.4138   11.9809  -15.7130 N   0  0  0  0  0  0  0  0  0  0  0  0
   39.9975   11.1352  -15.9847 H   0  0  0  0  0  0  0  0  0  0  0  0
   44.2867   13.4074  -14.8495 C   0  0  0  0  0  0  0  0  0  0  0  0
   43.4416   14.0525  -13.9419 C   0  0  0  0  0  0  0  0  0  0  0  0
   42.0534   13.9839  -14.0416 C   0  0  0  0  0  0  0  0  0  0  0  0
   41.4785   13.2669  -15.0535 C   0  0  0  0  0  0  0  0  0  0  0  0
   42.3098   12.6323  -15.9452 C   0  0  0  0  0  0  0  0  0  0  0  0
   43.7039   12.6870  -15.8649 C   0  0  0  0  0  0  0  0  0  0  0  0
   44.5157   11.9776  -16.8529 C   0  0  0  0  0  0  0  0  0  0  0  0
   44.7895   10.6604  -16.5512 F   0  0  0  0  0  0  0  0  0  0  0  0
   45.6694   12.6685  -17.1998 F   0  0  0  0  0  0  0  0  0  0  0  0
   43.8001   11.9073  -18.0642 F   0  0  0  0  0  0  0  0  0  0  0  0
   45.7421   13.4539  -14.7373 C   0  0  0  0  0  0  0  0  0  0  0  0
   48.2060   11.4481  -10.6909 C   0  0  0  0  0  0  0  0  0  0  0  0
   48.2485   12.4615  -11.7082 N   0  0  0  0  0  0  0  0  0  0  0  0
   48.5248   11.8319  -12.9895 C   0  0  0  0  0  0  0  0  0  0  0  0
   47.7649   12.5397  -14.0903 C   0  0  0  0  0  0  0  0  0  0  0  0
   46.3199   12.3059  -14.0094 N   0  0  0  0  0  0  0  0  0  0  0  0
   45.9598   12.4103  -12.5949 C   0  0  0  0  0  0  0  0  0  0  0  0
   47.0031   13.1936  -11.8069 C   0  0  0  0  0  0  0  0  0  0  0  0
   35.0669   12.7877  -13.7508 C   0  0  0  0  0  0  0  0  0  0  0  0
   35.0006   12.0039  -12.7244 O   0  0  0  0  0  0  0  0  0  0  0  0
   34.4593   14.0327  -13.6277 N   0  0  0  0  0  0  0  0  0  0  0  0
   34.6046   14.6695  -14.4842 H   0  0  0  0  0  0  0  0  0  0  0  0
   33.7414   14.5973  -12.5623 C   0  0  0  0  0  0  0  0  0  0  0  0
   34.3123   15.3795  -11.6072 C   0  0  0  0  0  0  0  0  0  0  0  0
   33.5235   15.8961  -10.5671 C   0  0  0  0  0  0  0  0  0  0  0  0
   32.1766   15.6309  -10.4863 C   0  0  0  0  0  0  0  0  0  0  0  0
   31.3483   16.1853   -9.3777 C   0  0  0  0  0  0  0  0  0  0  0  0
   31.5843   14.8403  -11.4468 C   0  0  0  0  0  0  0  0  0  0  0  0
   32.3878   14.3534  -12.4486 C   0  0  0  0  0  0  0  0  0  0  0  0
   30.1705   14.4976  -11.4517 C   0  0  0  0  0  0  0  0  0  0  0  0
   29.4555   14.5290  -12.7013 N   0  0  0  0  0  0  0  0  0  0  0  0
   29.5632   14.1794  -10.4088 O   0  0  0  0  0  0  0  0  0  0  0  0
   28.8435   15.3426  -12.9403 H   0  0  0  0  0  0  0  0  0  0  0  0
   29.5144   13.7643  -13.4030 H   0  0  0  0  0  0  0  0  0  0  0  0
 23 24  1  0  0  0
 24 25  1  0  0  0
 25 26  1  0  0  0
 26 27  1  0  0  0
 27 22  1  0  0  0
 22 12  1  0  0  0
 12 13  2  0  0  0
 13 14  1  0  0  0
 14 15  2  0  0  0
 15 16  1  0  0  0
 16 17  2  0  0  0
 17 18  1  0  0  0
 18 19  1  0  0  0
 18 20  1  0  0  0
 18 21  1  0  0  0
 15  8  1  0  0  0
  8  9  2  0  0  0
  8 10  1  0  0  0
 10  1  1  0  0  0
  1  2  2  0  0  0
  2  3  1  0  0  0
  3  4  2  0  0  0
  4  5  1  0  0  0
  4  6  1  0  0  0
  6  7  2  0  0  0
  6 30  1  0  0  0
 30 31  2  0  0  0
 30 32  1  0  0  0
 32 34  1  0  0  0
 34 35  2  0  0  0
 35 36  1  0  0  0
 36 37  2  0  0  0
 37 38  1  0  0  0
 37 39  1  0  0  0
 39 40  2  0  0  0
 39 41  1  0  0  0
 41 42  1  0  0  0
 41 43  2  0  0  0
 27 28  1  0  0  0
 28 29  1  0  0  0
 29 24  1  0  0  0
 17 12  1  0  0  0
  7  1  1  0  0  0
 40 34  1  0  0  0
 10 11  1  0  0  0
 32 33  1  0  0  0
 42 44  1  0  0  0
 42 45  1  0  0  0
M  END
> <minimizedAffinity>
-11.10648

> <CNNscore>
0.4237957895

> <CNNaffinity>
6.8259286880

> <CNN_VS>
2.8927998543

> <CNNaffinity_variance>
0.1075517982

$$$$
[H]c1c([H])c(C([H])([H])N2C([H])([H])C([H])([H])N(C([H])([H])[H])C([H])([H])C2([H])[H])c(C(F)(F)F)c([H])c1C(=O)N([H])c1c([H])c([H])c(C([H])([H])[H])c(C(=O)N([H])c2c([H])c([H])c(C([H])([H])[H])c(C(=O)N([H])[H])c2[H])c1[H]


 45 48  0  0  0  0  0  0  0  0999 V2000
   38.0056   11.7978  -16.0469 C   0  0  0  0  0  0  0  0  0  0  0  0
   37.3460   11.2084  -17.0966 C   0  0  0  0  0  0  0  0  0  0  0  0
   35.9710   11.0824  -17.1066 C   0  0  0  0  0  0  0  0  0  0  0  0
   35.1770   11.5499  -16.0462 C   0  0  0  0  0  0  0  0  0  0  0  0
   33.7176   11.3331  -16.1054 C   0  0  0  0  0  0  0  0  0  0  0  0
   35.8324   12.1345  -15.0093 C   0  0  0  0  0  0  0  0  0  0  0  0
   37.2233   12.2580  -15.0066 C   0  0  0  0  0  0  0  0  0  0  0  0
   40.0353   13.0173  -15.4062 C   0  0  0  0  0  0  0  0  0  0  0  0
   39.3084   13.9649  -14.9584 O   0  0  0  0  0  0  0  0  0  0  0  0
   39.4330   11.9029  -15.9705 N   0  0  0  0  0  0  0  0  0  0  0  0
   40.0239   11.1078  -16.3556 H   0  0  0  0  0  0  0  0  0  0  0  0
   44.2567   13.6168  -14.9294 C   0  0  0  0  0  0  0  0  0  0  0  0
   43.7549   12.8614  -15.9933 C   0  0  0  0  0  0  0  0  0  0  0  0
   42.3899   12.6462  -16.1726 C   0  0  0  0  0  0  0  0  0  0  0  0
   41.4946   13.1830  -15.2900 C   0  0  0  0  0  0  0  0  0  0  0  0
   41.9885   13.9261  -14.2447 C   0  0  0  0  0  0  0  0  0  0  0  0
   43.3526   14.1551  -14.0450 C   0  0  0  0  0  0  0  0  0  0  0  0
   43.7937   14.9628  -12.9085 C   0  0  0  0  0  0  0  0  0  0  0  0
   44.6449   16.0013  -13.2215 F   0  0  0  0  0  0  0  0  0  0  0  0
   44.2921   14.1965  -11.8630 F   0  0  0  0  0  0  0  0  0  0  0  0
   42.6732   15.6007  -12.3411 F   0  0  0  0  0  0  0  0  0  0  0  0
   45.6841   13.8676  -14.7487 C   0  0  0  0  0  0  0  0  0  0  0  0
   48.9204   10.9916  -11.9696 C   0  0  0  0  0  0  0  0  0  0  0  0
   48.7031   12.2874  -12.5506 N   0  0  0  0  0  0  0  0  0  0  0  0
   48.8524   12.1880  -13.9937 C   0  0  0  0  0  0  0  0  0  0  0  0
   47.8665   13.1068  -14.6821 C   0  0  0  0  0  0  0  0  0  0  0  0
   46.4828   12.6417  -14.5467 N   0  0  0  0  0  0  0  0  0  0  0  0
   46.3271   12.1959  -13.1617 C   0  0  0  0  0  0  0  0  0  0  0  0
   47.3856   12.8092  -12.2527 C   0  0  0  0  0  0  0  0  0  0  0  0
   35.1603   12.7010  -13.8482 C   0  0  0  0  0  0  0  0  0  0  0  0
   35.1975   11.9760  -12.7780 O   0  0  0  0  0  0  0  0  0  0  0  0
   34.4933   13.9180  -13.7568 N   0  0  0  0  0  0  0  0  0  0  0  0
   34.5529   14.5104  -14.6544 H   0  0  0  0  0  0  0  0  0  0  0  0
   33.8091   14.5060  -12.6819 C   0  0  0  0  0  0  0  0  0  0  0  0
   34.4131   15.2932  -11.7518 C   0  0  0  0  0  0  0  0  0  0  0  0
   33.6567   15.8338  -10.6999 C   0  0  0  0  0  0  0  0  0  0  0  0
   32.3090   15.5872  -10.5825 C   0  0  0  0  0  0  0  0  0  0  0  0
   31.5154   16.1670   -9.4617 C   0  0  0  0  0  0  0  0  0  0  0  0
   31.6833   14.7917  -11.5174 C   0  0  0  0  0  0  0  0  0  0  0  0
   32.4557   14.2812  -12.5318 C   0  0  0  0  0  0  0  0  0  0  0  0
   30.2656   14.4674  -11.4831 C   0  0  0  0  0  0  0  0  0  0  0  0
   29.5117   14.5307  -12.7084 N   0  0  0  0  0  0  0  0  0  0  0  0
   29.6875   14.1381  -10.4271 O   0  0  0  0  0  0  0  0  0  0  0  0
   28.9034   15.3564  -12.9132 H   0  0  0  0  0  0  0  0  0  0  0  0
   29.5380   13.7782  -13.4251 H   0  0  0  0  0  0  0  0  0  0  0  0
 23 24  1  0  0  0
 24 25  1  0  0  0
 25 26  1  0  0  0
 26 27  1  0  0  0
 27 22  1  0  0  0
 22 12  1  0  0  0
 12 13  2  0  0  0
 13 14  1  0  0  0
 14 15  2  0  0  0
 15 16  1  0  0  0
 16 17  2  0  0  0
 17 18  1  0  0  0
 18 19  1  0  0  0
 18 20  1  0  0  0
 18 21  1  0  0  0
 15  8  1  0  0  0
  8  9  2  0  0  0
  8 10  1  0  0  0
 10  1  1  0  0  0
  1  2  2  0  0  0
  2  3  1  0  0  0
  3  4  2  0  0  0
  4  5  1  0  0  0
  4  6  1  0  0  0
  6  7  2  0  0  0
  6 30  1  0  0  0
 30 31  2  0  0  0
 30 32  1  0  0  0
 32 34  1  0  0  0
 34 35  2  0  0  0
 35 36  1  0  0  0
 36 37  2  0  0  0
 37 38  1  0  0  0
 37 39  1  0  0  0
 39 40  2  0  0  0
 39 41  1  0  0  0
 41 42  1  0  0  0
 41 43  2  0  0  0
 27 28  1  0  0  0
 28 29  1  0  0  0
 29 24  1  0  0  0
 17 12  1  0  0  0
  7  1  1  0  0  0
 40 34  1  0  0  0
 10 11  1  0  0  0
 32 33  1  0  0  0
 42 44  1  0  0  0
 42 45  1  0  0  0
M  END
> <minimizedAffinity>
-10.88261

> <CNNscore>
0.4151368439

> <CNNaffinity>
6.9207901955

> <CNN_VS>
2.8730750084

> <CNNaffinity_variance>
0.0892298594

$$$$
[H]c1c([H])c(C([H])([H])N2C([H])([H])C([H])([H])N(C([H])([H])[H])C([H])([H])C2([H])[H])c(C(F)(F)F)c([H])c1C(=O)N([H])c1c([H])c([H])c(C([H])([H])[H])c(C(=O)N([H])c2c([H])c([H])c(C([H])([H])[H])c(C(=O)N([H])[H])c2[H])c1[H]


 45 48  0  0  0  0  0  0  0  0999 V2000
   36.2721   15.3904   -9.8896 C   0  0  0  0  0  0  0  0  0  0  0  0
   35.0333   15.9679   -9.7620 C   0  0  0  0  0  0  0  0  0  0  0  0
   34.0215   15.7146  -10.6669 C   0  0  0  0  0  0  0  0  0  0  0  0
   34.2059   14.8545  -11.7622 C   0  0  0  0  0  0  0  0  0  0  0  0
   33.0929   14.6733  -12.7154 C   0  0  0  0  0  0  0  0  0  0  0  0
   35.4326   14.2828  -11.8850 C   0  0  0  0  0  0  0  0  0  0  0  0
   36.4508   14.5442  -10.9657 C   0  0  0  0  0  0  0  0  0  0  0  0
   37.5860   14.8827   -7.8813 C   0  0  0  0  0  0  0  0  0  0  0  0
   36.7980   13.9124   -7.6274 O   0  0  0  0  0  0  0  0  0  0  0  0
   37.3659   15.6649   -9.0050 N   0  0  0  0  0  0  0  0  0  0  0  0
   38.0082   16.4821   -9.2271 H   0  0  0  0  0  0  0  0  0  0  0  0
   40.7891   15.7152   -5.1511 C   0  0  0  0  0  0  0  0  0  0  0  0
   40.5359   14.4103   -5.5836 C   0  0  0  0  0  0  0  0  0  0  0  0
   39.5012   14.1081   -6.4668 C   0  0  0  0  0  0  0  0  0  0  0  0
   38.6952   15.1066   -6.9379 C   0  0  0  0  0  0  0  0  0  0  0  0
   38.9451   16.3894   -6.5128 C   0  0  0  0  0  0  0  0  0  0  0  0
   39.9764   16.7160   -5.6282 C   0  0  0  0  0  0  0  0  0  0  0  0
   40.1769   18.1088   -5.2302 C   0  0  0  0  0  0  0  0  0  0  0  0
   41.3731   18.6668   -5.6283 F   0  0  0  0  0  0  0  0  0  0  0  0
   39.9429   18.3227   -3.8781 F   0  0  0  0  0  0  0  0  0  0  0  0
   39.2026   18.9072   -5.8608 F   0  0  0  0  0  0  0  0  0  0  0  0
   41.8867   16.0435   -4.2453 C   0  0  0  0  0  0  0  0  0  0  0  0
   47.0220   15.7976   -4.0539 C   0  0  0  0  0  0  0  0  0  0  0  0
   45.8960   16.6438   -4.3366 N   0  0  0  0  0  0  0  0  0  0  0  0
   45.2913   16.2207   -5.5896 C   0  0  0  0  0  0  0  0  0  0  0  0
   43.7876   16.3763   -5.5189 C   0  0  0  0  0  0  0  0  0  0  0  0
   43.1691   15.4072   -4.6092 N   0  0  0  0  0  0  0  0  0  0  0  0
   44.0230   15.3463   -3.4224 C   0  0  0  0  0  0  0  0  0  0  0  0
   44.8933   16.5909   -3.2933 C   0  0  0  0  0  0  0  0  0  0  0  0
   35.7813   13.3433  -12.9415 C   0  0  0  0  0  0  0  0  0  0  0  0
   35.7495   12.0949  -12.6056 O   0  0  0  0  0  0  0  0  0  0  0  0
   36.1378   13.6290  -14.2552 N   0  0  0  0  0  0  0  0  0  0  0  0
   36.0806   14.6766  -14.4989 H   0  0  0  0  0  0  0  0  0  0  0  0
   36.5063   12.7768  -15.3075 C   0  0  0  0  0  0  0  0  0  0  0  0
   35.6165   12.0174  -16.0012 C   0  0  0  0  0  0  0  0  0  0  0  0
   36.0704   11.1815  -17.0337 C   0  0  0  0  0  0  0  0  0  0  0  0
   37.4026   11.1085  -17.3666 C   0  0  0  0  0  0  0  0  0  0  0  0
   37.8736   10.2179  -18.4654 C   0  0  0  0  0  0  0  0  0  0  0  0
   38.3157   11.8723  -16.6728 C   0  0  0  0  0  0  0  0  0  0  0  0
   37.8343   12.6776  -15.6699 C   0  0  0  0  0  0  0  0  0  0  0  0
   39.7451   11.8664  -16.9433 C   0  0  0  0  0  0  0  0  0  0  0  0
   40.6208   12.5815  -16.0513 N   0  0  0  0  0  0  0  0  0  0  0  0
   40.2309   11.2628  -17.9217 O   0  0  0  0  0  0  0  0  0  0  0  0
   40.9862   13.5258  -16.3130 H   0  0  0  0  0  0  0  0  0  0  0  0
   40.9208   12.2008  -15.1317 H   0  0  0  0  0  0  0  0  0  0  0  0
 23 24  1  0  0  0
 24 25  1  0  0  0
 25 26  1  0  0  0
 26 27  1  0  0  0
 27 22  1  0  0  0
 22 12  1  0  0  0
 12 13  2  0  0  0
 13 14  1  0  0  0
 14 15  2  0  0  0
 15 16  1  0  0  0
 16 17  2  0  0  0
 17 18  1  0  0  0
 18 19  1  0  0  0
 18 20  1  0  0  0
 18 21  1  0  0  0
 15  8  1  0  0  0
  8  9  2  0  0  0
  8 10  1  0  0  0
 10  1  1  0  0  0
  1  2  2  0  0  0
  2  3  1  0  0  0
  3  4  2  0  0  0
  4  5  1  0  0  0
  4  6  1  0  0  0
  6  7  2  0  0  0
  6 30  1  0  0  0
 30 31  2  0  0  0
 30 32  1  0  0  0
 32 34  1  0  0  0
 34 35  2  0  0  0
 35 36  1  0  0  0
 36 37  2  0  0  0
 37 38  1  0  0  0
 37 39  1  0  0  0
 39 40  2  0  0  0
 39 41  1  0  0  0
 41 42  1  0  0  0
 41 43  2  0  0  0
 27 28  1  0  0  0
 28 29  1  0  0  0
 29 24  1  0  0  0
 17 12  1  0  0  0
  7  1  1  0  0  0
 40 34  1  0  0  0
 10 11  1  0  0  0
 32 33  1  0  0  0
 42 44  1  0  0  0
 42 45  1  0  0  0
M  END
> <minimizedAffinity>
-8.18668

> <CNNscore>
0.2793694437

> <CNNaffinity>
6.1092677116

> <CNN_VS>
1.7067427635

> <CNNaffinity_variance>
0.4534913898

$$$$
[H]c1c([H])c(C([H])([H])N2C([H])([H])C([H])([H])N(C([H])([H])[H])C([H])([H])C2([H])[H])c(C(F)(F)F)c([H])c1C(=O)N([H])c1c([H])c([H])c(C([H])([H])[H])c(C(=O)N([H])c2c([H])c([H])c(C([H])([H])[H])c(C(=O)N([H])[H])c2[H])c1[H]


 45 48  0  0  0  0  0  0  0  0999 V2000
   41.5075   16.2438  -10.6644 C   0  0  0  0  0  0  0  0  0  0  0  0
   42.8292   16.6136  -10.6353 C   0  0  0  0  0  0  0  0  0  0  0  0
   43.7196   16.1887  -11.6014 C   0  0  0  0  0  0  0  0  0  0  0  0
   43.3208   15.3584  -12.6621 C   0  0  0  0  0  0  0  0  0  0  0  0
   44.3412   14.9037  -13.6276 C   0  0  0  0  0  0  0  0  0  0  0  0
   42.0116   14.9954  -12.6893 C   0  0  0  0  0  0  0  0  0  0  0  0
   41.1173   15.4292  -11.7084 C   0  0  0  0  0  0  0  0  0  0  0  0
   39.2560   16.9469   -9.9908 C   0  0  0  0  0  0  0  0  0  0  0  0
   38.8976   16.9251  -11.2147 O   0  0  0  0  0  0  0  0  0  0  0  0
   40.5607   16.6180   -9.6554 N   0  0  0  0  0  0  0  0  0  0  0  0
   40.8782   16.6386   -8.6413 H   0  0  0  0  0  0  0  0  0  0  0  0
   36.3346   18.2409   -7.1276 C   0  0  0  0  0  0  0  0  0  0  0  0
   36.5288   16.8817   -7.3903 C   0  0  0  0  0  0  0  0  0  0  0  0
   37.4670   16.4309   -8.3168 C   0  0  0  0  0  0  0  0  0  0  0  0
   38.2335   17.3315   -9.0023 C   0  0  0  0  0  0  0  0  0  0  0  0
   38.0426   18.6676   -8.7431 C   0  0  0  0  0  0  0  0  0  0  0  0
   37.1082   19.1426   -7.8189 C   0  0  0  0  0  0  0  0  0  0  0  0
   36.9723   20.5820   -7.5994 C   0  0  0  0  0  0  0  0  0  0  0  0
   35.7231   21.1012   -7.8658 F   0  0  0  0  0  0  0  0  0  0  0  0
   37.9709   21.3196   -8.2218 F   0  0  0  0  0  0  0  0  0  0  0  0
   37.1691   20.8545   -6.2314 F   0  0  0  0  0  0  0  0  0  0  0  0
   35.3709   18.7202   -6.1404 C   0  0  0  0  0  0  0  0  0  0  0  0
   30.4199   17.5722   -5.3419 C   0  0  0  0  0  0  0  0  0  0  0  0
   31.5042   18.4311   -4.9541 N   0  0  0  0  0  0  0  0  0  0  0  0
   32.4627   17.6595   -4.1791 C   0  0  0  0  0  0  0  0  0  0  0  0
   33.8706   18.1221   -4.4859 C   0  0  0  0  0  0  0  0  0  0  0  0
   34.2962   17.7528   -5.8393 N   0  0  0  0  0  0  0  0  0  0  0  0
   33.1582   18.0172   -6.7204 C   0  0  0  0  0  0  0  0  0  0  0  0
   32.1834   19.0082   -6.0953 C   0  0  0  0  0  0  0  0  0  0  0  0
   41.4268   14.1674  -13.7348 C   0  0  0  0  0  0  0  0  0  0  0  0
   42.2533   13.7475  -14.6364 O   0  0  0  0  0  0  0  0  0  0  0  0
   40.0988   13.7779  -13.8733 N   0  0  0  0  0  0  0  0  0  0  0  0
   39.4692   14.0968  -13.0596 H   0  0  0  0  0  0  0  0  0  0  0  0
   39.4717   13.0070  -14.8641 C   0  0  0  0  0  0  0  0  0  0  0  0
   38.2155   12.5021  -14.7352 C   0  0  0  0  0  0  0  0  0  0  0  0
   37.6656   11.7299  -15.7707 C   0  0  0  0  0  0  0  0  0  0  0  0
   38.3686   11.4671  -16.9229 C   0  0  0  0  0  0  0  0  0  0  0  0
   37.7747   10.6464  -18.0165 C   0  0  0  0  0  0  0  0  0  0  0  0
   39.6423   11.9721  -17.0678 C   0  0  0  0  0  0  0  0  0  0  0  0
   40.1463   12.7229  -16.0342 C   0  0  0  0  0  0  0  0  0  0  0  0
   40.4701   11.7507  -18.2434 C   0  0  0  0  0  0  0  0  0  0  0  0
   41.9017   11.7353  -18.0883 N   0  0  0  0  0  0  0  0  0  0  0  0
   39.9771   11.5752  -19.3764 O   0  0  0  0  0  0  0  0  0  0  0  0
   42.4708   12.5742  -18.3455 H   0  0  0  0  0  0  0  0  0  0  0  0
   42.4197   10.9112  -17.7234 H   0  0  0  0  0  0  0  0  0  0  0  0
 23 24  1  0  0  0
 24 25  1  0  0  0
 25 26  1  0  0  0
 26 27  1  0  0  0
 27 22  1  0  0  0
 22 12  1  0  0  0
 12 13  2  0  0  0
 13 14  1  0  0  0
 14 15  2  0  0  0
 15 16  1  0  0  0
 16 17  2  0  0  0
 17 18  1  0  0  0
 18 19  1  0  0  0
 18 20  1  0  0  0
 18 21  1  0  0  0
 15  8  1  0  0  0
  8  9  2  0  0  0
  8 10  1  0  0  0
 10  1  1  0  0  0
  1  2  2  0  0  0
  2  3  1  0  0  0
  3  4  2  0  0  0
  4  5  1  0  0  0
  4  6  1  0  0  0
  6  7  2  0  0  0
  6 30  1  0  0  0
 30 31  2  0  0  0
 30 32  1  0  0  0
 32 34  1  0  0  0
 34 35  2  0  0  0
 35 36  1  0  0  0
 36 37  2  0  0  0
 37 38  1  0  0  0
 37 39  1  0  0  0
 39 40  2  0  0  0
 39 41  1  0  0  0
 41 42  1  0  0  0
 41 43  2  0  0  0
 27 28  1  0  0  0
 28 29  1  0  0  0
 29 24  1  0  0  0
 17 12  1  0  0  0
  7  1  1  0  0  0
 40 34  1  0  0  0
 10 11  1  0  0  0
 32 33  1  0  0  0
 42 44  1  0  0  0
 42 45  1  0  0  0
M  END
> <minimizedAffinity>
-9.26648

> <CNNscore>
0.2566907704

> <CNNaffinity>
6.3410053253

> <CNN_VS>
1.6276775599

> <CNNaffinity_variance>
0.2377315015

$$$$
[H]c1c([H])c(C([H])([H])N2C([H])([H])C([H])([H])N(C([H])([H])[H])C([H])([H])C2([H])[H])c(C(F)(F)F)c([H])c1C(=O)N([H])c1c([H])c([H])c(C([H])([H])[H])c(C(=O)N([H])c2c([H])c([H])c(C([H])([H])[H])c(C(=O)N([H])[H])c2[H])c1[H]


 45 48  0  0  0  0  0  0  0  0999 V2000
   40.9650   16.5281   -7.2336 C   0  0  0  0  0  0  0  0  0  0  0  0
   40.5978   17.8336   -7.4460 C   0  0  0  0  0  0  0  0  0  0  0  0
   39.2707   18.2081   -7.5189 C   0  0  0  0  0  0  0  0  0  0  0  0
   38.2295   17.2754   -7.3793 C   0  0  0  0  0  0  0  0  0  0  0  0
   36.8362   17.7433   -7.5204 C   0  0  0  0  0  0  0  0  0  0  0  0
   38.5959   15.9842   -7.1673 C   0  0  0  0  0  0  0  0  0  0  0  0
   39.9403   15.6134   -7.0950 C   0  0  0  0  0  0  0  0  0  0  0  0
   43.3368   16.9218   -6.7467 C   0  0  0  0  0  0  0  0  0  0  0  0
   43.0474   18.1019   -6.3587 O   0  0  0  0  0  0  0  0  0  0  0  0
   42.3282   16.0865   -7.2028 N   0  0  0  0  0  0  0  0  0  0  0  0
   42.5529   15.1030   -7.5372 H   0  0  0  0  0  0  0  0  0  0  0  0
   47.5103   15.9346   -6.6272 C   0  0  0  0  0  0  0  0  0  0  0  0
   46.5376   14.9773   -6.3245 C   0  0  0  0  0  0  0  0  0  0  0  0
   45.1752   15.2686   -6.3512 C   0  0  0  0  0  0  0  0  0  0  0  0
   44.7546   16.5265   -6.6821 C   0  0  0  0  0  0  0  0  0  0  0  0
   45.7113   17.4670   -6.9801 C   0  0  0  0  0  0  0  0  0  0  0  0
   47.0825   17.1978   -6.9600 C   0  0  0  0  0  0  0  0  0  0  0  0
   48.0344   18.2559   -7.2958 C   0  0  0  0  0  0  0  0  0  0  0  0
   47.8983   19.4202   -6.5699 F   0  0  0  0  0  0  0  0  0  0  0  0
   48.0967   18.5131   -8.6592 F   0  0  0  0  0  0  0  0  0  0  0  0
   49.3354   17.8126   -6.9870 F   0  0  0  0  0  0  0  0  0  0  0  0
   48.9388   15.6306   -6.6256 C   0  0  0  0  0  0  0  0  0  0  0  0
   49.7215   18.7772   -2.6313 C   0  0  0  0  0  0  0  0  0  0  0  0
   48.8033   18.4053   -3.6717 N   0  0  0  0  0  0  0  0  0  0  0  0
   49.3259   18.8657   -4.9483 C   0  0  0  0  0  0  0  0  0  0  0  0
   48.9969   17.8654   -6.0351 C   0  0  0  0  0  0  0  0  0  0  0  0
   49.7569   16.6196   -5.8946 N   0  0  0  0  0  0  0  0  0  0  0  0
   49.7473   16.2843   -4.4703 C   0  0  0  0  0  0  0  0  0  0  0  0
   48.6006   16.9731   -3.7397 C   0  0  0  0  0  0  0  0  0  0  0  0
   37.6451   14.8992   -6.9688 C   0  0  0  0  0  0  0  0  0  0  0  0
   38.1442   13.7076   -7.0264 O   0  0  0  0  0  0  0  0  0  0  0  0
   36.2791   14.9944   -6.7248 N   0  0  0  0  0  0  0  0  0  0  0  0
   35.9302   16.0079   -6.6181 H   0  0  0  0  0  0  0  0  0  0  0  0
   35.3106   13.9941   -6.5502 C   0  0  0  0  0  0  0  0  0  0  0  0
   35.5579   12.6713   -6.7473 C   0  0  0  0  0  0  0  0  0  0  0  0
   34.5284   11.7351   -6.5617 C   0  0  0  0  0  0  0  0  0  0  0  0
   33.2644   12.1220   -6.1826 C   0  0  0  0  0  0  0  0  0  0  0  0
   32.1787   11.1192   -5.9878 C   0  0  0  0  0  0  0  0  0  0  0  0
   32.9990   13.4586   -5.9790 C   0  0  0  0  0  0  0  0  0  0  0  0
   34.0310   14.3445   -6.1699 C   0  0  0  0  0  0  0  0  0  0  0  0
   31.6976   13.9721   -5.5803 C   0  0  0  0  0  0  0  0  0  0  0  0
   31.4734   14.2859   -4.1929 N   0  0  0  0  0  0  0  0  0  0  0  0
   30.7750   14.1469   -6.4025 O   0  0  0  0  0  0  0  0  0  0  0  0
   30.9482   13.6222   -3.5786 H   0  0  0  0  0  0  0  0  0  0  0  0
   31.8147   15.1632   -3.7518 H   0  0  0  0  0  0  0  0  0  0  0  0
 23 24  1  0  0  0
 24 25  1  0  0  0
 25 26  1  0  0  0
 26 27  1  0  0  0
 27 22  1  0  0  0
 22 12  1  0  0  0
 12 13  2  0  0  0
 13 14  1  0  0  0
 14 15  2  0  0  0
 15 16  1  0  0  0
 16 17  2  0  0  0
 17 18  1  0  0  0
 18 19  1  0  0  0
 18 20  1  0  0  0
 18 21  1  0  0  0
 15  8  1  0  0  0
  8  9  2  0  0  0
  8 10  1  0  0  0
 10  1  1  0  0  0
  1  2  2  0  0  0
  2  3  1  0  0  0
  3  4  2  0  0  0
  4  5  1  0  0  0
  4  6  1  0  0  0
  6  7  2  0  0  0
  6 30  1  0  0  0
 30 31  2  0  0  0
 30 32  1  0  0  0
 32 34  1  0  0  0
 34 35  2  0  0  0
 35 36  1  0  0  0
 36 37  2  0  0  0
 37 38  1  0  0  0
 37 39  1  0  0  0
 39 40  2  0  0  0
 39 41  1  0  0  0
 41 42  1  0  0  0
 41 43  2  0  0  0
 27 28  1  0  0  0
 28 29  1  0  0  0
 29 24  1  0  0  0
 17 12  1  0  0  0
  7  1  1  0  0  0
 40 34  1  0  0  0
 10 11  1  0  0  0
 32 33  1  0  0  0
 42 44  1  0  0  0
 42 45  1  0  0  0
M  END
> <minimizedAffinity>
25.13036

> <CNNscore>
0.2300636470

> <CNNaffinity>
4.8942737579

> <CNN_VS>
1.1259944439

> <CNNaffinity_variance>
0.2082226723

$$$$
[H]c1c([H])c(C([H])([H])N2C([H])([H])C([H])([H])N(C([H])([H])[H])C([H])([H])C2([H])[H])c(C(F)(F)F)c([H])c1C(=O)N([H])c1c([H])c([H])c(C([H])([H])[H])c(C(=O)N([H])c2c([H])c([H])c(C([H])([H])[H])c(C(=O)N([H])[H])c2[H])c1[H]


 45 48  0  0  0  0  0  0  0  0999 V2000
   40.2148   16.5255  -10.4486 C   0  0  0  0  0  0  0  0  0  0  0  0
   41.5846   16.4524  -10.3965 C   0  0  0  0  0  0  0  0  0  0  0  0
   42.3089   15.7748  -11.3573 C   0  0  0  0  0  0  0  0  0  0  0  0
   41.6839   15.1271  -12.4358 C   0  0  0  0  0  0  0  0  0  0  0  0
   42.5218   14.3798  -13.3948 C   0  0  0  0  0  0  0  0  0  0  0  0
   40.3280   15.2026  -12.4858 C   0  0  0  0  0  0  0  0  0  0  0  0
   39.6026   15.8896  -11.5102 C   0  0  0  0  0  0  0  0  0  0  0  0
   38.4750   16.4636   -8.7203 C   0  0  0  0  0  0  0  0  0  0  0  0
   38.3049   15.2215   -8.9551 O   0  0  0  0  0  0  0  0  0  0  0  0
   39.4202   17.1725   -9.4465 N   0  0  0  0  0  0  0  0  0  0  0  0
   39.5692   18.2098   -9.2692 H   0  0  0  0  0  0  0  0  0  0  0  0
   36.1540   18.1809   -5.5469 C   0  0  0  0  0  0  0  0  0  0  0  0
   35.6193   18.0378   -6.8306 C   0  0  0  0  0  0  0  0  0  0  0  0
   36.3494   17.4872   -7.8822 C   0  0  0  0  0  0  0  0  0  0  0  0
   37.6330   17.0667   -7.6726 C   0  0  0  0  0  0  0  0  0  0  0  0
   38.1579   17.2071   -6.4102 C   0  0  0  0  0  0  0  0  0  0  0  0
   37.4449   17.7559   -5.3409 C   0  0  0  0  0  0  0  0  0  0  0  0
   38.0774   17.8643   -4.0269 C   0  0  0  0  0  0  0  0  0  0  0  0
   39.3654   17.3779   -3.9533 F   0  0  0  0  0  0  0  0  0  0  0  0
   37.2857   17.3594   -3.0036 F   0  0  0  0  0  0  0  0  0  0  0  0
   38.2091   19.2273   -3.6962 F   0  0  0  0  0  0  0  0  0  0  0  0
   35.3871   18.7339   -4.4338 C   0  0  0  0  0  0  0  0  0  0  0  0
   33.1818   23.0994   -2.8379 C   0  0  0  0  0  0  0  0  0  0  0  0
   32.9386   21.7670   -3.3167 N   0  0  0  0  0  0  0  0  0  0  0  0
   33.2665   21.7077   -4.7322 C   0  0  0  0  0  0  0  0  0  0  0  0
   33.8740   20.3630   -5.0684 C   0  0  0  0  0  0  0  0  0  0  0  0
   35.2153   20.1995   -4.4995 N   0  0  0  0  0  0  0  0  0  0  0  0
   35.1580   20.7327   -3.1380 C   0  0  0  0  0  0  0  0  0  0  0  0
   33.7277   20.7776   -2.6130 C   0  0  0  0  0  0  0  0  0  0  0  0
   39.5273   14.6164  -13.5515 C   0  0  0  0  0  0  0  0  0  0  0  0
   39.5293   15.2680  -14.6685 O   0  0  0  0  0  0  0  0  0  0  0  0
   38.7718   13.4495  -13.5091 N   0  0  0  0  0  0  0  0  0  0  0  0
   38.8614   12.9118  -12.5801 H   0  0  0  0  0  0  0  0  0  0  0  0
   37.9643   12.8482  -14.4867 C   0  0  0  0  0  0  0  0  0  0  0  0
   38.4607   12.2560  -15.6059 C   0  0  0  0  0  0  0  0  0  0  0  0
   37.5817   11.6872  -16.5411 C   0  0  0  0  0  0  0  0  0  0  0  0
   36.2195   11.7121  -16.3553 C   0  0  0  0  0  0  0  0  0  0  0  0
   35.2952   11.1043  -17.3547 C   0  0  0  0  0  0  0  0  0  0  0  0
   35.7019   12.3083  -15.2261 C   0  0  0  0  0  0  0  0  0  0  0  0
   36.5926   12.8536  -14.3342 C   0  0  0  0  0  0  0  0  0  0  0  0
   34.2787   12.3908  -14.9363 C   0  0  0  0  0  0  0  0  0  0  0  0
   33.6632   13.6902  -14.8565 N   0  0  0  0  0  0  0  0  0  0  0  0
   33.5802   11.3724  -14.7554 O   0  0  0  0  0  0  0  0  0  0  0  0
   33.4650   14.1254  -13.9264 H   0  0  0  0  0  0  0  0  0  0  0  0
   33.3957   14.2391  -15.6978 H   0  0  0  0  0  0  0  0  0  0  0  0
 23 24  1  0  0  0
 24 25  1  0  0  0
 25 26  1  0  0  0
 26 27  1  0  0  0
 27 22  1  0  0  0
 22 12  1  0  0  0
 12 13  2  0  0  0
 13 14  1  0  0  0
 14 15  2  0  0  0
 15 16  1  0  0  0
 16 17  2  0  0  0
 17 18  1  0  0  0
 18 19  1  0  0  0
 18 20  1  0  0  0
 18 21  1  0  0  0
 15  8  1  0  0  0
  8  9  2  0  0  0
  8 10  1  0  0  0
 10  1  1  0  0  0
  1  2  2  0  0  0
  2  3  1  0  0  0
  3  4  2  0  0  0
  4  5  1  0  0  0
  4  6  1  0  0  0
  6  7  2  0  0  0
  6 30  1  0  0  0
 30 31  2  0  0  0
 30 32  1  0  0  0
 32 34  1  0  0  0
 34 35  2  0  0  0
 35 36  1  0  0  0
 36 37  2  0  0  0
 37 38  1  0  0  0
 37 39  1  0  0  0
 39 40  2  0  0  0
 39 41  1  0  0  0
 41 42  1  0  0  0
 41 43  2  0  0  0
 27 28  1  0  0  0
 28 29  1  0  0  0
 29 24  1  0  0  0
 17 12  1  0  0  0
  7  1  1  0  0  0
 40 34  1  0  0  0
 10 11  1  0  0  0
 32 33  1  0  0  0
 42 44  1  0  0  0
 42 45  1  0  0  0
M  END
> <minimizedAffinity>
-8.29355

> <CNNscore>
0.2177104503

> <CNNaffinity>
6.1641936302

> <CNN_VS>
1.3420094252

> <CNNaffinity_variance>
0.1274374574

$$$$
[H]c1c([H])c(C([H])([H])N2C([H])([H])C([H])([H])N(C([H])([H])[H])C([H])([H])C2([H])[H])c(C(F)(F)F)c([H])c1C(=O)N([H])c1c([H])c([H])c(C([H])([H])[H])c(C(=O)N([H])c2c([H])c([H])c(C([H])([H])[H])c(C(=O)N([H])[H])c2[H])c1[H]


 45 48  0  0  0  0  0  0  0  0999 V2000
   38.8521   16.3350  -10.5141 C   0  0  0  0  0  0  0  0  0  0  0  0
   40.1460   16.5645  -10.1176 C   0  0  0  0  0  0  0  0  0  0  0  0
   41.2198   16.1405  -10.8751 C   0  0  0  0  0  0  0  0  0  0  0  0
   41.0450   15.4544  -12.0884 C   0  0  0  0  0  0  0  0  0  0  0  0
   42.2416   14.9877  -12.8168 C   0  0  0  0  0  0  0  0  0  0  0  0
   39.7630   15.2301  -12.4795 C   0  0  0  0  0  0  0  0  0  0  0  0
   38.6824   15.6620  -11.7076 C   0  0  0  0  0  0  0  0  0  0  0  0
   37.4994   16.1725   -8.4742 C   0  0  0  0  0  0  0  0  0  0  0  0
   38.3302   15.3250   -8.0069 O   0  0  0  0  0  0  0  0  0  0  0  0
   37.7092   16.7105   -9.7350 N   0  0  0  0  0  0  0  0  0  0  0  0
   37.0226   17.4119  -10.1428 H   0  0  0  0  0  0  0  0  0  0  0  0
   34.1164   17.0125   -5.9729 C   0  0  0  0  0  0  0  0  0  0  0  0
   34.8325   18.0468   -6.5824 C   0  0  0  0  0  0  0  0  0  0  0  0
   35.9372   17.8059   -7.3969 C   0  0  0  0  0  0  0  0  0  0  0  0
   36.3509   16.5224   -7.6204 C   0  0  0  0  0  0  0  0  0  0  0  0
   35.6460   15.5058   -7.0215 C   0  0  0  0  0  0  0  0  0  0  0  0
   34.5357   15.7235   -6.2013 C   0  0  0  0  0  0  0  0  0  0  0  0
   33.8387   14.5838   -5.6064 C   0  0  0  0  0  0  0  0  0  0  0  0
   32.6123   14.2897   -6.1635 F   0  0  0  0  0  0  0  0  0  0  0  0
   33.7610   14.6615   -4.2220 F   0  0  0  0  0  0  0  0  0  0  0  0
   34.6003   13.4193   -5.8263 F   0  0  0  0  0  0  0  0  0  0  0  0
   32.9428   17.2554   -5.1381 C   0  0  0  0  0  0  0  0  0  0  0  0
   28.1811   18.0084   -6.9344 C   0  0  0  0  0  0  0  0  0  0  0  0
   29.3298   17.1467   -6.9757 N   0  0  0  0  0  0  0  0  0  0  0  0
   30.3930   17.8135   -7.7103 C   0  0  0  0  0  0  0  0  0  0  0  0
   31.7358   17.4796   -7.0974 C   0  0  0  0  0  0  0  0  0  0  0  0
   31.9189   18.1024   -5.7829 N   0  0  0  0  0  0  0  0  0  0  0  0
   30.6523   17.9445   -5.0674 C   0  0  0  0  0  0  0  0  0  0  0  0
   29.8147   16.8135   -5.6526 C   0  0  0  0  0  0  0  0  0  0  0  0
   39.4053   14.5637  -13.7239 C   0  0  0  0  0  0  0  0  0  0  0  0
   39.4491   15.3056  -14.7822 O   0  0  0  0  0  0  0  0  0  0  0  0
   39.0290   13.2371  -13.9048 N   0  0  0  0  0  0  0  0  0  0  0  0
   39.0766   12.6490  -13.0036 H   0  0  0  0  0  0  0  0  0  0  0  0
   38.6511   12.5451  -15.0657 C   0  0  0  0  0  0  0  0  0  0  0  0
   37.4090   12.0244  -15.2548 C   0  0  0  0  0  0  0  0  0  0  0  0
   37.1162   11.3352  -16.4424 C   0  0  0  0  0  0  0  0  0  0  0  0
   38.0594   11.1704  -17.4293 C   0  0  0  0  0  0  0  0  0  0  0  0
   37.7374   10.4373  -18.6868 C   0  0  0  0  0  0  0  0  0  0  0  0
   39.3220   11.6926  -17.2519 C   0  0  0  0  0  0  0  0  0  0  0  0
   39.5710   12.3603  -16.0779 C   0  0  0  0  0  0  0  0  0  0  0  0
   40.3911   11.5716  -18.2310 C   0  0  0  0  0  0  0  0  0  0  0  0
   41.7304   11.9288  -17.8404 N   0  0  0  0  0  0  0  0  0  0  0  0
   40.1812   11.1696  -19.3937 O   0  0  0  0  0  0  0  0  0  0  0  0
   42.1327   12.8540  -18.1156 H   0  0  0  0  0  0  0  0  0  0  0  0
   42.3408   11.2992  -17.2822 H   0  0  0  0  0  0  0  0  0  0  0  0
 23 24  1  0  0  0
 24 25  1  0  0  0
 25 26  1  0  0  0
 26 27  1  0  0  0
 27 22  1  0  0  0
 22 12  1  0  0  0
 12 13  2  0  0  0
 13 14  1  0  0  0
 14 15  2  0  0  0
 15 16  1  0  0  0
 16 17  2  0  0  0
 17 18  1  0  0  0
 18 19  1  0  0  0
 18 20  1  0  0  0
 18 21  1  0  0  0
 15  8  1  0  0  0
  8  9  2  0  0  0
  8 10  1  0  0  0
 10  1  1  0  0  0
  1  2  2  0  0  0
  2  3  1  0  0  0
  3  4  2  0  0  0
  4  5  1  0  0  0
  4  6  1  0  0  0
  6  7  2  0  0  0
  6 30  1  0  0  0
 30 31  2  0  0  0
 30 32  1  0  0  0
 32 34  1  0  0  0
 34 35  2  0  0  0
 35 36  1  0  0  0
 36 37  2  0  0  0
 37 38  1  0  0  0
 37 39  1  0  0  0
 39 40  2  0  0  0
 39 41  1  0  0  0
 41 42  1  0  0  0
 41 43  2  0  0  0
 27 28  1  0  0  0
 28 29  1  0  0  0
 29 24  1  0  0  0
 17 12  1  0  0  0
  7  1  1  0  0  0
 40 34  1  0  0  0
 10 11  1  0  0  0
 32 33  1  0  0  0
 42 44  1  0  0  0
 42 45  1  0  0  0
M  END
> <minimizedAffinity>
-9.52264

> <CNNscore>
0.1967754215

> <CNNaffinity>
6.2057518959

> <CNN_VS>
1.2211394310

> <CNNaffinity_variance>
0.1511063278

$$$$
[H]c1c([H])c(C([H])([H])N2C([H])([H])C([H])([H])N(C([H])([H])[H])C([H])([H])C2([H])[H])c(C(F)(F)F)c([H])c1C(=O)N([H])c1c([H])c([H])c(C([H])([H])[H])c(C(=O)N([H])c2c([H])c([H])c(C([H])([H])[H])c(C(=O)N([H])[H])c2[H])c1[H]


 45 48  0  0  0  0  0  0  0  0999 V2000
   35.6017   12.7179  -15.5697 C   0  0  0  0  0  0  0  0  0  0  0  0
   34.9854   11.9197  -16.5010 C   0  0  0  0  0  0  0  0  0  0  0  0
   35.7118   11.1218  -17.3627 C   0  0  0  0  0  0  0  0  0  0  0  0
   37.1157   11.0847  -17.3313 C   0  0  0  0  0  0  0  0  0  0  0  0
   37.8242   10.2458  -18.3185 C   0  0  0  0  0  0  0  0  0  0  0  0
   37.7231   11.8744  -16.4071 C   0  0  0  0  0  0  0  0  0  0  0  0
   36.9814   12.6787  -15.5393 C   0  0  0  0  0  0  0  0  0  0  0  0
   34.6195   13.2338  -13.3819 C   0  0  0  0  0  0  0  0  0  0  0  0
   34.9997   12.0928  -12.9571 O   0  0  0  0  0  0  0  0  0  0  0  0
   34.8908   13.5999  -14.6916 N   0  0  0  0  0  0  0  0  0  0  0  0
   34.5743   14.5436  -15.0641 H   0  0  0  0  0  0  0  0  0  0  0  0
   32.3703   15.6917  -10.6788 C   0  0  0  0  0  0  0  0  0  0  0  0
   33.7668   15.7470  -10.7059 C   0  0  0  0  0  0  0  0  0  0  0  0
   34.5248   14.9589  -11.5697 C   0  0  0  0  0  0  0  0  0  0  0  0
   33.9014   14.0963  -12.4275 C   0  0  0  0  0  0  0  0  0  0  0  0
   32.5283   14.0428  -12.4009 C   0  0  0  0  0  0  0  0  0  0  0  0
   31.7479   14.8234  -11.5438 C   0  0  0  0  0  0  0  0  0  0  0  0
   30.2906   14.7085  -11.5835 C   0  0  0  0  0  0  0  0  0  0  0  0
   29.6245   15.8346  -12.0185 F   0  0  0  0  0  0  0  0  0  0  0  0
   29.7544   14.2299  -10.3951 F   0  0  0  0  0  0  0  0  0  0  0  0
   29.9373   13.7201  -12.5230 F   0  0  0  0  0  0  0  0  0  0  0  0
   31.5679   16.5322   -9.7941 C   0  0  0  0  0  0  0  0  0  0  0  0
   31.1265   17.5735   -4.7753 C   0  0  0  0  0  0  0  0  0  0  0  0
   31.7446   17.9746   -6.0085 N   0  0  0  0  0  0  0  0  0  0  0  0
   32.7653   17.0012   -6.3625 C   0  0  0  0  0  0  0  0  0  0  0  0
   32.8087   16.8174   -7.8641 C   0  0  0  0  0  0  0  0  0  0  0  0
   31.6221   16.1248   -8.3754 N   0  0  0  0  0  0  0  0  0  0  0  0
   30.4721   16.6950   -7.6729 C   0  0  0  0  0  0  0  0  0  0  0  0
   30.7924   18.0686   -7.0953 C   0  0  0  0  0  0  0  0  0  0  0  0
   39.1660   11.9303  -16.2187 C   0  0  0  0  0  0  0  0  0  0  0  0
   39.8134   10.8705  -16.5791 O   0  0  0  0  0  0  0  0  0  0  0  0
   39.9203   12.9798  -15.7049 N   0  0  0  0  0  0  0  0  0  0  0  0
   39.3401   13.8607  -15.4864 H   0  0  0  0  0  0  0  0  0  0  0  0
   41.3008   13.0862  -15.4764 C   0  0  0  0  0  0  0  0  0  0  0  0
   42.2397   12.7531  -16.4022 C   0  0  0  0  0  0  0  0  0  0  0  0
   43.6023   12.8785  -16.0885 C   0  0  0  0  0  0  0  0  0  0  0  0
   44.0182   13.3334  -14.8592 C   0  0  0  0  0  0  0  0  0  0  0  0
   45.4679   13.4634  -14.5370 C   0  0  0  0  0  0  0  0  0  0  0  0
   43.0784   13.6750  -13.9113 C   0  0  0  0  0  0  0  0  0  0  0  0
   41.7557   13.5392  -14.2547 C   0  0  0  0  0  0  0  0  0  0  0  0
   43.4122   14.1629  -12.5821 C   0  0  0  0  0  0  0  0  0  0  0  0
   43.4715   13.2212  -11.4943 N   0  0  0  0  0  0  0  0  0  0  0  0
   43.6469   15.3683  -12.3593 O   0  0  0  0  0  0  0  0  0  0  0  0
   42.6747   13.1388  -10.8219 H   0  0  0  0  0  0  0  0  0  0  0  0
   44.2875   12.5977  -11.3332 H   0  0  0  0  0  0  0  0  0  0  0  0
 23 24  1  0  0  0
 24 25  1  0  0  0
 25 26  1  0  0  0
 26 27  1  0  0  0
 27 22  1  0  0  0
 22 12  1  0  0  0
 12 13  2  0  0  0
 13 14  1  0  0  0
 14 15  2  0  0  0
 15 16  1  0  0  0
 16 17  2  0  0  0
 17 18  1  0  0  0
 18 19  1  0  0  0
 18 20  1  0  0  0
 18 21  1  0  0  0
 15  8  1  0  0  0
  8  9  2  0  0  0
  8 10  1  0  0  0
 10  1  1  0  0  0
  1  2  2  0  0  0
  2  3  1  0  0  0
  3  4  2  0  0  0
  4  5  1  0  0  0
  4  6  1  0  0  0
  6  7  2  0  0  0
  6 30  1  0  0  0
 30 31  2  0  0  0
 30 32  1  0  0  0
 32 34  1  0  0  0
 34 35  2  0  0  0
 35 36  1  0  0  0
 36 37  2  0  0  0
 37 38  1  0  0  0
 37 39  1  0  0  0
 39 40  2  0  0  0
 39 41  1  0  0  0
 41 42  1  0  0  0
 41 43  2  0  0  0
 27 28  1  0  0  0
 28 29  1  0  0  0
 29 24  1  0  0  0
 17 12  1  0  0  0
  7  1  1  0  0  0
 40 34  1  0  0  0
 10 11  1  0  0  0
 32 33  1  0  0  0
 42 44  1  0  0  0
 42 45  1  0  0  0
M  END
> <minimizedAffinity>
-8.88787

> <CNNscore>
0.1957021952

> <CNNaffinity>
6.5632734299

> <CNN_VS>
1.2844470739

> <CNNaffinity_variance>
0.1899165362

$$$$
[H]c1c([H])c(C([H])([H])N2C([H])([H])C([H])([H])N(C([H])([H])[H])C([H])([H])C2([H])[H])c(C(F)(F)F)c([H])c1C(=O)N([H])c1c([H])c([H])c(C([H])([H])[H])c(C(=O)N([H])c2c([H])c([H])c(C([H])([H])[H])c(C(=O)N([H])[H])c2[H])c1[H]


 45 48  0  0  0  0  0  0  0  0999 V2000
   41.6964   16.1610  -10.7040 C   0  0  0  0  0  0  0  0  0  0  0  0
   43.0006   16.5853  -10.7614 C   0  0  0  0  0  0  0  0  0  0  0  0
   43.8496   16.1764  -11.7707 C   0  0  0  0  0  0  0  0  0  0  0  0
   43.4243   15.3075  -12.7893 C   0  0  0  0  0  0  0  0  0  0  0  0
   44.4042   14.8743  -13.8054 C   0  0  0  0  0  0  0  0  0  0  0  0
   42.1323   14.8905  -12.7310 C   0  0  0  0  0  0  0  0  0  0  0  0
   41.2800   15.3084  -11.7068 C   0  0  0  0  0  0  0  0  0  0  0  0
   39.4947   16.9099   -9.9234 C   0  0  0  0  0  0  0  0  0  0  0  0
   39.0982   16.9627  -11.1346 O   0  0  0  0  0  0  0  0  0  0  0  0
   40.7959   16.5178   -9.6475 N   0  0  0  0  0  0  0  0  0  0  0  0
   41.1450   16.4759   -8.6445 H   0  0  0  0  0  0  0  0  0  0  0  0
   36.7052   17.8441   -6.8005 C   0  0  0  0  0  0  0  0  0  0  0  0
   36.7130   18.5686   -7.9961 C   0  0  0  0  0  0  0  0  0  0  0  0
   37.6087   18.2912   -9.0268 C   0  0  0  0  0  0  0  0  0  0  0  0
   38.5184   17.2809   -8.8844 C   0  0  0  0  0  0  0  0  0  0  0  0
   38.5098   16.5686   -7.7091 C   0  0  0  0  0  0  0  0  0  0  0  0
   37.6213   16.8286   -6.6623 C   0  0  0  0  0  0  0  0  0  0  0  0
   37.6762   16.0186   -5.4461 C   0  0  0  0  0  0  0  0  0  0  0  0
   37.5188   16.7171   -4.2678 F   0  0  0  0  0  0  0  0  0  0  0  0
   38.7899   15.1902   -5.3992 F   0  0  0  0  0  0  0  0  0  0  0  0
   36.5962   15.1142   -5.4522 F   0  0  0  0  0  0  0  0  0  0  0  0
   35.7535   18.1124   -5.7257 C   0  0  0  0  0  0  0  0  0  0  0  0
   30.6469   17.9616   -5.1189 C   0  0  0  0  0  0  0  0  0  0  0  0
   31.9058   18.1221   -4.4457 N   0  0  0  0  0  0  0  0  0  0  0  0
   32.5838   16.8363   -4.4013 C   0  0  0  0  0  0  0  0  0  0  0  0
   34.0763   17.0308   -4.5579 C   0  0  0  0  0  0  0  0  0  0  0  0
   34.4441   17.4547   -5.9123 N   0  0  0  0  0  0  0  0  0  0  0  0
   33.4605   18.4602   -6.3155 C   0  0  0  0  0  0  0  0  0  0  0  0
   32.7654   19.0802   -5.1090 C   0  0  0  0  0  0  0  0  0  0  0  0
   41.5223   14.0165  -13.7233 C   0  0  0  0  0  0  0  0  0  0  0  0
   42.3491   13.3050  -14.4179 O   0  0  0  0  0  0  0  0  0  0  0  0
   40.1698   13.8579  -14.0057 N   0  0  0  0  0  0  0  0  0  0  0  0
   39.5244   14.4208  -13.3524 H   0  0  0  0  0  0  0  0  0  0  0  0
   39.5237   13.0563  -14.9593 C   0  0  0  0  0  0  0  0  0  0  0  0
   38.2698   12.5574  -14.7907 C   0  0  0  0  0  0  0  0  0  0  0  0
   37.7001   11.7529  -15.7903 C   0  0  0  0  0  0  0  0  0  0  0  0
   38.3812   11.4524  -16.9465 C   0  0  0  0  0  0  0  0  0  0  0  0
   37.7663   10.5976  -18.0018 C   0  0  0  0  0  0  0  0  0  0  0  0
   39.6523   11.9509  -17.1314 C   0  0  0  0  0  0  0  0  0  0  0  0
   40.1761   12.7339  -16.1320 C   0  0  0  0  0  0  0  0  0  0  0  0
   40.4578   11.6908  -18.3145 C   0  0  0  0  0  0  0  0  0  0  0  0
   41.8924   11.6955  -18.1893 N   0  0  0  0  0  0  0  0  0  0  0  0
   39.9431   11.4654  -19.4290 O   0  0  0  0  0  0  0  0  0  0  0  0
   42.4471   12.5289  -18.4916 H   0  0  0  0  0  0  0  0  0  0  0  0
   42.4264   10.8916  -17.8030 H   0  0  0  0  0  0  0  0  0  0  0  0
 23 24  1  0  0  0
 24 25  1  0  0  0
 25 26  1  0  0  0
 26 27  1  0  0  0
 27 22  1  0  0  0
 22 12  1  0  0  0
 12 13  2  0  0  0
 13 14  1  0  0  0
 14 15  2  0  0  0
 15 16  1  0  0  0
 16 17  2  0  0  0
 17 18  1  0  0  0
 18 19  1  0  0  0
 18 20  1  0  0  0
 18 21  1  0  0  0
 15  8  1  0  0  0
  8  9  2  0  0  0
  8 10  1  0  0  0
 10  1  1  0  0  0
  1  2  2  0  0  0
  2  3  1  0  0  0
  3  4  2  0  0  0
  4  5  1  0  0  0
  4  6  1  0  0  0
  6  7  2  0  0  0
  6 30  1  0  0  0
 30 31  2  0  0  0
 30 32  1  0  0  0
 32 34  1  0  0  0
 34 35  2  0  0  0
 35 36  1  0  0  0
 36 37  2  0  0  0
 37 38  1  0  0  0
 37 39  1  0  0  0
 39 40  2  0  0  0
 39 41  1  0  0  0
 41 42  1  0  0  0
 41 43  2  0  0  0
 27 28  1  0  0  0
 28 29  1  0  0  0
 29 24  1  0  0  0
 17 12  1  0  0  0
  7  1  1  0  0  0
 40 34  1  0  0  0
 10 11  1  0  0  0
 32 33  1  0  0  0
 42 44  1  0  0  0
 42 45  1  0  0  0
M  END
> <minimizedAffinity>
-8.90048

> <CNNscore>
0.1657563597

> <CNNaffinity>
6.1702575684

> <CNN_VS>
1.0227594376

> <CNNaffinity_variance>
0.2033974379

$$$$
[H]OC([H])([H])[C@@]([H])(O[H])C([H])([H])N([H])C(=O)c1c(C([H])([H])[H])c(/C([H])=C2\C(=O)N([H])c3c([H])c([H])c(F)c([H])c32)n([H])c1C([H])([H])[H]


 32 34  0  0  0  0  0  0  0  0999 V2000
   44.6871   12.1042  -17.4021 C   0  0  0  0  0  0  0  0  0  0  0  0
   43.5813   12.5233  -16.4828 C   0  0  0  0  0  0  0  0  0  0  0  0
   42.2707   12.2177  -16.6512 N   0  0  0  0  0  0  0  0  0  0  0  0
   41.5153   12.7539  -15.7005 C   0  0  0  0  0  0  0  0  0  0  0  0
   42.3514   13.4466  -14.8621 C   0  0  0  0  0  0  0  0  0  0  0  0
   42.0029   14.2263  -13.6408 C   0  0  0  0  0  0  0  0  0  0  0  0
   43.6497   13.2943  -15.3622 C   0  0  0  0  0  0  0  0  0  0  0  0
   41.9536   11.6293  -17.4731 H   0  0  0  0  0  0  0  0  0  0  0  0
   40.0780   12.6383  -15.5255 C   0  0  0  0  0  0  0  0  0  0  0  0
   39.2420   12.0175  -16.3380 C   0  0  0  0  0  0  0  0  0  0  0  0
   39.5908   11.3246  -17.5562 C   0  0  0  0  0  0  0  0  0  0  0  0
   40.7173   11.1583  -18.0547 O   0  0  0  0  0  0  0  0  0  0  0  0
   38.3421   10.8392  -18.1070 N   0  0  0  0  0  0  0  0  0  0  0  0
   37.2739   11.2277  -17.2451 C   0  0  0  0  0  0  0  0  0  0  0  0
   35.9010   11.0257  -17.2987 C   0  0  0  0  0  0  0  0  0  0  0  0
   35.0306   11.4908  -16.3488 C   0  0  0  0  0  0  0  0  0  0  0  0
   35.5389   12.1989  -15.2789 C   0  0  0  0  0  0  0  0  0  0  0  0
   34.7688   12.6922  -14.3028 F   0  0  0  0  0  0  0  0  0  0  0  0
   36.9144   12.4048  -15.2193 C   0  0  0  0  0  0  0  0  0  0  0  0
   37.7709   11.9327  -16.1775 C   0  0  0  0  0  0  0  0  0  0  0  0
   38.2823   10.3009  -18.9885 H   0  0  0  0  0  0  0  0  0  0  0  0
   44.8317   13.8784  -14.6660 C   0  0  0  0  0  0  0  0  0  0  0  0
   45.3910   13.1529  -13.7814 O   0  0  0  0  0  0  0  0  0  0  0  0
   45.3420   15.1421  -14.9313 N   0  0  0  0  0  0  0  0  0  0  0  0
   44.8248   15.6515  -15.7678 H   0  0  0  0  0  0  0  0  0  0  0  0
   46.3837   15.9366  -14.4224 C   0  0  0  0  0  0  0  0  0  0  0  0
   46.3244   16.5539  -13.0961 C   0  0  0  0  0  0  0  0  0  0  0  0
   46.3819   15.4892  -12.1232 O   0  0  0  0  0  0  0  0  0  0  0  0
   47.1802   14.9455  -12.2859 H   0  0  0  0  0  0  0  0  0  0  0  0
   45.1362   17.3892  -12.7724 C   0  0  0  0  0  0  0  0  0  0  0  0
   44.6273   18.0533  -13.8992 O   0  0  0  0  0  0  0  0  0  0  0  0
   43.9052   17.5456  -14.3439 H   0  0  0  0  0  0  0  0  0  0  0  0
  1  2  1  0  0  0
  2  3  1  0  0  0
  3  4  1  0  0  0
  4  9  1  0  0  0
  9 10  2  0  0  0
 10 11  1  0  0  0
 11 12  2  0  0  0
 11 13  1  0  0  0
 13 14  1  0  0  0
 14 15  2  0  0  0
 15 16  1  0  0  0
 16 17  2  0  0  0
 17 18  1  0  0  0
 17 19  1  0  0  0
 19 20  2  0  0  0
  4  5  2  0  0  0
  5  6  1  0  0  0
  5  7  1  0  0  0
  7 22  1  0  0  0
 22 23  2  0  0  0
 22 24  1  0  0  0
 24 26  1  0  0  0
 26 27  1  0  0  0
 27 28  1  0  0  0
 27 30  1  0  0  0
 30 31  1  0  0  0
  7  2  2  0  0  0
 20 10  1  0  0  0
 20 14  1  0  0  0
  3  8  1  0  0  0
 13 21  1  0  0  0
 24 25  1  0  0  0
 28 29  1  0  0  0
 31 32  1  0  0  0
M  END
> <minimizedAffinity>
-8.85594

> <CNNscore>
0.8432205915

> <CNNaffinity>
6.6880455017

> <CNN_VS>
5.6394977570

> <CNNaffinity_variance>
0.3234215677

$$$$
[H]OC([H])([H])[C@@]([H])(O[H])C([H])([H])N([H])C(=O)c1c(C([H])([H])[H])c(/C([H])=C2\C(=O)N([H])c3c([H])c([H])c(F)c([H])c32)n([H])c1C([H])([H])[H]


 32 34  0  0  0  0  0  0  0  0999 V2000
   36.3939   11.1712  -17.6108 C   0  0  0  0  0  0  0  0  0  0  0  0
   37.1430   11.8281  -16.4924 C   0  0  0  0  0  0  0  0  0  0  0  0
   38.4832   12.0346  -16.4686 N   0  0  0  0  0  0  0  0  0  0  0  0
   38.8722   12.6051  -15.3349 C   0  0  0  0  0  0  0  0  0  0  0  0
   37.7495   12.7878  -14.5681 C   0  0  0  0  0  0  0  0  0  0  0  0
   37.6423   13.3881  -13.2083 C   0  0  0  0  0  0  0  0  0  0  0  0
   36.6662   12.2967  -15.3059 C   0  0  0  0  0  0  0  0  0  0  0  0
   39.0909   11.7386  -17.2844 H   0  0  0  0  0  0  0  0  0  0  0  0
   40.2142   13.0007  -14.9446 C   0  0  0  0  0  0  0  0  0  0  0  0
   41.3176   12.8069  -15.6441 C   0  0  0  0  0  0  0  0  0  0  0  0
   41.4085   12.1712  -16.9376 C   0  0  0  0  0  0  0  0  0  0  0  0
   40.4901   11.7154  -17.6404 O   0  0  0  0  0  0  0  0  0  0  0  0
   42.8164   12.1658  -17.2781 N   0  0  0  0  0  0  0  0  0  0  0  0
   43.5506   12.7813  -16.2211 C   0  0  0  0  0  0  0  0  0  0  0  0
   44.9041   13.0327  -16.0380 C   0  0  0  0  0  0  0  0  0  0  0  0
   45.4151   13.6497  -14.9270 C   0  0  0  0  0  0  0  0  0  0  0  0
   44.5435   14.0447  -13.9326 C   0  0  0  0  0  0  0  0  0  0  0  0
   44.9478   14.6537  -12.8124 F   0  0  0  0  0  0  0  0  0  0  0  0
   43.1854   13.7956  -14.1101 C   0  0  0  0  0  0  0  0  0  0  0  0
   42.6909   13.1776  -15.2273 C   0  0  0  0  0  0  0  0  0  0  0  0
   43.1855   11.7676  -18.1588 H   0  0  0  0  0  0  0  0  0  0  0  0
   35.2678   12.3797  -14.7955 C   0  0  0  0  0  0  0  0  0  0  0  0
   34.4303   11.5542  -15.2841 O   0  0  0  0  0  0  0  0  0  0  0  0
   34.8455   13.2884  -13.8343 N   0  0  0  0  0  0  0  0  0  0  0  0
   35.6713   13.9043  -13.4278 H   0  0  0  0  0  0  0  0  0  0  0  0
   33.6250   13.6068  -13.2143 C   0  0  0  0  0  0  0  0  0  0  0  0
   33.5103   14.6545  -12.1981 C   0  0  0  0  0  0  0  0  0  0  0  0
   32.8312   15.7727  -12.8080 O   0  0  0  0  0  0  0  0  0  0  0  0
   31.9776   15.4686  -13.1800 H   0  0  0  0  0  0  0  0  0  0  0  0
   34.7665   15.1732  -11.5919 C   0  0  0  0  0  0  0  0  0  0  0  0
   35.4592   16.0363  -12.4548 O   0  0  0  0  0  0  0  0  0  0  0  0
   35.2269   16.9857  -12.3075 H   0  0  0  0  0  0  0  0  0  0  0  0
  1  2  1  0  0  0
  2  3  1  0  0  0
  3  4  1  0  0  0
  4  9  1  0  0  0
  9 10  2  0  0  0
 10 11  1  0  0  0
 11 12  2  0  0  0
 11 13  1  0  0  0
 13 14  1  0  0  0
 14 15  2  0  0  0
 15 16  1  0  0  0
 16 17  2  0  0  0
 17 18  1  0  0  0
 17 19  1  0  0  0
 19 20  2  0  0  0
  4  5  2  0  0  0
  5  6  1  0  0  0
  5  7  1  0  0  0
  7 22  1  0  0  0
 22 23  2  0  0  0
 22 24  1  0  0  0
 24 26  1  0  0  0
 26 27  1  0  0  0
 27 28  1  0  0  0
 27 30  1  0  0  0
 30 31  1  0  0  0
  7  2  2  0  0  0
 20 10  1  0  0  0
 20 14  1  0  0  0
  3  8  1  0  0  0
 13 21  1  0  0  0
 24 25  1  0  0  0
 28 29  1  0  0  0
 31 32  1  0  0  0
M  END
> <minimizedAffinity>
-8.69045

> <CNNscore>
0.8105883002

> <CNNaffinity>
6.9131746292

> <CNN_VS>
5.6037383080

> <CNNaffinity_variance>
0.1651296914

$$$$
[H]OC([H])([H])[C@@]([H])(O[H])C([H])([H])N([H])C(=O)c1c(C([H])([H])[H])c(/C([H])=C2\C(=O)N([H])c3c([H])c([H])c(F)c([H])c32)n([H])c1C([H])([H])[H]


 32 34  0  0  0  0  0  0  0  0999 V2000
   34.7041   11.3077  -15.7423 C   0  0  0  0  0  0  0  0  0  0  0  0
   35.6622   12.2250  -15.0465 C   0  0  0  0  0  0  0  0  0  0  0  0
   37.0137   12.1228  -15.0966 N   0  0  0  0  0  0  0  0  0  0  0  0
   37.6042   13.0510  -14.3537 C   0  0  0  0  0  0  0  0  0  0  0  0
   36.6103   13.8047  -13.7826 C   0  0  0  0  0  0  0  0  0  0  0  0
   36.7419   14.9701  -12.8632 C   0  0  0  0  0  0  0  0  0  0  0  0
   35.3919   13.2776  -14.2259 C   0  0  0  0  0  0  0  0  0  0  0  0
   37.4779   11.3609  -15.6678 H   0  0  0  0  0  0  0  0  0  0  0  0
   39.0265   13.2798  -14.1681 C   0  0  0  0  0  0  0  0  0  0  0  0
   39.9689   13.1014  -15.0761 C   0  0  0  0  0  0  0  0  0  0  0  0
   39.7725   12.6516  -16.4342 C   0  0  0  0  0  0  0  0  0  0  0  0
   38.7060   12.3745  -17.0095 O   0  0  0  0  0  0  0  0  0  0  0  0
   41.0939   12.5839  -17.0239 N   0  0  0  0  0  0  0  0  0  0  0  0
   42.0566   12.9824  -16.0495 C   0  0  0  0  0  0  0  0  0  0  0  0
   43.4401   13.0976  -16.0863 C   0  0  0  0  0  0  0  0  0  0  0  0
   44.1933   13.5075  -15.0182 C   0  0  0  0  0  0  0  0  0  0  0  0
   43.5490   13.8242  -13.8397 C   0  0  0  0  0  0  0  0  0  0  0  0
   44.1984   14.2334  -12.7442 F   0  0  0  0  0  0  0  0  0  0  0  0
   42.1622   13.7107  -13.7963 C   0  0  0  0  0  0  0  0  0  0  0  0
   41.4239   13.2995  -14.8735 C   0  0  0  0  0  0  0  0  0  0  0  0
   41.2648   12.2876  -18.0003 H   0  0  0  0  0  0  0  0  0  0  0  0
   34.0871   13.8874  -13.8400 C   0  0  0  0  0  0  0  0  0  0  0  0
   33.1960   13.9539  -14.7472 O   0  0  0  0  0  0  0  0  0  0  0  0
   33.8023   14.3710  -12.5700 N   0  0  0  0  0  0  0  0  0  0  0  0
   34.6207   14.1938  -11.8452 H   0  0  0  0  0  0  0  0  0  0  0  0
   32.7109   15.0077  -11.9544 C   0  0  0  0  0  0  0  0  0  0  0  0
   31.4875   14.2910  -11.5893 C   0  0  0  0  0  0  0  0  0  0  0  0
   30.6132   14.3200  -12.7375 O   0  0  0  0  0  0  0  0  0  0  0  0
   31.0860   13.9534  -13.5130 H   0  0  0  0  0  0  0  0  0  0  0  0
   30.7100   14.7948  -10.4247 C   0  0  0  0  0  0  0  0  0  0  0  0
   30.6460   13.8594   -9.3805 O   0  0  0  0  0  0  0  0  0  0  0  0
   31.3610   13.9900   -8.7107 H   0  0  0  0  0  0  0  0  0  0  0  0
  1  2  1  0  0  0
  2  3  1  0  0  0
  3  4  1  0  0  0
  4  9  1  0  0  0
  9 10  2  0  0  0
 10 11  1  0  0  0
 11 12  2  0  0  0
 11 13  1  0  0  0
 13 14  1  0  0  0
 14 15  2  0  0  0
 15 16  1  0  0  0
 16 17  2  0  0  0
 17 18  1  0  0  0
 17 19  1  0  0  0
 19 20  2  0  0  0
  4  5  2  0  0  0
  5  6  1  0  0  0
  5  7  1  0  0  0
  7 22  1  0  0  0
 22 23  2  0  0  0
 22 24  1  0  0  0
 24 26  1  0  0  0
 26 27  1  0  0  0
 27 28  1  0  0  0
 27 30  1  0  0  0
 30 31  1  0  0  0
  7  2  2  0  0  0
 20 10  1  0  0  0
 20 14  1  0  0  0
  3  8  1  0  0  0
 13 21  1  0  0  0
 24 25  1  0  0  0
 28 29  1  0  0  0
 31 32  1  0  0  0
M  END
> <minimizedAffinity>
-8.63147

> <CNNscore>
0.5220759511

> <CNNaffinity>
6.5145111084

> <CNN_VS>
3.4010696411

> <CNNaffinity_variance>
0.3023187220

$$$$
[H]OC([H])([H])[C@@]([H])(O[H])C([H])([H])N([H])C(=O)c1c(C([H])([H])[H])c(/C([H])=C2\C(=O)N([H])c3c([H])c([H])c(F)c([H])c32)n([H])c1C([H])([H])[H]


 32 34  0  0  0  0  0  0  0  0999 V2000
   32.7217   15.4664  -11.8641 C   0  0  0  0  0  0  0  0  0  0  0  0
   34.1666   15.1080  -12.0293 C   0  0  0  0  0  0  0  0  0  0  0  0
   34.7291   14.6498  -13.1752 N   0  0  0  0  0  0  0  0  0  0  0  0
   36.0192   14.3809  -13.0156 C   0  0  0  0  0  0  0  0  0  0  0  0
   36.3342   14.6692  -11.7119 C   0  0  0  0  0  0  0  0  0  0  0  0
   37.6509   14.5414  -11.0256 C   0  0  0  0  0  0  0  0  0  0  0  0
   35.1618   15.1273  -11.0999 C   0  0  0  0  0  0  0  0  0  0  0  0
   34.1482   14.5303  -14.0530 H   0  0  0  0  0  0  0  0  0  0  0  0
   36.9631   13.8952  -14.0070 C   0  0  0  0  0  0  0  0  0  0  0  0
   36.7413   12.9389  -14.8905 C   0  0  0  0  0  0  0  0  0  0  0  0
   35.5158   12.1922  -15.0517 C   0  0  0  0  0  0  0  0  0  0  0  0
   34.4489   12.3144  -14.4257 O   0  0  0  0  0  0  0  0  0  0  0  0
   35.7673   11.2437  -16.1173 N   0  0  0  0  0  0  0  0  0  0  0  0
   37.1042   11.4157  -16.5841 C   0  0  0  0  0  0  0  0  0  0  0  0
   37.8446   10.7802  -17.5724 C   0  0  0  0  0  0  0  0  0  0  0  0
   39.1419   11.1031  -17.8706 C   0  0  0  0  0  0  0  0  0  0  0  0
   39.7515   12.1128  -17.1542 C   0  0  0  0  0  0  0  0  0  0  0  0
   41.0135   12.4986  -17.3729 F   0  0  0  0  0  0  0  0  0  0  0  0
   39.0147   12.7538  -16.1621 C   0  0  0  0  0  0  0  0  0  0  0  0
   37.7182   12.4188  -15.8766 C   0  0  0  0  0  0  0  0  0  0  0  0
   35.0600   10.5674  -16.4533 H   0  0  0  0  0  0  0  0  0  0  0  0
   35.1450   15.5834   -9.6805 C   0  0  0  0  0  0  0  0  0  0  0  0
   35.3754   16.8186   -9.4736 O   0  0  0  0  0  0  0  0  0  0  0  0
   34.8930   14.7483   -8.6003 N   0  0  0  0  0  0  0  0  0  0  0  0
   34.6331   13.7150   -8.9027 H   0  0  0  0  0  0  0  0  0  0  0  0
   34.8515   14.8913   -7.2027 C   0  0  0  0  0  0  0  0  0  0  0  0
   35.8315   14.2571   -6.3189 C   0  0  0  0  0  0  0  0  0  0  0  0
   36.5561   13.2878   -7.1056 O   0  0  0  0  0  0  0  0  0  0  0  0
   36.9396   13.7303   -7.8907 H   0  0  0  0  0  0  0  0  0  0  0  0
   35.3228   13.5575   -5.1081 C   0  0  0  0  0  0  0  0  0  0  0  0
   33.9214   13.4890   -5.0801 O   0  0  0  0  0  0  0  0  0  0  0  0
   33.5754   12.6498   -5.4709 H   0  0  0  0  0  0  0  0  0  0  0  0
  1  2  1  0  0  0
  2  3  1  0  0  0
  3  4  1  0  0  0
  4  9  1  0  0  0
  9 10  2  0  0  0
 10 11  1  0  0  0
 11 12  2  0  0  0
 11 13  1  0  0  0
 13 14  1  0  0  0
 14 15  2  0  0  0
 15 16  1  0  0  0
 16 17  2  0  0  0
 17 18  1  0  0  0
 17 19  1  0  0  0
 19 20  2  0  0  0
  4  5  2  0  0  0
  5  6  1  0  0  0
  5  7  1  0  0  0
  7 22  1  0  0  0
 22 23  2  0  0  0
 22 24  1  0  0  0
 24 26  1  0  0  0
 26 27  1  0  0  0
 27 28  1  0  0  0
 27 30  1  0  0  0
 30 31  1  0  0  0
  7  2  2  0  0  0
 20 10  1  0  0  0
 20 14  1  0  0  0
  3  8  1  0  0  0
 13 21  1  0  0  0
 24 25  1  0  0  0
 28 29  1  0  0  0
 31 32  1  0  0  0
M  END
> <minimizedAffinity>
-8.78442

> <CNNscore>
0.2711929977

> <CNNaffinity>
5.9476361275

> <CNN_VS>
1.6129572392

> <CNNaffinity_variance>
0.2497706711

$$$$
[H]OC([H])([H])[C@@]([H])(O[H])C([H])([H])N([H])C(=O)c1c(C([H])([H])[H])c(/C([H])=C2\C(=O)N([H])c3c([H])c([H])c(F)c([H])c32)n([H])c1C([H])([H])[H]


 32 34  0  0  0  0  0  0  0  0999 V2000
   37.5757   11.7588  -16.2043 C   0  0  0  0  0  0  0  0  0  0  0  0
   38.5133   12.6054  -15.3996 C   0  0  0  0  0  0  0  0  0  0  0  0
   39.8659   12.5093  -15.4252 N   0  0  0  0  0  0  0  0  0  0  0  0
   40.4349   13.3620  -14.5819 C   0  0  0  0  0  0  0  0  0  0  0  0
   39.4248   14.0567  -13.9661 C   0  0  0  0  0  0  0  0  0  0  0  0
   39.5299   15.1284  -12.9359 C   0  0  0  0  0  0  0  0  0  0  0  0
   38.2194   13.5740  -14.4886 C   0  0  0  0  0  0  0  0  0  0  0  0
   40.3466   11.8062  -16.0552 H   0  0  0  0  0  0  0  0  0  0  0  0
   41.8514   13.5727  -14.3394 C   0  0  0  0  0  0  0  0  0  0  0  0
   42.8393   13.2267  -15.1448 C   0  0  0  0  0  0  0  0  0  0  0  0
   42.7077   12.5779  -16.4283 C   0  0  0  0  0  0  0  0  0  0  0  0
   41.6678   12.2481  -17.0241 O   0  0  0  0  0  0  0  0  0  0  0  0
   44.0587   12.3788  -16.9116 N   0  0  0  0  0  0  0  0  0  0  0  0
   44.9757   12.8936  -15.9479 C   0  0  0  0  0  0  0  0  0  0  0  0
   46.3624   12.9589  -15.9098 C   0  0  0  0  0  0  0  0  0  0  0  0
   47.0654   13.5060  -14.8693 C   0  0  0  0  0  0  0  0  0  0  0  0
   46.3640   14.0213  -13.7984 C   0  0  0  0  0  0  0  0  0  0  0  0
   46.9617   14.5751  -12.7376 F   0  0  0  0  0  0  0  0  0  0  0  0
   44.9736   13.9589  -13.8304 C   0  0  0  0  0  0  0  0  0  0  0  0
   44.2861   13.4086  -14.8787 C   0  0  0  0  0  0  0  0  0  0  0  0
   44.2764   11.9295  -17.8178 H   0  0  0  0  0  0  0  0  0  0  0  0
   36.9036   14.1431  -14.0788 C   0  0  0  0  0  0  0  0  0  0  0  0
   36.6183   15.3021  -14.5226 O   0  0  0  0  0  0  0  0  0  0  0  0
   35.9951   13.4856  -13.2602 N   0  0  0  0  0  0  0  0  0  0  0  0
   36.3142   12.4584  -12.9961 H   0  0  0  0  0  0  0  0  0  0  0  0
   34.7410   13.7847  -12.7008 C   0  0  0  0  0  0  0  0  0  0  0  0
   33.5580   14.0497  -13.5217 C   0  0  0  0  0  0  0  0  0  0  0  0
   32.3993   13.8401  -12.6868 O   0  0  0  0  0  0  0  0  0  0  0  0
   32.4738   14.3974  -11.8848 H   0  0  0  0  0  0  0  0  0  0  0  0
   33.3724   13.2359  -14.7537 C   0  0  0  0  0  0  0  0  0  0  0  0
   33.5403   11.8629  -14.5171 O   0  0  0  0  0  0  0  0  0  0  0  0
   32.6864   11.4051  -14.3214 H   0  0  0  0  0  0  0  0  0  0  0  0
  1  2  1  0  0  0
  2  3  1  0  0  0
  3  4  1  0  0  0
  4  9  1  0  0  0
  9 10  2  0  0  0
 10 11  1  0  0  0
 11 12  2  0  0  0
 11 13  1  0  0  0
 13 14  1  0  0  0
 14 15  2  0  0  0
 15 16  1  0  0  0
 16 17  2  0  0  0
 17 18  1  0  0  0
 17 19  1  0  0  0
 19 20  2  0  0  0
  4  5  2  0  0  0
  5  6  1  0  0  0
  5  7  1  0  0  0
  7 22  1  0  0  0
 22 23  2  0  0  0
 22 24  1  0  0  0
 24 26  1  0  0  0
 26 27  1  0  0  0
 27 28  1  0  0  0
 27 30  1  0  0  0
 30 31  1  0  0  0
  7  2  2  0  0  0
 20 10  1  0  0  0
 20 14  1  0  0  0
  3  8  1  0  0  0
 13 21  1  0  0  0
 24 25  1  0  0  0
 28 29  1  0  0  0
 31 32  1  0  0  0
M  END
> <minimizedAffinity>
-7.56552

> <CNNscore>
0.2589720786

> <CNNaffinity>
5.8502807617

> <CNN_VS>
1.5150593519

> <CNNaffinity_variance>
0.0779742897

$$$$
[H]OC([H])([H])[C@@]([H])(O[H])C([H])([H])N([H])C(=O)c1c(C([H])([H])[H])c(/C([H])=C2\C(=O)N([H])c3c([H])c([H])c(F)c([H])c32)n([H])c1C([H])([H])[H]


 32 34  0  0  0  0  0  0  0  0999 V2000
   32.5375   15.6183  -11.6496 C   0  0  0  0  0  0  0  0  0  0  0  0
   33.9530   15.1966  -11.8987 C   0  0  0  0  0  0  0  0  0  0  0  0
   34.4030   14.6147  -13.0382 N   0  0  0  0  0  0  0  0  0  0  0  0
   35.6945   14.3176  -12.9610 C   0  0  0  0  0  0  0  0  0  0  0  0
   36.1275   14.7151  -11.7214 C   0  0  0  0  0  0  0  0  0  0  0  0
   37.4943   14.6066  -11.1374 C   0  0  0  0  0  0  0  0  0  0  0  0
   35.0244   15.2682  -11.0611 C   0  0  0  0  0  0  0  0  0  0  0  0
   33.7461   14.4340  -13.8494 H   0  0  0  0  0  0  0  0  0  0  0  0
   36.5368   13.7096  -13.9761 C   0  0  0  0  0  0  0  0  0  0  0  0
   36.1548   12.8203  -14.8747 C   0  0  0  0  0  0  0  0  0  0  0  0
   34.8239   12.2820  -15.0318 C   0  0  0  0  0  0  0  0  0  0  0  0
   33.7977   12.5589  -14.3872 O   0  0  0  0  0  0  0  0  0  0  0  0
   34.9080   11.3291  -16.1195 N   0  0  0  0  0  0  0  0  0  0  0  0
   36.2496   11.2961  -16.6033 C   0  0  0  0  0  0  0  0  0  0  0  0
   36.8672   10.5726  -17.6151 C   0  0  0  0  0  0  0  0  0  0  0  0
   38.1957   10.6912  -17.9268 C   0  0  0  0  0  0  0  0  0  0  0  0
   38.9672   11.5750  -17.2001 C   0  0  0  0  0  0  0  0  0  0  0  0
   40.2718   11.7596  -17.4305 F   0  0  0  0  0  0  0  0  0  0  0  0
   38.3540   12.3033  -16.1844 C   0  0  0  0  0  0  0  0  0  0  0  0
   37.0242   12.1729  -15.8857 C   0  0  0  0  0  0  0  0  0  0  0  0
   34.0980   10.7816  -16.4579 H   0  0  0  0  0  0  0  0  0  0  0  0
   35.1413   15.8548   -9.6953 C   0  0  0  0  0  0  0  0  0  0  0  0
   34.6418   15.1797   -8.7380 O   0  0  0  0  0  0  0  0  0  0  0  0
   35.7562   17.0694   -9.4228 N   0  0  0  0  0  0  0  0  0  0  0  0
   36.2187   17.5313  -10.3168 H   0  0  0  0  0  0  0  0  0  0  0  0
   35.9722   17.8564   -8.2785 C   0  0  0  0  0  0  0  0  0  0  0  0
   37.0127   18.8846   -8.2176 C   0  0  0  0  0  0  0  0  0  0  0  0
   36.3535   20.1675   -8.2748 O   0  0  0  0  0  0  0  0  0  0  0  0
   35.6849   20.2195   -7.5610 H   0  0  0  0  0  0  0  0  0  0  0  0
   38.0603   18.8746   -9.2744 C   0  0  0  0  0  0  0  0  0  0  0  0
   37.5199   19.0014  -10.5633 O   0  0  0  0  0  0  0  0  0  0  0  0
   37.4938   19.9398  -10.8724 H   0  0  0  0  0  0  0  0  0  0  0  0
  1  2  1  0  0  0
  2  3  1  0  0  0
  3  4  1  0  0  0
  4  9  1  0  0  0
  9 10  2  0  0  0
 10 11  1  0  0  0
 11 12  2  0  0  0
 11 13  1  0  0  0
 13 14  1  0  0  0
 14 15  2  0  0  0
 15 16  1  0  0  0
 16 17  2  0  0  0
 17 18  1  0  0  0
 17 19  1  0  0  0
 19 20  2  0  0  0
  4  5  2  0  0  0
  5  6  1  0  0  0
  5  7  1  0  0  0
  7 22  1  0  0  0
 22 23  2  0  0  0
 22 24  1  0  0  0
 24 26  1  0  0  0
 26 27  1  0  0  0
 27 28  1  0  0  0
 27 30  1  0  0  0
 30 31  1  0  0  0
  7  2  2  0  0  0
 20 10  1  0  0  0
 20 14  1  0  0  0
  3  8  1  0  0  0
 13 21  1  0  0  0
 24 25  1  0  0  0
 28 29  1  0  0  0
 31 32  1  0  0  0
M  END
> <minimizedAffinity>
-9.05863

> <CNNscore>
0.2375651151

> <CNNaffinity>
5.8225498199

> <CNN_VS>
1.3832347393

> <CNNaffinity_variance>
0.2054832280

$$$$
[H]OC([H])([H])[C@@]([H])(O[H])C([H])([H])N([H])C(=O)c1c(C([H])([H])[H])c(/C([H])=C2\C(=O)N([H])c3c([H])c([H])c(F)c([H])c32)n([H])c1C([H])([H])[H]


 32 34  0  0  0  0  0  0  0  0999 V2000
   34.6826   13.9446  -14.3061 C   0  0  0  0  0  0  0  0  0  0  0  0
   36.0128   14.1639  -13.6535 C   0  0  0  0  0  0  0  0  0  0  0  0
   37.2130   14.0524  -14.2753 N   0  0  0  0  0  0  0  0  0  0  0  0
   38.2211   14.2678  -13.4390 C   0  0  0  0  0  0  0  0  0  0  0  0
   37.6762   14.5335  -12.2084 C   0  0  0  0  0  0  0  0  0  0  0  0
   38.3777   14.8417  -10.9302 C   0  0  0  0  0  0  0  0  0  0  0  0
   36.2858   14.4671  -12.3542 C   0  0  0  0  0  0  0  0  0  0  0  0
   37.2686   13.8057  -15.3040 H   0  0  0  0  0  0  0  0  0  0  0  0
   39.6443   14.2582  -13.7292 C   0  0  0  0  0  0  0  0  0  0  0  0
   40.2396   13.5684  -14.6853 C   0  0  0  0  0  0  0  0  0  0  0  0
   39.5941   12.6936  -15.6360 C   0  0  0  0  0  0  0  0  0  0  0  0
   38.3826   12.4425  -15.7558 O   0  0  0  0  0  0  0  0  0  0  0  0
   40.6562   12.1465  -16.4551 N   0  0  0  0  0  0  0  0  0  0  0  0
   41.9035   12.6775  -16.0110 C   0  0  0  0  0  0  0  0  0  0  0  0
   43.2115   12.4899  -16.4386 C   0  0  0  0  0  0  0  0  0  0  0  0
   44.2906   13.1082  -15.8647 C   0  0  0  0  0  0  0  0  0  0  0  0
   44.0732   13.9644  -14.8045 C   0  0  0  0  0  0  0  0  0  0  0  0
   45.0625   14.6131  -14.1803 F   0  0  0  0  0  0  0  0  0  0  0  0
   42.7643   14.1567  -14.3710 C   0  0  0  0  0  0  0  0  0  0  0  0
   41.6964   13.5307  -14.9561 C   0  0  0  0  0  0  0  0  0  0  0  0
   40.4899   11.4795  -17.2283 H   0  0  0  0  0  0  0  0  0  0  0  0
   35.3637   14.7544  -11.2183 C   0  0  0  0  0  0  0  0  0  0  0  0
   35.7416   14.3723  -10.0638 O   0  0  0  0  0  0  0  0  0  0  0  0
   34.1450   15.4055  -11.3541 N   0  0  0  0  0  0  0  0  0  0  0  0
   33.9543   15.7573  -12.3868 H   0  0  0  0  0  0  0  0  0  0  0  0
   33.0922   15.7651  -10.4953 C   0  0  0  0  0  0  0  0  0  0  0  0
   31.6951   15.7892  -10.9328 C   0  0  0  0  0  0  0  0  0  0  0  0
   30.8996   16.2202   -9.8081 O   0  0  0  0  0  0  0  0  0  0  0  0
   31.2405   17.0781   -9.4809 H   0  0  0  0  0  0  0  0  0  0  0  0
   31.1041   14.5197  -11.4361 C   0  0  0  0  0  0  0  0  0  0  0  0
   31.6346   14.1391  -12.6783 O   0  0  0  0  0  0  0  0  0  0  0  0
   32.3995   13.5195  -12.5896 H   0  0  0  0  0  0  0  0  0  0  0  0
  1  2  1  0  0  0
  2  3  1  0  0  0
  3  4  1  0  0  0
  4  9  1  0  0  0
  9 10  2  0  0  0
 10 11  1  0  0  0
 11 12  2  0  0  0
 11 13  1  0  0  0
 13 14  1  0  0  0
 14 15  2  0  0  0
 15 16  1  0  0  0
 16 17  2  0  0  0
 17 18  1  0  0  0
 17 19  1  0  0  0
 19 20  2  0  0  0
  4  5  2  0  0  0
  5  6  1  0  0  0
  5  7  1  0  0  0
  7 22  1  0  0  0
 22 23  2  0  0  0
 22 24  1  0  0  0
 24 26  1  0  0  0
 26 27  1  0  0  0
 27 28  1  0  0  0
 27 30  1  0  0  0
 30 31  1  0  0  0
  7  2  2  0  0  0
 20 10  1  0  0  0
 20 14  1  0  0  0
  3  8  1  0  0  0
 13 21  1  0  0  0
 24 25  1  0  0  0
 28 29  1  0  0  0
 31 32  1  0  0  0
M  END
> <minimizedAffinity>
-7.63927

> <CNNscore>
0.2284011096

> <CNNaffinity>
5.8762421608

> <CNN_VS>
1.3421401978

> <CNNaffinity_variance>
0.1979247034

$$$$
[H]OC([H])([H])[C@@]([H])(O[H])C([H])([H])N([H])C(=O)c1c(C([H])([H])[H])c(/C([H])=C2\C(=O)N([H])c3c([H])c([H])c(F)c([H])c32)n([H])c1C([H])([H])[H]


 32 34  0  0  0  0  0  0  0  0999 V2000
   33.0637   13.6367  -13.2935 C   0  0  0  0  0  0  0  0  0  0  0  0
   34.5201   13.9539  -13.1463 C   0  0  0  0  0  0  0  0  0  0  0  0
   35.4958   13.5445  -13.9947 N   0  0  0  0  0  0  0  0  0  0  0  0
   36.6958   13.9454  -13.5931 C   0  0  0  0  0  0  0  0  0  0  0  0
   36.5184   14.6506  -12.4298 C   0  0  0  0  0  0  0  0  0  0  0  0
   37.5483   15.3112  -11.5792 C   0  0  0  0  0  0  0  0  0  0  0  0
   35.1455   14.6513  -12.1578 C   0  0  0  0  0  0  0  0  0  0  0  0
   35.2612   12.9642  -14.8494 H   0  0  0  0  0  0  0  0  0  0  0  0
   37.9776   13.7248  -14.2397 C   0  0  0  0  0  0  0  0  0  0  0  0
   38.1989   12.9500  -15.2861 C   0  0  0  0  0  0  0  0  0  0  0  0
   37.2108   12.1751  -15.9995 C   0  0  0  0  0  0  0  0  0  0  0  0
   35.9872   12.1047  -15.7919 O   0  0  0  0  0  0  0  0  0  0  0  0
   37.9338   11.4734  -17.0402 N   0  0  0  0  0  0  0  0  0  0  0  0
   39.3157   11.8169  -16.9561 C   0  0  0  0  0  0  0  0  0  0  0  0
   40.4265   11.4365  -17.6979 C   0  0  0  0  0  0  0  0  0  0  0  0
   41.6941   11.8920  -17.4490 C   0  0  0  0  0  0  0  0  0  0  0  0
   41.8843   12.7762  -16.4066 C   0  0  0  0  0  0  0  0  0  0  0  0
   43.0835   13.2752  -16.0873 F   0  0  0  0  0  0  0  0  0  0  0  0
   40.7748   13.1614  -15.6592 C   0  0  0  0  0  0  0  0  0  0  0  0
   39.5139   12.6967  -15.9215 C   0  0  0  0  0  0  0  0  0  0  0  0
   37.4789   10.8342  -17.7147 H   0  0  0  0  0  0  0  0  0  0  0  0
   34.5792   15.3754  -10.9839 C   0  0  0  0  0  0  0  0  0  0  0  0
   35.4111   15.9551  -10.2134 O   0  0  0  0  0  0  0  0  0  0  0  0
   33.2223   15.4497  -10.6990 N   0  0  0  0  0  0  0  0  0  0  0  0
   32.5900   14.9747  -11.4743 H   0  0  0  0  0  0  0  0  0  0  0  0
   32.4350   16.0110   -9.6790 C   0  0  0  0  0  0  0  0  0  0  0  0
   31.2008   15.3828   -9.2038 C   0  0  0  0  0  0  0  0  0  0  0  0
   30.2775   15.3555  -10.3129 O   0  0  0  0  0  0  0  0  0  0  0  0
   30.6992   14.9049  -11.0735 H   0  0  0  0  0  0  0  0  0  0  0  0
   30.4983   16.0158   -8.0548 C   0  0  0  0  0  0  0  0  0  0  0  0
   29.1045   16.0210   -8.2183 O   0  0  0  0  0  0  0  0  0  0  0  0
   28.6711   15.2377   -7.7994 H   0  0  0  0  0  0  0  0  0  0  0  0
  1  2  1  0  0  0
  2  3  1  0  0  0
  3  4  1  0  0  0
  4  9  1  0  0  0
  9 10  2  0  0  0
 10 11  1  0  0  0
 11 12  2  0  0  0
 11 13  1  0  0  0
 13 14  1  0  0  0
 14 15  2  0  0  0
 15 16  1  0  0  0
 16 17  2  0  0  0
 17 18  1  0  0  0
 17 19  1  0  0  0
 19 20  2  0  0  0
  4  5  2  0  0  0
  5  6  1  0  0  0
  5  7  1  0  0  0
  7 22  1  0  0  0
 22 23  2  0  0  0
 22 24  1  0  0  0
 24 26  1  0  0  0
 26 27  1  0  0  0
 27 28  1  0  0  0
 27 30  1  0  0  0
 30 31  1  0  0  0
  7  2  2  0  0  0
 20 10  1  0  0  0
 20 14  1  0  0  0
  3  8  1  0  0  0
 13 21  1  0  0  0
 24 25  1  0  0  0
 28 29  1  0  0  0
 31 32  1  0  0  0
M  END
> <minimizedAffinity>
-8.35807

> <CNNscore>
0.2174114138

> <CNNaffinity>
5.9467864037

> <CNN_VS>
1.2928992510

> <CNNaffinity_variance>
0.1503078043

$$$$
[H]OC([H])([H])[C@@]([H])(O[H])C([H])([H])N([H])C(=O)c1c(C([H])([H])[H])c(/C([H])=C2\C(=O)N([H])c3c([H])c([H])c(F)c([H])c32)n([H])c1C([H])([H])[H]


 32 34  0  0  0  0  0  0  0  0999 V2000
   32.7738   15.5684  -11.4353 C   0  0  0  0  0  0  0  0  0  0  0  0
   34.2487   15.3282  -11.5377 C   0  0  0  0  0  0  0  0  0  0  0  0
   34.9003   14.9555  -12.6673 N   0  0  0  0  0  0  0  0  0  0  0  0
   36.1983   14.7811  -12.4507 C   0  0  0  0  0  0  0  0  0  0  0  0
   36.4262   15.0465  -11.1242 C   0  0  0  0  0  0  0  0  0  0  0  0
   37.7140   14.9961  -10.3760 C   0  0  0  0  0  0  0  0  0  0  0  0
   35.1932   15.3911  -10.5586 C   0  0  0  0  0  0  0  0  0  0  0  0
   34.3737   14.8228  -13.5770 H   0  0  0  0  0  0  0  0  0  0  0  0
   37.2243   14.4048  -13.4074 C   0  0  0  0  0  0  0  0  0  0  0  0
   37.1529   13.4124  -14.2760 C   0  0  0  0  0  0  0  0  0  0  0  0
   36.0392   12.5100  -14.4524 C   0  0  0  0  0  0  0  0  0  0  0  0
   34.9485   12.5035  -13.8562 O   0  0  0  0  0  0  0  0  0  0  0  0
   36.4409   11.5837  -15.4910 N   0  0  0  0  0  0  0  0  0  0  0  0
   37.7568   11.9197  -15.9274 C   0  0  0  0  0  0  0  0  0  0  0  0
   38.6004   11.3685  -16.8830 C   0  0  0  0  0  0  0  0  0  0  0  0
   39.8528   11.8520  -17.1551 C   0  0  0  0  0  0  0  0  0  0  0  0
   40.3064   12.9448  -16.4449 C   0  0  0  0  0  0  0  0  0  0  0  0
   41.5134   13.4873  -16.6396 F   0  0  0  0  0  0  0  0  0  0  0  0
   39.4655   13.5019  -15.4855 C   0  0  0  0  0  0  0  0  0  0  0  0
   38.2159   13.0063  -15.2259 C   0  0  0  0  0  0  0  0  0  0  0  0
   35.8367   10.8154  -15.8305 H   0  0  0  0  0  0  0  0  0  0  0  0
   35.0719   15.7940   -9.1283 C   0  0  0  0  0  0  0  0  0  0  0  0
   35.1922   14.8693   -8.2611 O   0  0  0  0  0  0  0  0  0  0  0  0
   34.8434   17.0968   -8.7060 N   0  0  0  0  0  0  0  0  0  0  0  0
   34.8305   17.8265   -9.5392 H   0  0  0  0  0  0  0  0  0  0  0  0
   34.6542   17.7381   -7.4698 C   0  0  0  0  0  0  0  0  0  0  0  0
   33.7287   17.2304   -6.4552 C   0  0  0  0  0  0  0  0  0  0  0  0
   34.3931   16.1473   -5.7704 O   0  0  0  0  0  0  0  0  0  0  0  0
   35.2507   16.4646   -5.4194 H   0  0  0  0  0  0  0  0  0  0  0  0
   32.4071   16.7231   -6.9141 C   0  0  0  0  0  0  0  0  0  0  0  0
   31.9657   17.3630   -8.0824 O   0  0  0  0  0  0  0  0  0  0  0  0
   32.2193   16.8722   -8.9020 H   0  0  0  0  0  0  0  0  0  0  0  0
  1  2  1  0  0  0
  2  3  1  0  0  0
  3  4  1  0  0  0
  4  9  1  0  0  0
  9 10  2  0  0  0
 10 11  1  0  0  0
 11 12  2  0  0  0
 11 13  1  0  0  0
 13 14  1  0  0  0
 14 15  2  0  0  0
 15 16  1  0  0  0
 16 17  2  0  0  0
 17 18  1  0  0  0
 17 19  1  0  0  0
 19 20  2  0  0  0
  4  5  2  0  0  0
  5  6  1  0  0  0
  5  7  1  0  0  0
  7 22  1  0  0  0
 22 23  2  0  0  0
 22 24  1  0  0  0
 24 26  1  0  0  0
 26 27  1  0  0  0
 27 28  1  0  0  0
 27 30  1  0  0  0
 30 31  1  0  0  0
  7  2  2  0  0  0
 20 10  1  0  0  0
 20 14  1  0  0  0
  3  8  1  0  0  0
 13 21  1  0  0  0
 24 25  1  0  0  0
 28 29  1  0  0  0
 31 32  1  0  0  0
M  END
> <minimizedAffinity>
-7.53299

> <CNNscore>
0.1956672370

> <CNNaffinity>
5.3439702988

> <CNN_VS>
1.0456398726

> <CNNaffinity_variance>
0.4486554265

$$$$
[H]c1c([H])c(C([H])([H])N2C([H])([H])C([H])([H])N(C([H])([H])[H])C([H])([H])C2([H])[H])c(C(F)(F)F)c([H])c1C(=O)N([H])c1c([H])c([H])c(C([H])([H])[H])c(C(=O)N([H])c2c([H])c([H])c(C([H])([H])[H])c(N3C([H])([H])C([H])([H])OC([H])([H])C3([H])[H])c2[H])c1[H]


 46 50  0  0  0  0  0  0  0  0999 V2000
   38.2541   12.2976  -15.5017 C   0  0  0  0  0  0  0  0  0  0  0  0
   37.6785   11.6923  -16.5777 C   0  0  0  0  0  0  0  0  0  0  0  0
   36.3234   11.5437  -16.7015 C   0  0  0  0  0  0  0  0  0  0  0  0
   35.4563   12.0176  -15.7067 C   0  0  0  0  0  0  0  0  0  0  0  0
   34.0144   11.8737  -15.9274 C   0  0  0  0  0  0  0  0  0  0  0  0
   36.0006   12.6230  -14.6222 C   0  0  0  0  0  0  0  0  0  0  0  0
   37.3761   12.7630  -14.5202 C   0  0  0  0  0  0  0  0  0  0  0  0
   40.2510   13.5795  -14.6915 C   0  0  0  0  0  0  0  0  0  0  0  0
   39.6258   14.5478  -14.2227 O   0  0  0  0  0  0  0  0  0  0  0  0
   39.6489   12.4932  -15.3043 N   0  0  0  0  0  0  0  0  0  0  0  0
   40.3220   11.7323  -15.6696 H   0  0  0  0  0  0  0  0  0  0  0  0
   44.5037   13.5647  -14.5037 C   0  0  0  0  0  0  0  0  0  0  0  0
   43.7484   14.1951  -13.5269 C   0  0  0  0  0  0  0  0  0  0  0  0
   42.3675   14.2348  -13.5399 C   0  0  0  0  0  0  0  0  0  0  0  0
   41.7262   13.6158  -14.5765 C   0  0  0  0  0  0  0  0  0  0  0  0
   42.4549   12.9919  -15.5453 C   0  0  0  0  0  0  0  0  0  0  0  0
   43.8424   12.9371  -15.5561 C   0  0  0  0  0  0  0  0  0  0  0  0
   44.5789   12.2462  -16.6307 C   0  0  0  0  0  0  0  0  0  0  0  0
   45.8066   12.7924  -16.9259 F   0  0  0  0  0  0  0  0  0  0  0  0
   44.8617   10.9513  -16.1719 F   0  0  0  0  0  0  0  0  0  0  0  0
   43.8130   12.0515  -17.7650 F   0  0  0  0  0  0  0  0  0  0  0  0
   45.9626   13.5395  -14.4897 C   0  0  0  0  0  0  0  0  0  0  0  0
   49.3671   17.4361  -14.0916 C   0  0  0  0  0  0  0  0  0  0  0  0
   48.3060   16.9678  -14.9366 N   0  0  0  0  0  0  0  0  0  0  0  0
   46.9994   17.1006  -14.3523 C   0  0  0  0  0  0  0  0  0  0  0  0
   46.1798   15.8943  -14.6994 C   0  0  0  0  0  0  0  0  0  0  0  0
   46.6129   14.7042  -13.9266 N   0  0  0  0  0  0  0  0  0  0  0  0
   48.0469   14.6587  -14.1071 C   0  0  0  0  0  0  0  0  0  0  0  0
   48.5215   15.5604  -15.2154 C   0  0  0  0  0  0  0  0  0  0  0  0
   35.2228   13.0902  -13.4801 C   0  0  0  0  0  0  0  0  0  0  0  0
   34.7565   12.1380  -12.7540 O   0  0  0  0  0  0  0  0  0  0  0  0
   34.9714   14.4250  -13.1606 N   0  0  0  0  0  0  0  0  0  0  0  0
   35.3352   15.1776  -13.8174 H   0  0  0  0  0  0  0  0  0  0  0  0
   34.2237   14.9286  -12.0580 C   0  0  0  0  0  0  0  0  0  0  0  0
   32.8338   15.1001  -12.1970 C   0  0  0  0  0  0  0  0  0  0  0  0
   32.0318   15.5622  -11.1882 C   0  0  0  0  0  0  0  0  0  0  0  0
   32.5904   15.8822   -9.9672 C   0  0  0  0  0  0  0  0  0  0  0  0
   31.7159   16.3975   -8.8503 C   0  0  0  0  0  0  0  0  0  0  0  0
   33.9431   15.7230   -9.8076 C   0  0  0  0  0  0  0  0  0  0  0  0
   34.7568   15.2484  -10.8470 C   0  0  0  0  0  0  0  0  0  0  0  0
   34.5521   16.0429   -8.5837 N   0  0  0  0  0  0  0  0  0  0  0  0
   35.1668   17.3154   -8.2901 C   0  0  0  0  0  0  0  0  0  0  0  0
   35.1469   17.4537   -6.7576 C   0  0  0  0  0  0  0  0  0  0  0  0
   35.8647   16.4693   -6.1282 O   0  0  0  0  0  0  0  0  0  0  0  0
   35.8973   15.2511   -6.7726 C   0  0  0  0  0  0  0  0  0  0  0  0
   34.5861   15.0615   -7.5031 C   0  0  0  0  0  0  0  0  0  0  0  0
 23 24  1  0  0  0
 24 25  1  0  0  0
 25 26  1  0  0  0
 26 27  1  0  0  0
 27 22  1  0  0  0
 22 12  1  0  0  0
 12 13  2  0  0  0
 13 14  1  0  0  0
 14 15  2  0  0  0
 15 16  1  0  0  0
 16 17  2  0  0  0
 17 18  1  0  0  0
 18 19  1  0  0  0
 18 20  1  0  0  0
 18 21  1  0  0  0
 15  8  1  0  0  0
  8  9  2  0  0  0
  8 10  1  0  0  0
 10  1  1  0  0  0
  1  2  2  0  0  0
  2  3  1  0  0  0
  3  4  2  0  0  0
  4  5  1  0  0  0
  4  6  1  0  0  0
  6  7  2  0  0  0
  6 30  1  0  0  0
 30 31  2  0  0  0
 30 32  1  0  0  0
 32 34  1  0  0  0
 34 35  2  0  0  0
 35 36  1  0  0  0
 36 37  2  0  0  0
 37 38  1  0  0  0
 37 39  1  0  0  0
 39 40  2  0  0  0
 39 41  1  0  0  0
 41 42  1  0  0  0
 42 43  1  0  0  0
 43 44  1  0  0  0
 44 45  1  0  0  0
 45 46  1  0  0  0
 27 28  1  0  0  0
 28 29  1  0  0  0
 29 24  1  0  0  0
 17 12  1  0  0  0
  7  1  1  0  0  0
 40 34  1  0  0  0
 46 41  1  0  0  0
 10 11  1  0  0  0
 32 33  1  0  0  0
M  END
> <minimizedAffinity>
-9.75894

> <CNNscore>
0.3026954532

> <CNNaffinity>
6.7428026199

> <CNN_VS>
2.0410156250

> <CNNaffinity_variance>
0.1005710140

$$$$
[H]c1c([H])c(C([H])([H])N2C([H])([H])C([H])([H])N(C([H])([H])[H])C([H])([H])C2([H])[H])c(C(F)(F)F)c([H])c1C(=O)N([H])c1c([H])c([H])c(C([H])([H])[H])c(C(=O)N([H])c2c([H])c([H])c(C([H])([H])[H])c(N3C([H])([H])C([H])([H])OC([H])([H])C3([H])[H])c2[H])c1[H]


 46 50  0  0  0  0  0  0  0  0999 V2000
   38.2163   12.3301  -15.4833 C   0  0  0  0  0  0  0  0  0  0  0  0
   37.5676   11.7531  -16.5329 C   0  0  0  0  0  0  0  0  0  0  0  0
   36.2044   11.6402  -16.5842 C   0  0  0  0  0  0  0  0  0  0  0  0
   35.4051   12.1233  -15.5382 C   0  0  0  0  0  0  0  0  0  0  0  0
   33.9501   12.0187  -15.6815 C   0  0  0  0  0  0  0  0  0  0  0  0
   36.0230   12.7012  -14.4785 C   0  0  0  0  0  0  0  0  0  0  0  0
   37.4052   12.8052  -14.4502 C   0  0  0  0  0  0  0  0  0  0  0  0
   40.2944   13.6327  -14.9621 C   0  0  0  0  0  0  0  0  0  0  0  0
   39.7290   14.6970  -14.6524 O   0  0  0  0  0  0  0  0  0  0  0  0
   39.6243   12.4880  -15.3602 N   0  0  0  0  0  0  0  0  0  0  0  0
   40.2503   11.6432  -15.6053 H   0  0  0  0  0  0  0  0  0  0  0  0
   44.5470   13.4517  -14.8993 C   0  0  0  0  0  0  0  0  0  0  0  0
   43.8506   14.2005  -13.9630 C   0  0  0  0  0  0  0  0  0  0  0  0
   42.4727   14.2984  -13.9389 C   0  0  0  0  0  0  0  0  0  0  0  0
   41.7728   13.6157  -14.8945 C   0  0  0  0  0  0  0  0  0  0  0  0
   42.4432   12.8753  -15.8225 C   0  0  0  0  0  0  0  0  0  0  0  0
   43.8262   12.7599  -15.8692 C   0  0  0  0  0  0  0  0  0  0  0  0
   44.4981   11.9427  -16.8965 C   0  0  0  0  0  0  0  0  0  0  0  0
   44.8089   10.6634  -16.4972 F   0  0  0  0  0  0  0  0  0  0  0  0
   43.5911   11.7798  -17.9539 F   0  0  0  0  0  0  0  0  0  0  0  0
   45.5819   12.5846  -17.4664 F   0  0  0  0  0  0  0  0  0  0  0  0
   46.0033   13.3650  -14.9261 C   0  0  0  0  0  0  0  0  0  0  0  0
   49.0252   11.0384  -11.4065 C   0  0  0  0  0  0  0  0  0  0  0  0
   47.9332   11.9650  -11.4969 N   0  0  0  0  0  0  0  0  0  0  0  0
   46.6885   11.3571  -11.8808 C   0  0  0  0  0  0  0  0  0  0  0  0
   45.9614   12.2735  -12.8182 C   0  0  0  0  0  0  0  0  0  0  0  0
   46.5898   12.2838  -14.1622 N   0  0  0  0  0  0  0  0  0  0  0  0
   47.9942   12.5096  -13.9024 C   0  0  0  0  0  0  0  0  0  0  0  0
   48.2576   12.9688  -12.4929 C   0  0  0  0  0  0  0  0  0  0  0  0
   35.3208   13.1735  -13.2905 C   0  0  0  0  0  0  0  0  0  0  0  0
   35.1336   12.2581  -12.4082 O   0  0  0  0  0  0  0  0  0  0  0  0
   34.8679   14.4764  -13.0795 N   0  0  0  0  0  0  0  0  0  0  0  0
   35.0008   15.1884  -13.8577 H   0  0  0  0  0  0  0  0  0  0  0  0
   34.1833   14.9843  -11.9386 C   0  0  0  0  0  0  0  0  0  0  0  0
   32.7909   15.1770  -12.0077 C   0  0  0  0  0  0  0  0  0  0  0  0
   32.0468   15.6448  -10.9579 C   0  0  0  0  0  0  0  0  0  0  0  0
   32.6698   15.9492   -9.7644 C   0  0  0  0  0  0  0  0  0  0  0  0
   31.8594   16.4706   -8.6029 C   0  0  0  0  0  0  0  0  0  0  0  0
   34.0263   15.7692   -9.6729 C   0  0  0  0  0  0  0  0  0  0  0  0
   34.7803   15.2889  -10.7538 C   0  0  0  0  0  0  0  0  0  0  0  0
   34.6997   16.0728   -8.4790 N   0  0  0  0  0  0  0  0  0  0  0  0
   34.8545   15.1537   -7.3770 C   0  0  0  0  0  0  0  0  0  0  0  0
   36.0951   15.6273   -6.5993 C   0  0  0  0  0  0  0  0  0  0  0  0
   35.9500   16.8930   -6.0918 O   0  0  0  0  0  0  0  0  0  0  0  0
   35.1560   17.7438   -6.8308 C   0  0  0  0  0  0  0  0  0  0  0  0
   35.3062   17.3880   -8.2935 C   0  0  0  0  0  0  0  0  0  0  0  0
 23 24  1  0  0  0
 24 25  1  0  0  0
 25 26  1  0  0  0
 26 27  1  0  0  0
 27 22  1  0  0  0
 22 12  1  0  0  0
 12 13  2  0  0  0
 13 14  1  0  0  0
 14 15  2  0  0  0
 15 16  1  0  0  0
 16 17  2  0  0  0
 17 18  1  0  0  0
 18 19  1  0  0  0
 18 20  1  0  0  0
 18 21  1  0  0  0
 15  8  1  0  0  0
  8  9  2  0  0  0
  8 10  1  0  0  0
 10  1  1  0  0  0
  1  2  2  0  0  0
  2  3  1  0  0  0
  3  4  2  0  0  0
  4  5  1  0  0  0
  4  6  1  0  0  0
  6  7  2  0  0  0
  6 30  1  0  0  0
 30 31  2  0  0  0
 30 32  1  0  0  0
 32 34  1  0  0  0
 34 35  2  0  0  0
 35 36  1  0  0  0
 36 37  2  0  0  0
 37 38  1  0  0  0
 37 39  1  0  0  0
 39 40  2  0  0  0
 39 41  1  0  0  0
 41 42  1  0  0  0
 42 43  1  0  0  0
 43 44  1  0  0  0
 44 45  1  0  0  0
 45 46  1  0  0  0
 27 28  1  0  0  0
 28 29  1  0  0  0
 29 24  1  0  0  0
 17 12  1  0  0  0
  7  1  1  0  0  0
 40 34  1  0  0  0
 46 41  1  0  0  0
 10 11  1  0  0  0
 32 33  1  0  0  0
M  END
> <minimizedAffinity>
-10.10794

> <CNNscore>
0.2742433250

> <CNNaffinity>
6.7123093605

> <CNN_VS>
1.8408060074

> <CNNaffinity_variance>
0.2064563334

$$$$
[H]c1c([H])c(C([H])([H])N2C([H])([H])C([H])([H])N(C([H])([H])[H])C([H])([H])C2([H])[H])c(C(F)(F)F)c([H])c1C(=O)N([H])c1c([H])c([H])c(C([H])([H])[H])c(C(=O)N([H])c2c([H])c([H])c(C([H])([H])[H])c(N3C([H])([H])C([H])([H])OC([H])([H])C3([H])[H])c2[H])c1[H]


 46 50  0  0  0  0  0  0  0  0999 V2000
   38.3928   12.1731  -15.5040 C   0  0  0  0  0  0  0  0  0  0  0  0
   37.7324   11.6480  -16.5734 C   0  0  0  0  0  0  0  0  0  0  0  0
   36.3663   11.6019  -16.6453 C   0  0  0  0  0  0  0  0  0  0  0  0
   35.5761   12.1030  -15.6010 C   0  0  0  0  0  0  0  0  0  0  0  0
   34.1199   12.0712  -15.7659 C   0  0  0  0  0  0  0  0  0  0  0  0
   36.2055   12.6303  -14.5218 C   0  0  0  0  0  0  0  0  0  0  0  0
   37.5906   12.6670  -14.4728 C   0  0  0  0  0  0  0  0  0  0  0  0
   40.5412   13.4118  -15.1339 C   0  0  0  0  0  0  0  0  0  0  0  0
   40.0420   14.5465  -15.0268 O   0  0  0  0  0  0  0  0  0  0  0  0
   39.8048   12.2607  -15.3588 N   0  0  0  0  0  0  0  0  0  0  0  0
   40.3778   11.3490  -15.4368 H   0  0  0  0  0  0  0  0  0  0  0  0
   44.7591   13.1854  -14.6053 C   0  0  0  0  0  0  0  0  0  0  0  0
   44.1870   13.0226  -15.8577 C   0  0  0  0  0  0  0  0  0  0  0  0
   42.8258   13.0818  -16.0863 C   0  0  0  0  0  0  0  0  0  0  0  0
   42.0130   13.3136  -15.0117 C   0  0  0  0  0  0  0  0  0  0  0  0
   42.5603   13.4752  -13.7735 C   0  0  0  0  0  0  0  0  0  0  0  0
   43.9238   13.4206  -13.5164 C   0  0  0  0  0  0  0  0  0  0  0  0
   44.4603   13.6042  -12.1551 C   0  0  0  0  0  0  0  0  0  0  0  0
   45.0724   14.8174  -11.9399 F   0  0  0  0  0  0  0  0  0  0  0  0
   43.3684   13.5904  -11.2749 F   0  0  0  0  0  0  0  0  0  0  0  0
   45.2494   12.5463  -11.7437 F   0  0  0  0  0  0  0  0  0  0  0  0
   46.1971   13.1074  -14.3704 C   0  0  0  0  0  0  0  0  0  0  0  0
   49.3669   17.1704  -14.9845 C   0  0  0  0  0  0  0  0  0  0  0  0
   49.3382   15.8599  -14.4004 N   0  0  0  0  0  0  0  0  0  0  0  0
   49.3489   14.7954  -15.3663 C   0  0  0  0  0  0  0  0  0  0  0  0
   48.4324   13.7025  -14.9048 C   0  0  0  0  0  0  0  0  0  0  0  0
   47.0081   14.0871  -15.0623 N   0  0  0  0  0  0  0  0  0  0  0  0
   46.9162   15.3922  -14.4464 C   0  0  0  0  0  0  0  0  0  0  0  0
   48.1255   15.7282  -13.6149 C   0  0  0  0  0  0  0  0  0  0  0  0
   35.5096   13.1133  -13.3344 C   0  0  0  0  0  0  0  0  0  0  0  0
   35.4234   12.2364  -12.3990 O   0  0  0  0  0  0  0  0  0  0  0  0
   34.9651   14.3881  -13.1749 N   0  0  0  0  0  0  0  0  0  0  0  0
   35.0164   15.0641  -13.9937 H   0  0  0  0  0  0  0  0  0  0  0  0
   34.2824   14.9052  -12.0370 C   0  0  0  0  0  0  0  0  0  0  0  0
   32.8870   15.0770  -12.0978 C   0  0  0  0  0  0  0  0  0  0  0  0
   32.1446   15.5516  -11.0498 C   0  0  0  0  0  0  0  0  0  0  0  0
   32.7727   15.8848   -9.8667 C   0  0  0  0  0  0  0  0  0  0  0  0
   31.9643   16.4140   -8.7074 C   0  0  0  0  0  0  0  0  0  0  0  0
   34.1323   15.7257   -9.7834 C   0  0  0  0  0  0  0  0  0  0  0  0
   34.8845   15.2382  -10.8624 C   0  0  0  0  0  0  0  0  0  0  0  0
   34.8109   16.0588   -8.6004 N   0  0  0  0  0  0  0  0  0  0  0  0
   35.3566   17.3645   -8.3167 C   0  0  0  0  0  0  0  0  0  0  0  0
   35.4464   17.4640   -6.7837 C   0  0  0  0  0  0  0  0  0  0  0  0
   36.2777   16.5187   -6.2400 O   0  0  0  0  0  0  0  0  0  0  0  0
   36.3447   15.3219   -6.9207 C   0  0  0  0  0  0  0  0  0  0  0  0
   34.9971   15.0566   -7.5550 C   0  0  0  0  0  0  0  0  0  0  0  0
 23 24  1  0  0  0
 24 25  1  0  0  0
 25 26  1  0  0  0
 26 27  1  0  0  0
 27 22  1  0  0  0
 22 12  1  0  0  0
 12 13  2  0  0  0
 13 14  1  0  0  0
 14 15  2  0  0  0
 15 16  1  0  0  0
 16 17  2  0  0  0
 17 18  1  0  0  0
 18 19  1  0  0  0
 18 20  1  0  0  0
 18 21  1  0  0  0
 15  8  1  0  0  0
  8  9  2  0  0  0
  8 10  1  0  0  0
 10  1  1  0  0  0
  1  2  2  0  0  0
  2  3  1  0  0  0
  3  4  2  0  0  0
  4  5  1  0  0  0
  4  6  1  0  0  0
  6  7  2  0  0  0
  6 30  1  0  0  0
 30 31  2  0  0  0
 30 32  1  0  0  0
 32 34  1  0  0  0
 34 35  2  0  0  0
 35 36  1  0  0  0
 36 37  2  0  0  0
 37 38  1  0  0  0
 37 39  1  0  0  0
 39 40  2  0  0  0
 39 41  1  0  0  0
 41 42  1  0  0  0
 42 43  1  0  0  0
 43 44  1  0  0  0
 44 45  1  0  0  0
 45 46  1  0  0  0
 27 28  1  0  0  0
 28 29  1  0  0  0
 29 24  1  0  0  0
 17 12  1  0  0  0
  7  1  1  0  0  0
 40 34  1  0  0  0
 46 41  1  0  0  0
 10 11  1  0  0  0
 32 33  1  0  0  0
M  END
> <minimizedAffinity>
-9.36748

> <CNNscore>
0.2391285449

> <CNNaffinity>
6.6093282700

> <CNN_VS>
1.5804790258

> <CNNaffinity_variance>
0.2136503756

$$$$
[H]c1c([H])c(C([H])([H])N2C([H])([H])C([H])([H])N(C([H])([H])[H])C([H])([H])C2([H])[H])c(C(F)(F)F)c([H])c1C(=O)N([H])c1c([H])c([H])c(C([H])([H])[H])c(C(=O)N([H])c2c([H])c([H])c(C([H])([H])[H])c(N3C([H])([H])C([H])([H])OC([H])([H])C3([H])[H])c2[H])c1[H]


 46 50  0  0  0  0  0  0  0  0999 V2000
   39.5323   13.5861  -14.1505 C   0  0  0  0  0  0  0  0  0  0  0  0
   39.2813   12.9628  -15.3354 C   0  0  0  0  0  0  0  0  0  0  0  0
   38.0186   12.6099  -15.7289 C   0  0  0  0  0  0  0  0  0  0  0  0
   36.9112   12.8809  -14.9126 C   0  0  0  0  0  0  0  0  0  0  0  0
   35.5822   12.5248  -15.4181 C   0  0  0  0  0  0  0  0  0  0  0  0
   37.1303   13.4990  -13.7256 C   0  0  0  0  0  0  0  0  0  0  0  0
   38.4184   13.8479  -13.3497 C   0  0  0  0  0  0  0  0  0  0  0  0
   41.1519   15.2321  -13.1734 C   0  0  0  0  0  0  0  0  0  0  0  0
   40.3550   16.1822  -13.0714 O   0  0  0  0  0  0  0  0  0  0  0  0
   40.8115   13.9872  -13.6758 N   0  0  0  0  0  0  0  0  0  0  0  0
   41.6123   13.2639  -13.7103 H   0  0  0  0  0  0  0  0  0  0  0  0
   45.1636   15.7439  -11.8447 C   0  0  0  0  0  0  0  0  0  0  0  0
   44.3736   16.8368  -12.1668 C   0  0  0  0  0  0  0  0  0  0  0  0
   43.0683   16.7292  -12.6066 C   0  0  0  0  0  0  0  0  0  0  0  0
   42.5419   15.4731  -12.7256 C   0  0  0  0  0  0  0  0  0  0  0  0
   43.3063   14.3883  -12.4133 C   0  0  0  0  0  0  0  0  0  0  0  0
   44.6196   14.4683  -11.9693 C   0  0  0  0  0  0  0  0  0  0  0  0
   45.3994   13.2595  -11.6445 C   0  0  0  0  0  0  0  0  0  0  0  0
   46.5418   13.0969  -12.3936 F   0  0  0  0  0  0  0  0  0  0  0  0
   45.8513   13.4011  -10.3243 F   0  0  0  0  0  0  0  0  0  0  0  0
   44.6264   12.1134  -11.6243 F   0  0  0  0  0  0  0  0  0  0  0  0
   46.5462   15.8659  -11.3942 C   0  0  0  0  0  0  0  0  0  0  0  0
   48.2430   17.8536  -15.8778 C   0  0  0  0  0  0  0  0  0  0  0  0
   47.2991   18.1184  -14.8298 N   0  0  0  0  0  0  0  0  0  0  0  0
   47.9070   18.5282  -13.5933 C   0  0  0  0  0  0  0  0  0  0  0  0
   47.1694   17.8990  -12.4498 C   0  0  0  0  0  0  0  0  0  0  0  0
   47.4734   16.4510  -12.3399 N   0  0  0  0  0  0  0  0  0  0  0  0
   47.2732   15.9375  -13.6767 C   0  0  0  0  0  0  0  0  0  0  0  0
   46.5443   16.9074  -14.5682 C   0  0  0  0  0  0  0  0  0  0  0  0
   36.0824   13.7687  -12.7476 C   0  0  0  0  0  0  0  0  0  0  0  0
   35.7187   12.7286  -12.0864 O   0  0  0  0  0  0  0  0  0  0  0  0
   35.4911   15.0107  -12.5130 N   0  0  0  0  0  0  0  0  0  0  0  0
   35.7884   15.8327  -13.1181 H   0  0  0  0  0  0  0  0  0  0  0  0
   34.4709   15.3231  -11.5697 C   0  0  0  0  0  0  0  0  0  0  0  0
   33.1256   15.2847  -11.9812 C   0  0  0  0  0  0  0  0  0  0  0  0
   32.0779   15.5535  -11.1418 C   0  0  0  0  0  0  0  0  0  0  0  0
   32.3281   15.8807   -9.8243 C   0  0  0  0  0  0  0  0  0  0  0  0
   31.1805   16.1841   -8.8923 C   0  0  0  0  0  0  0  0  0  0  0  0
   33.6314   15.9242   -9.3999 C   0  0  0  0  0  0  0  0  0  0  0  0
   34.6984   15.6467  -10.2672 C   0  0  0  0  0  0  0  0  0  0  0  0
   33.9297   16.2590   -8.0695 N   0  0  0  0  0  0  0  0  0  0  0  0
   33.3038   17.3378   -7.3431 C   0  0  0  0  0  0  0  0  0  0  0  0
   33.4451   16.9847   -5.8520 C   0  0  0  0  0  0  0  0  0  0  0  0
   34.7534   16.8935   -5.4516 O   0  0  0  0  0  0  0  0  0  0  0  0
   35.6423   16.4631   -6.4134 C   0  0  0  0  0  0  0  0  0  0  0  0
   34.9258   15.4925   -7.3263 C   0  0  0  0  0  0  0  0  0  0  0  0
 23 24  1  0  0  0
 24 25  1  0  0  0
 25 26  1  0  0  0
 26 27  1  0  0  0
 27 22  1  0  0  0
 22 12  1  0  0  0
 12 13  2  0  0  0
 13 14  1  0  0  0
 14 15  2  0  0  0
 15 16  1  0  0  0
 16 17  2  0  0  0
 17 18  1  0  0  0
 18 19  1  0  0  0
 18 20  1  0  0  0
 18 21  1  0  0  0
 15  8  1  0  0  0
  8  9  2  0  0  0
  8 10  1  0  0  0
 10  1  1  0  0  0
  1  2  2  0  0  0
  2  3  1  0  0  0
  3  4  2  0  0  0
  4  5  1  0  0  0
  4  6  1  0  0  0
  6  7  2  0  0  0
  6 30  1  0  0  0
 30 31  2  0  0  0
 30 32  1  0  0  0
 32 34  1  0  0  0
 34 35  2  0  0  0
 35 36  1  0  0  0
 36 37  2  0  0  0
 37 38  1  0  0  0
 37 39  1  0  0  0
 39 40  2  0  0  0
 39 41  1  0  0  0
 41 42  1  0  0  0
 42 43  1  0  0  0
 43 44  1  0  0  0
 44 45  1  0  0  0
 45 46  1  0  0  0
 27 28  1  0  0  0
 28 29  1  0  0  0
 29 24  1  0  0  0
 17 12  1  0  0  0
  7  1  1  0  0  0
 40 34  1  0  0  0
 46 41  1  0  0  0
 10 11  1  0  0  0
 32 33  1  0  0  0
M  END
> <minimizedAffinity>
-9.11110

> <CNNscore>
0.1854879260

> <CNNaffinity>
6.1088747978

> <CNN_VS>
1.1331225634

> <CNNaffinity_variance>
0.4078481197

$$$$
[H]c1c([H])c(C([H])([H])N2C([H])([H])C([H])([H])N(C([H])([H])[H])C([H])([H])C2([H])[H])c(C(F)(F)F)c([H])c1C(=O)N([H])c1c([H])c([H])c(C([H])([H])[H])c(C(=O)N([H])c2c([H])c([H])c(C([H])([H])[H])c(N3C([H])([H])C([H])([H])OC([H])([H])C3([H])[H])c2[H])c1[H]


 46 50  0  0  0  0  0  0  0  0999 V2000
   36.1960   12.8282  -14.8046 C   0  0  0  0  0  0  0  0  0  0  0  0
   35.3506   12.2253  -15.6863 C   0  0  0  0  0  0  0  0  0  0  0  0
   35.7983   11.4961  -16.7547 C   0  0  0  0  0  0  0  0  0  0  0  0
   37.1715   11.3372  -16.9894 C   0  0  0  0  0  0  0  0  0  0  0  0
   37.5823   10.4998  -18.1202 C   0  0  0  0  0  0  0  0  0  0  0  0
   38.0377   11.9278  -16.1293 C   0  0  0  0  0  0  0  0  0  0  0  0
   37.5600   12.6603  -15.0535 C   0  0  0  0  0  0  0  0  0  0  0  0
   36.6366   14.0450  -12.6570 C   0  0  0  0  0  0  0  0  0  0  0  0
   37.8607   13.8267  -12.6109 O   0  0  0  0  0  0  0  0  0  0  0  0
   35.8082   13.5955  -13.6717 N   0  0  0  0  0  0  0  0  0  0  0  0
   34.7653   13.8565  -13.5718 H   0  0  0  0  0  0  0  0  0  0  0  0
   35.1248   16.2946   -9.3744 C   0  0  0  0  0  0  0  0  0  0  0  0
   34.2947   15.9021  -10.4133 C   0  0  0  0  0  0  0  0  0  0  0  0
   34.7319   15.1756  -11.5040 C   0  0  0  0  0  0  0  0  0  0  0  0
   36.0548   14.8331  -11.5475 C   0  0  0  0  0  0  0  0  0  0  0  0
   36.8840   15.2121  -10.5337 C   0  0  0  0  0  0  0  0  0  0  0  0
   36.4707   15.9419   -9.4270 C   0  0  0  0  0  0  0  0  0  0  0  0
   37.4129   16.3234   -8.3586 C   0  0  0  0  0  0  0  0  0  0  0  0
   37.3598   15.5278   -7.2376 F   0  0  0  0  0  0  0  0  0  0  0  0
   38.7081   16.1449   -8.8662 F   0  0  0  0  0  0  0  0  0  0  0  0
   37.3477   17.6677   -8.0426 F   0  0  0  0  0  0  0  0  0  0  0  0
   34.6575   17.0740   -8.2328 C   0  0  0  0  0  0  0  0  0  0  0  0
   33.0807   16.2020   -3.3660 C   0  0  0  0  0  0  0  0  0  0  0  0
   32.5904   16.6872   -4.6243 N   0  0  0  0  0  0  0  0  0  0  0  0
   32.4335   15.6612   -5.6188 C   0  0  0  0  0  0  0  0  0  0  0  0
   32.8610   16.1979   -6.9517 C   0  0  0  0  0  0  0  0  0  0  0  0
   34.3370   16.3216   -7.0380 N   0  0  0  0  0  0  0  0  0  0  0  0
   34.7104   17.0353   -5.8372 C   0  0  0  0  0  0  0  0  0  0  0  0
   33.5303   17.6626   -5.1438 C   0  0  0  0  0  0  0  0  0  0  0  0
   39.4863   11.9096  -16.2991 C   0  0  0  0  0  0  0  0  0  0  0  0
   39.8932   11.0215  -17.1340 O   0  0  0  0  0  0  0  0  0  0  0  0
   40.3911   12.7450  -15.6427 N   0  0  0  0  0  0  0  0  0  0  0  0
   40.0134   13.4309  -14.9237 H   0  0  0  0  0  0  0  0  0  0  0  0
   41.8087   12.7673  -15.7780 C   0  0  0  0  0  0  0  0  0  0  0  0
   42.4005   12.1092  -16.8721 C   0  0  0  0  0  0  0  0  0  0  0  0
   43.7516   12.0905  -17.0931 C   0  0  0  0  0  0  0  0  0  0  0  0
   44.5940   12.7410  -16.2141 C   0  0  0  0  0  0  0  0  0  0  0  0
   46.0851   12.7218  -16.4456 C   0  0  0  0  0  0  0  0  0  0  0  0
   44.0402   13.3898  -15.1402 C   0  0  0  0  0  0  0  0  0  0  0  0
   42.6546   13.4038  -14.9223 C   0  0  0  0  0  0  0  0  0  0  0  0
   44.8620   14.0582  -14.2188 N   0  0  0  0  0  0  0  0  0  0  0  0
   45.2945   15.4279  -14.3600 C   0  0  0  0  0  0  0  0  0  0  0  0
   45.6237   15.9185  -12.9391 C   0  0  0  0  0  0  0  0  0  0  0  0
   46.6355   15.2021  -12.3532 O   0  0  0  0  0  0  0  0  0  0  0  0
   46.7255   13.8795  -12.7314 C   0  0  0  0  0  0  0  0  0  0  0  0
   45.3309   13.3690  -13.0200 C   0  0  0  0  0  0  0  0  0  0  0  0
 23 24  1  0  0  0
 24 25  1  0  0  0
 25 26  1  0  0  0
 26 27  1  0  0  0
 27 22  1  0  0  0
 22 12  1  0  0  0
 12 13  2  0  0  0
 13 14  1  0  0  0
 14 15  2  0  0  0
 15 16  1  0  0  0
 16 17  2  0  0  0
 17 18  1  0  0  0
 18 19  1  0  0  0
 18 20  1  0  0  0
 18 21  1  0  0  0
 15  8  1  0  0  0
  8  9  2  0  0  0
  8 10  1  0  0  0
 10  1  1  0  0  0
  1  2  2  0  0  0
  2  3  1  0  0  0
  3  4  2  0  0  0
  4  5  1  0  0  0
  4  6  1  0  0  0
  6  7  2  0  0  0
  6 30  1  0  0  0
 30 31  2  0  0  0
 30 32  1  0  0  0
 32 34  1  0  0  0
 34 35  2  0  0  0
 35 36  1  0  0  0
 36 37  2  0  0  0
 37 38  1  0  0  0
 37 39  1  0  0  0
 39 40  2  0  0  0
 39 41  1  0  0  0
 41 42  1  0  0  0
 42 43  1  0  0  0
 43 44  1  0  0  0
 44 45  1  0  0  0
 45 46  1  0  0  0
 27 28  1  0  0  0
 28 29  1  0  0  0
 29 24  1  0  0  0
 17 12  1  0  0  0
  7  1  1  0  0  0
 40 34  1  0  0  0
 46 41  1  0  0  0
 10 11  1  0  0  0
 32 33  1  0  0  0
M  END
> <minimizedAffinity>
-9.39152

> <CNNscore>
0.1781588942

> <CNNaffinity>
6.6164159775

> <CNN_VS>
1.1787734032

> <CNNaffinity_variance>
0.1774987578

$$$$
[H]c1c([H])c(C([H])([H])N2C([H])([H])C([H])([H])N(C([H])([H])[H])C([H])([H])C2([H])[H])c(C(F)(F)F)c([H])c1C(=O)N([H])c1c([H])c([H])c(C([H])([H])[H])c(C(=O)N([H])c2c([H])c([H])c(C([H])([H])[H])c(N3C([H])([H])C([H])([H])OC([H])([H])C3([H])[H])c2[H])c1[H]


 46 50  0  0  0  0  0  0  0  0999 V2000
   39.5113   15.4838   -8.4819 C   0  0  0  0  0  0  0  0  0  0  0  0
   38.9361   16.6870   -8.2042 C   0  0  0  0  0  0  0  0  0  0  0  0
   37.8686   17.1733   -8.9095 C   0  0  0  0  0  0  0  0  0  0  0  0
   37.3131   16.4386   -9.9668 C   0  0  0  0  0  0  0  0  0  0  0  0
   36.1380   16.9932  -10.6451 C   0  0  0  0  0  0  0  0  0  0  0  0
   37.8660   15.2376  -10.2680 C   0  0  0  0  0  0  0  0  0  0  0  0
   38.9461   14.7656   -9.5381 C   0  0  0  0  0  0  0  0  0  0  0  0
   40.5584   14.1037   -6.6693 C   0  0  0  0  0  0  0  0  0  0  0  0
   39.5001   13.7697   -6.1065 O   0  0  0  0  0  0  0  0  0  0  0  0
   40.6157   14.9106   -7.7934 N   0  0  0  0  0  0  0  0  0  0  0  0
   41.6071   15.1214   -8.1654 H   0  0  0  0  0  0  0  0  0  0  0  0
   44.0899   12.4932   -4.9209 C   0  0  0  0  0  0  0  0  0  0  0  0
   44.0672   13.7856   -5.4223 C   0  0  0  0  0  0  0  0  0  0  0  0
   42.9517   14.3572   -6.0034 C   0  0  0  0  0  0  0  0  0  0  0  0
   41.8184   13.5964   -6.0812 C   0  0  0  0  0  0  0  0  0  0  0  0
   41.8249   12.3234   -5.5931 C   0  0  0  0  0  0  0  0  0  0  0  0
   42.9314   11.7253   -5.0046 C   0  0  0  0  0  0  0  0  0  0  0  0
   42.8803   10.3435   -4.4923 C   0  0  0  0  0  0  0  0  0  0  0  0
   43.6319   10.1243   -3.3610 F   0  0  0  0  0  0  0  0  0  0  0  0
   41.5568   10.0968   -4.0990 F   0  0  0  0  0  0  0  0  0  0  0  0
   43.1317    9.4001   -5.4712 F   0  0  0  0  0  0  0  0  0  0  0  0
   45.2767   11.8924   -4.3213 C   0  0  0  0  0  0  0  0  0  0  0  0
   47.9078   10.9085   -8.6850 C   0  0  0  0  0  0  0  0  0  0  0  0
   47.8210   11.8811   -7.6334 N   0  0  0  0  0  0  0  0  0  0  0  0
   48.3331   11.4177   -6.3727 C   0  0  0  0  0  0  0  0  0  0  0  0
   47.4534   11.9220   -5.2686 C   0  0  0  0  0  0  0  0  0  0  0  0
   46.1621   11.1926   -5.2284 N   0  0  0  0  0  0  0  0  0  0  0  0
   45.6798   11.2368   -6.5909 C   0  0  0  0  0  0  0  0  0  0  0  0
   46.4266   12.2315   -7.4392 C   0  0  0  0  0  0  0  0  0  0  0  0
   37.4395   14.4084  -11.3896 C   0  0  0  0  0  0  0  0  0  0  0  0
   36.3536   13.7595  -11.1632 O   0  0  0  0  0  0  0  0  0  0  0  0
   38.1066   14.2869  -12.6092 N   0  0  0  0  0  0  0  0  0  0  0  0
   39.0274   14.8035  -12.7336 H   0  0  0  0  0  0  0  0  0  0  0  0
   37.7285   13.4958  -13.7315 C   0  0  0  0  0  0  0  0  0  0  0  0
   36.4063   13.0215  -13.8180 C   0  0  0  0  0  0  0  0  0  0  0  0
   35.9479   12.2687  -14.8657 C   0  0  0  0  0  0  0  0  0  0  0  0
   36.8052   11.9464  -15.8984 C   0  0  0  0  0  0  0  0  0  0  0  0
   36.3113   11.1125  -17.0553 C   0  0  0  0  0  0  0  0  0  0  0  0
   38.0988   12.3976  -15.8364 C   0  0  0  0  0  0  0  0  0  0  0  0
   38.5592   13.1688  -14.7590 C   0  0  0  0  0  0  0  0  0  0  0  0
   39.0048   12.0868  -16.8629 N   0  0  0  0  0  0  0  0  0  0  0  0
   38.7967   11.0483  -17.8435 C   0  0  0  0  0  0  0  0  0  0  0  0
   39.6563   11.4341  -19.0602 C   0  0  0  0  0  0  0  0  0  0  0  0
   40.9944   11.4914  -18.7659 O   0  0  0  0  0  0  0  0  0  0  0  0
   41.3053   11.8671  -17.4766 C   0  0  0  0  0  0  0  0  0  0  0  0
   40.2500   12.8379  -16.9940 C   0  0  0  0  0  0  0  0  0  0  0  0
 23 24  1  0  0  0
 24 25  1  0  0  0
 25 26  1  0  0  0
 26 27  1  0  0  0
 27 22  1  0  0  0
 22 12  1  0  0  0
 12 13  2  0  0  0
 13 14  1  0  0  0
 14 15  2  0  0  0
 15 16  1  0  0  0
 16 17  2  0  0  0
 17 18  1  0  0  0
 18 19  1  0  0  0
 18 20  1  0  0  0
 18 21  1  0  0  0
 15  8  1  0  0  0
  8  9  2  0  0  0
  8 10  1  0  0  0
 10  1  1  0  0  0
  1  2  2  0  0  0
  2  3  1  0  0  0
  3  4  2  0  0  0
  4  5  1  0  0  0
  4  6  1  0  0  0
  6  7  2  0  0  0
  6 30  1  0  0  0
 30 31  2  0  0  0
 30 32  1  0  0  0
 32 34  1  0  0  0
 34 35  2  0  0  0
 35 36  1  0  0  0
 36 37  2  0  0  0
 37 38  1  0  0  0
 37 39  1  0  0  0
 39 40  2  0  0  0
 39 41  1  0  0  0
 41 42  1  0  0  0
 42 43  1  0  0  0
 43 44  1  0  0  0
 44 45  1  0  0  0
 45 46  1  0  0  0
 27 28  1  0  0  0
 28 29  1  0  0  0
 29 24  1  0  0  0
 17 12  1  0  0  0
  7  1  1  0  0  0
 40 34  1  0  0  0
 46 41  1  0  0  0
 10 11  1  0  0  0
 32 33  1  0  0  0
M  END
> <minimizedAffinity>
-8.92041

> <CNNscore>
0.1564531773

> <CNNaffinity>
6.2535877228

> <CNN_VS>
0.9783936739

> <CNNaffinity_variance>
0.1502628475

$$$$
[H]c1c([H])c(C([H])([H])N2C([H])([H])C([H])([H])N(C([H])([H])[H])C([H])([H])C2([H])[H])c(C(F)(F)F)c([H])c1C(=O)N([H])c1c([H])c([H])c(C([H])([H])[H])c(C(=O)N([H])c2c([H])c([H])c(C([H])([H])[H])c(N3C([H])([H])C([H])([H])OC([H])([H])C3([H])[H])c2[H])c1[H]


 46 50  0  0  0  0  0  0  0  0999 V2000
   38.8550   12.0641  -15.6914 C   0  0  0  0  0  0  0  0  0  0  0  0
   38.2289   11.4820  -16.7519 C   0  0  0  0  0  0  0  0  0  0  0  0
   36.8666   11.3801  -16.8376 C   0  0  0  0  0  0  0  0  0  0  0  0
   36.0446   11.8803  -15.8177 C   0  0  0  0  0  0  0  0  0  0  0  0
   34.5929   11.7864  -15.9978 C   0  0  0  0  0  0  0  0  0  0  0  0
   36.6397   12.4637  -14.7479 C   0  0  0  0  0  0  0  0  0  0  0  0
   38.0215   12.5563  -14.6846 C   0  0  0  0  0  0  0  0  0  0  0  0
   41.0858   13.0664  -16.2447 C   0  0  0  0  0  0  0  0  0  0  0  0
   40.6859   13.8357  -17.1372 O   0  0  0  0  0  0  0  0  0  0  0  0
   40.2607   12.2115  -15.5332 N   0  0  0  0  0  0  0  0  0  0  0  0
   40.7526   11.5972  -14.7940 H   0  0  0  0  0  0  0  0  0  0  0  0
   45.2302   13.2783  -15.2959 C   0  0  0  0  0  0  0  0  0  0  0  0
   44.7427   12.3012  -16.1502 C   0  0  0  0  0  0  0  0  0  0  0  0
   43.4086   12.1831  -16.4891 C   0  0  0  0  0  0  0  0  0  0  0  0
   42.5353   13.0837  -15.9457 C   0  0  0  0  0  0  0  0  0  0  0  0
   42.9991   14.0503  -15.1035 C   0  0  0  0  0  0  0  0  0  0  0  0
   44.3337   14.1913  -14.7468 C   0  0  0  0  0  0  0  0  0  0  0  0
   44.7792   15.2580  -13.8311 C   0  0  0  0  0  0  0  0  0  0  0  0
   45.4368   16.3000  -14.4431 F   0  0  0  0  0  0  0  0  0  0  0  0
   43.6272   15.8349  -13.2767 F   0  0  0  0  0  0  0  0  0  0  0  0
   45.4801   14.7714  -12.7433 F   0  0  0  0  0  0  0  0  0  0  0  0
   46.6392   13.3874  -14.9323 C   0  0  0  0  0  0  0  0  0  0  0  0
   49.2038   10.9027  -11.1665 C   0  0  0  0  0  0  0  0  0  0  0  0
   48.0503   11.7326  -11.3666 N   0  0  0  0  0  0  0  0  0  0  0  0
   46.9733   11.0713  -12.0515 C   0  0  0  0  0  0  0  0  0  0  0  0
   46.3330   12.0330  -13.0066 C   0  0  0  0  0  0  0  0  0  0  0  0
   47.1925   12.2729  -14.1919 N   0  0  0  0  0  0  0  0  0  0  0  0
   48.4910   12.5870  -13.6387 C   0  0  0  0  0  0  0  0  0  0  0  0
   48.4378   12.8816  -12.1632 C   0  0  0  0  0  0  0  0  0  0  0  0
   35.9109   12.9538  -13.5834 C   0  0  0  0  0  0  0  0  0  0  0  0
   35.7765   12.0746  -12.6558 O   0  0  0  0  0  0  0  0  0  0  0  0
   35.3833   14.2373  -13.4369 N   0  0  0  0  0  0  0  0  0  0  0  0
   35.4751   14.9157  -14.2502 H   0  0  0  0  0  0  0  0  0  0  0  0
   34.6700   14.7614  -12.3212 C   0  0  0  0  0  0  0  0  0  0  0  0
   33.2777   14.9388  -12.4232 C   0  0  0  0  0  0  0  0  0  0  0  0
   32.5072   15.4205  -11.3990 C   0  0  0  0  0  0  0  0  0  0  0  0
   33.1021   15.7554  -10.1993 C   0  0  0  0  0  0  0  0  0  0  0  0
   32.2625   16.2923   -9.0660 C   0  0  0  0  0  0  0  0  0  0  0  0
   34.4580   15.5909  -10.0760 C   0  0  0  0  0  0  0  0  0  0  0  0
   35.2391   15.0962  -11.1309 C   0  0  0  0  0  0  0  0  0  0  0  0
   35.1033   15.9256   -8.8749 N   0  0  0  0  0  0  0  0  0  0  0  0
   35.6397   17.2321   -8.5773 C   0  0  0  0  0  0  0  0  0  0  0  0
   35.6870   17.3328   -7.0424 C   0  0  0  0  0  0  0  0  0  0  0  0
   36.5039   16.3887   -6.4752 O   0  0  0  0  0  0  0  0  0  0  0  0
   36.5908   15.1914   -7.1529 C   0  0  0  0  0  0  0  0  0  0  0  0
   35.2615   14.9243   -7.8239 C   0  0  0  0  0  0  0  0  0  0  0  0
 23 24  1  0  0  0
 24 25  1  0  0  0
 25 26  1  0  0  0
 26 27  1  0  0  0
 27 22  1  0  0  0
 22 12  1  0  0  0
 12 13  2  0  0  0
 13 14  1  0  0  0
 14 15  2  0  0  0
 15 16  1  0  0  0
 16 17  2  0  0  0
 17 18  1  0  0  0
 18 19  1  0  0  0
 18 20  1  0  0  0
 18 21  1  0  0  0
 15  8  1  0  0  0
  8  9  2  0  0  0
  8 10  1  0  0  0
 10  1  1  0  0  0
  1  2  2  0  0  0
  2  3  1  0  0  0
  3  4  2  0  0  0
  4  5  1  0  0  0
  4  6  1  0  0  0
  6  7  2  0  0  0
  6 30  1  0  0  0
 30 31  2  0  0  0
 30 32  1  0  0  0
 32 34  1  0  0  0
 34 35  2  0  0  0
 35 36  1  0  0  0
 36 37  2  0  0  0
 37 38  1  0  0  0
 37 39  1  0  0  0
 39 40  2  0  0  0
 39 41  1  0  0  0
 41 42  1  0  0  0
 42 43  1  0  0  0
 43 44  1  0  0  0
 44 45  1  0  0  0
 45 46  1  0  0  0
 27 28  1  0  0  0
 28 29  1  0  0  0
 29 24  1  0  0  0
 17 12  1  0  0  0
  7  1  1  0  0  0
 40 34  1  0  0  0
 46 41  1  0  0  0
 10 11  1  0  0  0
 32 33  1  0  0  0
M  END
> <minimizedAffinity>
-9.63505

> <CNNscore>
0.1550394148

> <CNNaffinity>
6.4999175072

> <CNN_VS>
1.0077433586

> <CNNaffinity_variance>
0.1860411465

$$$$
[H]c1c([H])c(C([H])([H])N2C([H])([H])C([H])([H])N(C([H])([H])[H])C([H])([H])C2([H])[H])c(C(F)(F)F)c([H])c1C(=O)N([H])c1c([H])c([H])c(C([H])([H])[H])c(C(=O)N([H])c2c([H])c([H])c(C([H])([H])[H])c(N3C([H])([H])C([H])([H])OC([H])([H])C3([H])[H])c2[H])c1[H]


 46 50  0  0  0  0  0  0  0  0999 V2000
   40.8941   16.2843  -10.6110 C   0  0  0  0  0  0  0  0  0  0  0  0
   42.2549   16.2362  -10.5728 C   0  0  0  0  0  0  0  0  0  0  0  0
   43.0012   15.6935  -11.5838 C   0  0  0  0  0  0  0  0  0  0  0  0
   42.3835   15.1547  -12.7214 C   0  0  0  0  0  0  0  0  0  0  0  0
   43.2437   14.6382  -13.7900 C   0  0  0  0  0  0  0  0  0  0  0  0
   41.0294   15.1865  -12.7868 C   0  0  0  0  0  0  0  0  0  0  0  0
   40.2952   15.7428  -11.7507 C   0  0  0  0  0  0  0  0  0  0  0  0
   39.5559   16.1750   -8.4934 C   0  0  0  0  0  0  0  0  0  0  0  0
   39.7939   14.9828   -8.2284 O   0  0  0  0  0  0  0  0  0  0  0  0
   40.0522   16.8345   -9.6054 N   0  0  0  0  0  0  0  0  0  0  0  0
   39.7531   17.8669   -9.7069 H   0  0  0  0  0  0  0  0  0  0  0  0
   37.0572   18.4350   -5.8914 C   0  0  0  0  0  0  0  0  0  0  0  0
   37.5674   17.2062   -5.5017 C   0  0  0  0  0  0  0  0  0  0  0  0
   38.3787   16.4292   -6.3059 C   0  0  0  0  0  0  0  0  0  0  0  0
   38.6857   16.9101   -7.5483 C   0  0  0  0  0  0  0  0  0  0  0  0
   38.1912   18.1167   -7.9464 C   0  0  0  0  0  0  0  0  0  0  0  0
   37.3745   18.9170   -7.1586 C   0  0  0  0  0  0  0  0  0  0  0  0
   36.8692   20.2155   -7.6415 C   0  0  0  0  0  0  0  0  0  0  0  0
   37.3101   21.3038   -6.9245 F   0  0  0  0  0  0  0  0  0  0  0  0
   37.3810   20.4039   -8.9336 F   0  0  0  0  0  0  0  0  0  0  0  0
   35.4968   20.2272   -7.8080 F   0  0  0  0  0  0  0  0  0  0  0  0
   36.1894   19.2430   -5.0408 C   0  0  0  0  0  0  0  0  0  0  0  0
   31.3555   18.3781   -3.3623 C   0  0  0  0  0  0  0  0  0  0  0  0
   32.0948   18.5615   -4.5784 N   0  0  0  0  0  0  0  0  0  0  0  0
   32.9423   17.4499   -4.9138 C   0  0  0  0  0  0  0  0  0  0  0  0
   34.2345   17.9664   -5.4711 C   0  0  0  0  0  0  0  0  0  0  0  0
   35.0915   18.5438   -4.4065 N   0  0  0  0  0  0  0  0  0  0  0  0
   34.2192   19.4491   -3.6920 C   0  0  0  0  0  0  0  0  0  0  0  0
   32.9408   19.7314   -4.4354 C   0  0  0  0  0  0  0  0  0  0  0  0
   40.2570   14.5924  -13.8721 C   0  0  0  0  0  0  0  0  0  0  0  0
   39.6254   15.4561  -14.5839 O   0  0  0  0  0  0  0  0  0  0  0  0
   40.1696   13.2287  -14.1545 N   0  0  0  0  0  0  0  0  0  0  0  0
   40.6688   12.5474  -13.5089 H   0  0  0  0  0  0  0  0  0  0  0  0
   39.4342   12.6035  -15.2016 C   0  0  0  0  0  0  0  0  0  0  0  0
   40.1164   12.1838  -16.3587 C   0  0  0  0  0  0  0  0  0  0  0  0
   39.4969   11.5603  -17.4085 C   0  0  0  0  0  0  0  0  0  0  0  0
   38.1386   11.3212  -17.3525 C   0  0  0  0  0  0  0  0  0  0  0  0
   37.4452   10.6395  -18.5066 C   0  0  0  0  0  0  0  0  0  0  0  0
   37.4521   11.7210  -16.2345 C   0  0  0  0  0  0  0  0  0  0  0  0
   38.0957   12.3588  -15.1637 C   0  0  0  0  0  0  0  0  0  0  0  0
   36.0685   11.5027  -16.1401 N   0  0  0  0  0  0  0  0  0  0  0  0
   35.2448   11.0278  -17.2260 C   0  0  0  0  0  0  0  0  0  0  0  0
   34.0135   10.3763  -16.5722 C   0  0  0  0  0  0  0  0  0  0  0  0
   33.2796   11.2624  -15.8262 O   0  0  0  0  0  0  0  0  0  0  0  0
   33.9972   12.2781  -15.2315 C   0  0  0  0  0  0  0  0  0  0  0  0
   35.3714   11.7509  -14.8814 C   0  0  0  0  0  0  0  0  0  0  0  0
 23 24  1  0  0  0
 24 25  1  0  0  0
 25 26  1  0  0  0
 26 27  1  0  0  0
 27 22  1  0  0  0
 22 12  1  0  0  0
 12 13  2  0  0  0
 13 14  1  0  0  0
 14 15  2  0  0  0
 15 16  1  0  0  0
 16 17  2  0  0  0
 17 18  1  0  0  0
 18 19  1  0  0  0
 18 20  1  0  0  0
 18 21  1  0  0  0
 15  8  1  0  0  0
  8  9  2  0  0  0
  8 10  1  0  0  0
 10  1  1  0  0  0
  1  2  2  0  0  0
  2  3  1  0  0  0
  3  4  2  0  0  0
  4  5  1  0  0  0
  4  6  1  0  0  0
  6  7  2  0  0  0
  6 30  1  0  0  0
 30 31  2  0  0  0
 30 32  1  0  0  0
 32 34  1  0  0  0
 34 35  2  0  0  0
 35 36  1  0  0  0
 36 37  2  0  0  0
 37 38  1  0  0  0
 37 39  1  0  0  0
 39 40  2  0  0  0
 39 41  1  0  0  0
 41 42  1  0  0  0
 42 43  1  0  0  0
 43 44  1  0  0  0
 44 45  1  0  0  0
 45 46  1  0  0  0
 27 28  1  0  0  0
 28 29  1  0  0  0
 29 24  1  0  0  0
 17 12  1  0  0  0
  7  1  1  0  0  0
 40 34  1  0  0  0
 46 41  1  0  0  0
 10 11  1  0  0  0
 32 33  1  0  0  0
M  END
> <minimizedAffinity>
-9.13615

> <CNNscore>
0.1482859254

> <CNNaffinity>
6.5008759499

> <CNN_VS>
0.9639884233

> <CNNaffinity_variance>
0.3100629151

$$$$
[H]c1c([H])c(C([H])([H])N2C([H])([H])C([H])([H])N(C([H])([H])[H])C([H])([H])C2([H])[H])c(C(F)(F)F)c([H])c1C(=O)N([H])c1c([H])c([H])c(C([H])([H])[H])c(C(=O)N([H])c2c([H])c([H])c(C([H])([H])[H])c(N3C([H])([H])C([H])([H])OC([H])([H])C3([H])[H])c2[H])c1[H]


 46 50  0  0  0  0  0  0  0  0999 V2000
   39.1007   12.9009  -14.5791 C   0  0  0  0  0  0  0  0  0  0  0  0
   38.7177   12.3029  -15.7416 C   0  0  0  0  0  0  0  0  0  0  0  0
   37.4047   12.0770  -16.0558 C   0  0  0  0  0  0  0  0  0  0  0  0
   36.3811   12.4594  -15.1771 C   0  0  0  0  0  0  0  0  0  0  0  0
   34.9952   12.2366  -15.5991 C   0  0  0  0  0  0  0  0  0  0  0  0
   36.7320   13.0554  -14.0106 C   0  0  0  0  0  0  0  0  0  0  0  0
   38.0687   13.2747  -13.7154 C   0  0  0  0  0  0  0  0  0  0  0  0
   40.9559   14.4030  -13.8118 C   0  0  0  0  0  0  0  0  0  0  0  0
   40.2902   15.4535  -13.7728 O   0  0  0  0  0  0  0  0  0  0  0  0
   40.4398   13.1733  -14.1852 N   0  0  0  0  0  0  0  0  0  0  0  0
   41.1408   12.3523  -14.1782 H   0  0  0  0  0  0  0  0  0  0  0  0
   45.0151   14.8118  -12.5965 C   0  0  0  0  0  0  0  0  0  0  0  0
   44.6754   14.0543  -13.7069 C   0  0  0  0  0  0  0  0  0  0  0  0
   43.3758   13.8840  -14.1436 C   0  0  0  0  0  0  0  0  0  0  0  0
   42.3835   14.5006  -13.4335 C   0  0  0  0  0  0  0  0  0  0  0  0
   42.7014   15.2486  -12.3389 C   0  0  0  0  0  0  0  0  0  0  0  0
   43.9981   15.4360  -11.8790 C   0  0  0  0  0  0  0  0  0  0  0  0
   44.2834   16.2579  -10.6882 C   0  0  0  0  0  0  0  0  0  0  0  0
   43.1680   16.6660   -9.9939 F   0  0  0  0  0  0  0  0  0  0  0  0
   44.9924   15.4494   -9.7878 F   0  0  0  0  0  0  0  0  0  0  0  0
   45.1394   17.3098  -10.9565 F   0  0  0  0  0  0  0  0  0  0  0  0
   46.3894   14.9750  -12.1340 C   0  0  0  0  0  0  0  0  0  0  0  0
   49.3671   11.4972   -9.6906 C   0  0  0  0  0  0  0  0  0  0  0  0
   48.0780   12.1204   -9.5956 N   0  0  0  0  0  0  0  0  0  0  0  0
   47.1476   11.6817  -10.5997 C   0  0  0  0  0  0  0  0  0  0  0  0
   46.3395   12.8542  -11.0682 C   0  0  0  0  0  0  0  0  0  0  0  0
   47.1415   13.7542  -11.9330 N   0  0  0  0  0  0  0  0  0  0  0  0
   48.3555   13.9884  -11.1831 C   0  0  0  0  0  0  0  0  0  0  0  0
   48.2432   13.5539   -9.7460 C   0  0  0  0  0  0  0  0  0  0  0  0
   35.7771   13.4309  -12.9739 C   0  0  0  0  0  0  0  0  0  0  0  0
   35.3790   12.4390  -12.2605 O   0  0  0  0  0  0  0  0  0  0  0  0
   35.3018   14.7213  -12.7370 N   0  0  0  0  0  0  0  0  0  0  0  0
   35.6205   15.5024  -13.3838 H   0  0  0  0  0  0  0  0  0  0  0  0
   34.3755   15.1363  -11.7380 C   0  0  0  0  0  0  0  0  0  0  0  0
   33.0088   15.2145  -12.0645 C   0  0  0  0  0  0  0  0  0  0  0  0
   32.0446   15.5873  -11.1668 C   0  0  0  0  0  0  0  0  0  0  0  0
   32.4060   15.9069   -9.8735 C   0  0  0  0  0  0  0  0  0  0  0  0
   31.3516   16.3243   -8.8778 C   0  0  0  0  0  0  0  0  0  0  0  0
   33.7323   15.8377   -9.5315 C   0  0  0  0  0  0  0  0  0  0  0  0
   34.7131   15.4542  -10.4582 C   0  0  0  0  0  0  0  0  0  0  0  0
   34.1431   16.1606   -8.2285 N   0  0  0  0  0  0  0  0  0  0  0  0
   34.6747   17.4447   -7.8388 C   0  0  0  0  0  0  0  0  0  0  0  0
   34.4223   17.5679   -6.3257 C   0  0  0  0  0  0  0  0  0  0  0  0
   35.0625   16.5952   -5.6016 O   0  0  0  0  0  0  0  0  0  0  0  0
   35.2219   15.3843   -6.2409 C   0  0  0  0  0  0  0  0  0  0  0  0
   34.0400   15.1701   -7.1606 C   0  0  0  0  0  0  0  0  0  0  0  0
 23 24  1  0  0  0
 24 25  1  0  0  0
 25 26  1  0  0  0
 26 27  1  0  0  0
 27 22  1  0  0  0
 22 12  1  0  0  0
 12 13  2  0  0  0
 13 14  1  0  0  0
 14 15  2  0  0  0
 15 16  1  0  0  0
 16 17  2  0  0  0
 17 18  1  0  0  0
 18 19  1  0  0  0
 18 20  1  0  0  0
 18 21  1  0  0  0
 15  8  1  0  0  0
  8  9  2  0  0  0
  8 10  1  0  0  0
 10  1  1  0  0  0
  1  2  2  0  0  0
  2  3  1  0  0  0
  3  4  2  0  0  0
  4  5  1  0  0  0
  4  6  1  0  0  0
  6  7  2  0  0  0
  6 30  1  0  0  0
 30 31  2  0  0  0
 30 32  1  0  0  0
 32 34  1  0  0  0
 34 35  2  0  0  0
 35 36  1  0  0  0
 36 37  2  0  0  0
 37 38  1  0  0  0
 37 39  1  0  0  0
 39 40  2  0  0  0
 39 41  1  0  0  0
 41 42  1  0  0  0
 42 43  1  0  0  0
 43 44  1  0  0  0
 44 45  1  0  0  0
 45 46  1  0  0  0
 27 28  1  0  0  0
 28 29  1  0  0  0
 29 24  1  0  0  0
 17 12  1  0  0  0
  7  1  1  0  0  0
 40 34  1  0  0  0
 46 41  1  0  0  0
 10 11  1  0  0  0
 32 33  1  0  0  0
M  END
> <minimizedAffinity>
-8.51989

> <CNNscore>
0.1436017603

> <CNNaffinity>
6.2020444870

> <CNN_VS>
0.8906245232

> <CNNaffinity_variance>
0.3030987680

$$$$
