[H]c1c([H])c([H])c2c(c1[H])C(=O)N(C1([H])C([H])([H])C([H])([H])N(C(=O)c3c([H])c(OC([H])([H])[H])c(OC([H])([H])[H])c(OC([H])([H])[H])c3[H])C([H])([H])C1([H])[H])C2=O
     RDKit          3D

 55 58  0  0  0  0  0  0  0  0999 V2000
   -3.5661    2.4505    1.9038 C   0  0  0  0  0  0  0  0  0  0  0  0
   -4.6417    1.7047    1.3787 O   0  0  0  0  0  0  0  0  0  0  0  0
   -4.3432    0.5665    0.6431 C   0  0  0  0  0  0  0  0  0  0  0  0
   -3.0065    0.1720    0.4301 C   0  0  0  0  0  0  0  0  0  0  0  0
   -2.6902   -0.9435   -0.2895 C   0  0  0  0  0  0  0  0  0  0  0  0
   -3.7949   -1.6572   -0.7949 C   0  0  0  0  0  0  0  0  0  0  0  0
   -5.0952   -1.2721   -0.5871 C   0  0  0  0  0  0  0  0  0  0  0  0
   -6.1658   -2.0001   -1.1006 O   0  0  0  0  0  0  0  0  0  0  0  0
   -6.0317   -3.1664   -1.8602 C   0  0  0  0  0  0  0  0  0  0  0  0
   -5.3982   -0.1472    0.1397 C   0  0  0  0  0  0  0  0  0  0  0  0
   -6.7051    0.2616    0.3631 O   0  0  0  0  0  0  0  0  0  0  0  0
   -7.4104    1.1279   -0.4806 C   0  0  0  0  0  0  0  0  0  0  0  0
   -1.3584   -1.4339   -0.5505 C   0  0  0  0  0  0  0  0  0  0  0  0
   -1.2973   -2.5074   -1.3123 O   0  0  0  0  0  0  0  0  0  0  0  0
   -0.1068   -0.9901   -0.1497 N   0  0  0  0  0  0  0  0  0  0  0  0
    1.0899   -1.7372   -0.6200 C   0  0  0  0  0  0  0  0  0  0  0  0
    2.0978   -0.7904   -1.2530 C   0  0  0  0  0  0  0  0  0  0  0  0
    2.4268    0.3437   -0.2949 C   0  0  0  0  0  0  0  0  0  0  0  0
    1.7168    0.0748    0.9912 C   0  0  0  0  0  0  0  0  0  0  0  0
    0.2074    0.1254    0.6952 C   0  0  0  0  0  0  0  0  0  0  0  0
    3.8396    0.5422   -0.1484 N   0  0  0  0  0  0  0  0  0  0  0  0
    4.5783    1.7042   -0.5023 C   0  0  0  0  0  0  0  0  0  0  0  0
    4.1401    2.7898   -1.0142 O   0  0  0  0  0  0  0  0  0  0  0  0
    5.9881    1.5150   -0.1986 C   0  0  0  0  0  0  0  0  0  0  0  0
    7.1024    2.3463   -0.3575 C   0  0  0  0  0  0  0  0  0  0  0  0
    8.3140    1.8316    0.0466 C   0  0  0  0  0  0  0  0  0  0  0  0
    8.4205    0.5746    0.5750 C   0  0  0  0  0  0  0  0  0  0  0  0
    7.3266   -0.2313    0.7269 C   0  0  0  0  0  0  0  0  0  0  0  0
    6.0896    0.2533    0.3309 C   0  0  0  0  0  0  0  0  0  0  0  0
    4.7965   -0.3684    0.3758 C   0  0  0  0  0  0  0  0  0  0  0  0
    4.5132   -1.5129    0.7957 O   0  0  0  0  0  0  0  0  0  0  0  0
   -2.9290    1.8030    2.5404 H   0  0  0  0  0  0  0  0  0  0  0  0
   -2.9189    2.8094    1.0819 H   0  0  0  0  0  0  0  0  0  0  0  0
   -3.9462    3.3210    2.4843 H   0  0  0  0  0  0  0  0  0  0  0  0
   -2.2345    0.7936    0.8546 H   0  0  0  0  0  0  0  0  0  0  0  0
   -3.5808   -2.5404   -1.3659 H   0  0  0  0  0  0  0  0  0  0  0  0
   -5.7928   -2.8939   -2.9169 H   0  0  0  0  0  0  0  0  0  0  0  0
   -6.9787   -3.7425   -1.7776 H   0  0  0  0  0  0  0  0  0  0  0  0
   -5.2061   -3.7704   -1.4520 H   0  0  0  0  0  0  0  0  0  0  0  0
   -8.1614    0.5875   -1.0738 H   0  0  0  0  0  0  0  0  0  0  0  0
   -7.9529    1.9159    0.1027 H   0  0  0  0  0  0  0  0  0  0  0  0
   -6.6454    1.6059   -1.1570 H   0  0  0  0  0  0  0  0  0  0  0  0
    0.7344   -2.3779   -1.4662 H   0  0  0  0  0  0  0  0  0  0  0  0
    1.5218   -2.3660    0.1580 H   0  0  0  0  0  0  0  0  0  0  0  0
    2.9710   -1.3936   -1.5104 H   0  0  0  0  0  0  0  0  0  0  0  0
    1.6406   -0.4245   -2.1954 H   0  0  0  0  0  0  0  0  0  0  0  0
    1.9883    1.2603   -0.7381 H   0  0  0  0  0  0  0  0  0  0  0  0
    1.8771    0.9333    1.6828 H   0  0  0  0  0  0  0  0  0  0  0  0
    1.8987   -0.8930    1.4571 H   0  0  0  0  0  0  0  0  0  0  0  0
   -0.2708   -0.0199    1.6955 H   0  0  0  0  0  0  0  0  0  0  0  0
   -0.0322    1.0999    0.2227 H   0  0  0  0  0  0  0  0  0  0  0  0
    6.9932    3.3363   -0.7778 H   0  0  0  0  0  0  0  0  0  0  0  0
    9.2206    2.4145   -0.0447 H   0  0  0  0  0  0  0  0  0  0  0  0
    9.3817    0.1568    0.8995 H   0  0  0  0  0  0  0  0  0  0  0  0
    7.3862   -1.2418    1.1474 H   0  0  0  0  0  0  0  0  0  0  0  0
  1  2  1  0
  2  3  1  0
  3  4  2  0
  4  5  1  0
  5  6  2  0
  6  7  1  0
  7  8  1  0
  8  9  1  0
  7 10  2  0
 10 11  1  0
 11 12  1  0
  5 13  1  0
 13 14  2  0
 13 15  1  0
 15 16  1  0
 16 17  1  0
 17 18  1  0
 18 19  1  0
 19 20  1  0
 18 21  1  0
 21 22  1  0
 22 23  2  0
 22 24  1  0
 24 25  2  0
 25 26  1  0
 26 27  2  0
 27 28  1  0
 28 29  2  0
 29 30  1  0
 30 31  2  0
 10  3  1  0
 20 15  1  0
 30 21  1  0
 29 24  1  0
  1 32  1  0
  1 33  1  0
  1 34  1  0
  4 35  1  0
  6 36  1  0
  9 37  1  0
  9 38  1  0
  9 39  1  0
 12 40  1  0
 12 41  1  0
 12 42  1  0
 16 43  1  0
 16 44  1  0
 17 45  1  0
 17 46  1  0
 18 47  1  0
 19 48  1  0
 19 49  1  0
 20 50  1  0
 20 51  1  0
 25 52  1  0
 26 53  1  0
 27 54  1  0
 28 55  1  0
M  END
$$$$
[H]c1sc(N([H])C(=O)c2c([H])c([H])c(C(C([H])([H])[H])(C([H])([H])[H])C([H])([H])[H])c([H])c2[H])nc1-c1c([H])c([H])c(C(C([H])([H])[H])(C([H])([H])[H])C([H])([H])[H])c([H])c1[H]
     RDKit          3D

 56 58  0  0  0  0  0  0  0  0999 V2000
   -7.5395    1.3580    1.2657 C   0  0  0  0  0  0  0  0  0  0  0  0
   -7.2216    0.5578    0.0036 C   0  0  0  0  0  0  0  0  0  0  0  0
   -7.0875    1.5890   -1.0989 C   0  0  0  0  0  0  0  0  0  0  0  0
   -8.3871   -0.3506   -0.2614 C   0  0  0  0  0  0  0  0  0  0  0  0
   -5.9337   -0.1552    0.1083 C   0  0  0  0  0  0  0  0  0  0  0  0
   -5.6276   -0.8999    1.2394 C   0  0  0  0  0  0  0  0  0  0  0  0
   -4.4518   -1.5913    1.3658 C   0  0  0  0  0  0  0  0  0  0  0  0
   -3.4784   -1.5747    0.3249 C   0  0  0  0  0  0  0  0  0  0  0  0
   -3.7940   -0.8371   -0.7803 C   0  0  0  0  0  0  0  0  0  0  0  0
   -4.9913   -0.1350   -0.9025 C   0  0  0  0  0  0  0  0  0  0  0  0
   -2.3158   -2.3820    0.5568 C   0  0  0  0  0  0  0  0  0  0  0  0
   -2.6398   -3.6275    0.9650 O   0  0  0  0  0  0  0  0  0  0  0  0
   -0.9625   -2.1991    0.4641 N   0  0  0  0  0  0  0  0  0  0  0  0
   -0.2528   -1.0332    0.0582 C   0  0  0  0  0  0  0  0  0  0  0  0
    1.1115   -0.9835    0.0237 N   0  0  0  0  0  0  0  0  0  0  0  0
    1.6993    0.0714   -0.3859 C   0  0  0  0  0  0  0  0  0  0  0  0
    0.9180    1.1388   -0.7812 C   0  0  0  0  0  0  0  0  0  0  0  0
   -0.6390    0.5077   -0.5193 S   0  0  0  0  0  0  0  0  0  0  0  0
    3.1929    0.1702   -0.4134 C   0  0  0  0  0  0  0  0  0  0  0  0
    3.8060    1.1871   -1.0838 C   0  0  0  0  0  0  0  0  0  0  0  0
    5.1973    1.2793   -1.0633 C   0  0  0  0  0  0  0  0  0  0  0  0
    5.9632    0.3643   -0.3838 C   0  0  0  0  0  0  0  0  0  0  0  0
    5.3301   -0.6915    0.3100 C   0  0  0  0  0  0  0  0  0  0  0  0
    3.9708   -0.7464    0.2703 C   0  0  0  0  0  0  0  0  0  0  0  0
    7.4346    0.3494   -0.3038 C   0  0  0  0  0  0  0  0  0  0  0  0
    7.9100    0.4118    1.1558 C   0  0  0  0  0  0  0  0  0  0  0  0
    7.9010   -0.9931   -0.8275 C   0  0  0  0  0  0  0  0  0  0  0  0
    8.0579    1.4808   -1.0640 C   0  0  0  0  0  0  0  0  0  0  0  0
   -6.8067    2.1542    1.3897 H   0  0  0  0  0  0  0  0  0  0  0  0
   -7.5466    0.6829    2.1183 H   0  0  0  0  0  0  0  0  0  0  0  0
   -8.5755    1.7603    1.1558 H   0  0  0  0  0  0  0  0  0  0  0  0
   -7.9544    2.2612   -1.0559 H   0  0  0  0  0  0  0  0  0  0  0  0
   -7.0460    1.0935   -2.1076 H   0  0  0  0  0  0  0  0  0  0  0  0
   -6.1305    2.1301   -0.9438 H   0  0  0  0  0  0  0  0  0  0  0  0
   -8.5335   -0.5859   -1.3447 H   0  0  0  0  0  0  0  0  0  0  0  0
   -9.3107    0.1909    0.0884 H   0  0  0  0  0  0  0  0  0  0  0  0
   -8.3081   -1.2575    0.3636 H   0  0  0  0  0  0  0  0  0  0  0  0
   -6.3830   -0.9263    2.0356 H   0  0  0  0  0  0  0  0  0  0  0  0
   -4.2270   -2.1837    2.2601 H   0  0  0  0  0  0  0  0  0  0  0  0
   -3.0854   -0.8324   -1.6170 H   0  0  0  0  0  0  0  0  0  0  0  0
   -5.1628    0.4302   -1.8155 H   0  0  0  0  0  0  0  0  0  0  0  0
   -0.3168   -3.0624    0.7286 H   0  0  0  0  0  0  0  0  0  0  0  0
    1.2480    2.1252   -1.1537 H   0  0  0  0  0  0  0  0  0  0  0  0
    3.1924    1.9034   -1.6264 H   0  0  0  0  0  0  0  0  0  0  0  0
    5.6552    2.0724   -1.5971 H   0  0  0  0  0  0  0  0  0  0  0  0
    5.8897   -1.4210    0.8487 H   0  0  0  0  0  0  0  0  0  0  0  0
    3.4481   -1.5479    0.7907 H   0  0  0  0  0  0  0  0  0  0  0  0
    8.8792    0.9780    1.1953 H   0  0  0  0  0  0  0  0  0  0  0  0
    8.0750   -0.5901    1.5819 H   0  0  0  0  0  0  0  0  0  0  0  0
    7.1651    0.9523    1.7357 H   0  0  0  0  0  0  0  0  0  0  0  0
    8.7220   -0.8041   -1.5538 H   0  0  0  0  0  0  0  0  0  0  0  0
    8.2599   -1.6511   -0.0343 H   0  0  0  0  0  0  0  0  0  0  0  0
    7.0670   -1.5078   -1.3804 H   0  0  0  0  0  0  0  0  0  0  0  0
    7.4698    2.3981   -0.8566 H   0  0  0  0  0  0  0  0  0  0  0  0
    8.0266    1.3114   -2.1729 H   0  0  0  0  0  0  0  0  0  0  0  0
    9.1185    1.6603   -0.7283 H   0  0  0  0  0  0  0  0  0  0  0  0
  1  2  1  0
  2  3  1  0
  2  4  1  0
  2  5  1  0
  5  6  2  0
  6  7  1  0
  7  8  2  0
  8  9  1  0
  9 10  2  0
  8 11  1  0
 11 12  2  0
 11 13  1  0
 13 14  1  0
 14 15  2  0
 15 16  1  0
 16 17  2  0
 17 18  1  0
 16 19  1  0
 19 20  2  0
 20 21  1  0
 21 22  2  0
 22 23  1  0
 23 24  2  0
 22 25  1  0
 25 26  1  0
 25 27  1  0
 25 28  1  0
 10  5  1  0
 18 14  1  0
 24 19  1  0
  1 29  1  0
  1 30  1  0
  1 31  1  0
  3 32  1  0
  3 33  1  0
  3 34  1  0
  4 35  1  0
  4 36  1  0
  4 37  1  0
  6 38  1  0
  7 39  1  0
  9 40  1  0
 10 41  1  0
 13 42  1  0
 17 43  1  0
 20 44  1  0
 21 45  1  0
 23 46  1  0
 24 47  1  0
 26 48  1  0
 26 49  1  0
 26 50  1  0
 27 51  1  0
 27 52  1  0
 27 53  1  0
 28 54  1  0
 28 55  1  0
 28 56  1  0
M  END
$$$$
[H]O[C@]1([H])C([H])([H])C([H])([H])C([H])([H])C([H])([H])[C@]1([H])N1C([H])([H])C([H])([H])C([H])(c2c([H])c([H])c(F)c([H])c2[H])C([H])([H])C1([H])[H]
     RDKit          3D

 44 46  0  0  0  0  0  0  0  0999 V2000
    2.9058   -0.3996   -1.9889 O   0  0  0  0  0  0  0  0  0  0  0  0
    2.8643    0.7111   -1.1537 C   0  0  2  0  0  0  0  0  0  0  0  0
    4.2722    1.1548   -0.7588 C   0  0  0  0  0  0  0  0  0  0  0  0
    4.9858    0.0765   -0.0145 C   0  0  0  0  0  0  0  0  0  0  0  0
    4.2049   -0.4288    1.1552 C   0  0  0  0  0  0  0  0  0  0  0  0
    2.7753   -0.8092    0.8137 C   0  0  0  0  0  0  0  0  0  0  0  0
    2.1592    0.4066    0.1537 C   0  0  2  0  0  0  0  0  0  0  0  0
    0.7389    0.3691    0.0547 N   0  0  0  0  0  0  0  0  0  0  0  0
    0.1813   -0.6051   -0.7738 C   0  0  0  0  0  0  0  0  0  0  0  0
   -1.2525   -0.9064   -0.6820 C   0  0  0  0  0  0  0  0  0  0  0  0
   -1.9747   -0.3193    0.4960 C   0  0  0  0  0  0  0  0  0  0  0  0
   -1.4196    1.0679    0.7626 C   0  0  0  0  0  0  0  0  0  0  0  0
    0.0224    0.8657    1.1628 C   0  0  0  0  0  0  0  0  0  0  0  0
   -3.4459   -0.2637    0.2996 C   0  0  0  0  0  0  0  0  0  0  0  0
   -4.3121   -0.9531    1.1374 C   0  0  0  0  0  0  0  0  0  0  0  0
   -5.6802   -0.9068    0.9641 C   0  0  0  0  0  0  0  0  0  0  0  0
   -6.2585   -0.1687   -0.0566 C   0  0  0  0  0  0  0  0  0  0  0  0
   -7.6107   -0.1286   -0.2220 F   0  0  0  0  0  0  0  0  0  0  0  0
   -5.4001    0.5158   -0.8883 C   0  0  0  0  0  0  0  0  0  0  0  0
   -4.0306    0.4680   -0.7128 C   0  0  0  0  0  0  0  0  0  0  0  0
    3.5367   -1.0907   -1.6700 H   0  0  0  0  0  0  0  0  0  0  0  0
    2.3482    1.5248   -1.6731 H   0  0  0  0  0  0  0  0  0  0  0  0
    4.8489    1.4866   -1.6377 H   0  0  0  0  0  0  0  0  0  0  0  0
    4.1265    2.0216   -0.0721 H   0  0  0  0  0  0  0  0  0  0  0  0
    5.2977   -0.7590   -0.6717 H   0  0  0  0  0  0  0  0  0  0  0  0
    5.9245    0.5322    0.4086 H   0  0  0  0  0  0  0  0  0  0  0  0
    4.7475   -1.3088    1.5627 H   0  0  0  0  0  0  0  0  0  0  0  0
    4.1676    0.3706    1.9271 H   0  0  0  0  0  0  0  0  0  0  0  0
    2.2472   -0.9590    1.7775 H   0  0  0  0  0  0  0  0  0  0  0  0
    2.7184   -1.7068    0.1943 H   0  0  0  0  0  0  0  0  0  0  0  0
    2.4135    1.2713    0.8322 H   0  0  0  0  0  0  0  0  0  0  0  0
    0.4264   -0.3420   -1.8470 H   0  0  0  0  0  0  0  0  0  0  0  0
    0.7507   -1.5703   -0.6166 H   0  0  0  0  0  0  0  0  0  0  0  0
   -1.4550   -2.0175   -0.6501 H   0  0  0  0  0  0  0  0  0  0  0  0
   -1.8029   -0.5574   -1.6027 H   0  0  0  0  0  0  0  0  0  0  0  0
   -1.7098   -0.9413    1.3869 H   0  0  0  0  0  0  0  0  0  0  0  0
   -2.0042    1.6253    1.5161 H   0  0  0  0  0  0  0  0  0  0  0  0
   -1.4170    1.5940   -0.2346 H   0  0  0  0  0  0  0  0  0  0  0  0
    0.0332    0.1184    1.9855 H   0  0  0  0  0  0  0  0  0  0  0  0
    0.4861    1.8283    1.4819 H   0  0  0  0  0  0  0  0  0  0  0  0
   -3.8701   -1.5297    1.9345 H   0  0  0  0  0  0  0  0  0  0  0  0
   -6.3602   -1.4482    1.6220 H   0  0  0  0  0  0  0  0  0  0  0  0
   -5.8249    1.0982   -1.6894 H   0  0  0  0  0  0  0  0  0  0  0  0
   -3.3544    1.0133   -1.3756 H   0  0  0  0  0  0  0  0  0  0  0  0
  1  2  1  0
  2  3  1  0
  3  4  1  0
  4  5  1  0
  5  6  1  0
  6  7  1  0
  7  8  1  0
  8  9  1  0
  9 10  1  0
 10 11  1  0
 11 12  1  0
 12 13  1  0
 11 14  1  0
 14 15  2  0
 15 16  1  0
 16 17  2  0
 17 18  1  0
 17 19  1  0
 19 20  2  0
  7  2  1  0
 13  8  1  0
 20 14  1  0
  1 21  1  0
  2 22  1  6
  3 23  1  0
  3 24  1  0
  4 25  1  0
  4 26  1  0
  5 27  1  0
  5 28  1  0
  6 29  1  0
  6 30  1  0
  7 31  1  1
  9 32  1  0
  9 33  1  0
 10 34  1  0
 10 35  1  0
 11 36  1  0
 12 37  1  0
 12 38  1  0
 13 39  1  0
 13 40  1  0
 15 41  1  0
 16 42  1  0
 19 43  1  0
 20 44  1  0
M  END
$$$$
[H]c1nc2c(C([H])([H])[H])c(C([H])([H])[H])c(-c3c(C([H])(C([H])([H])[H])C([H])([H])[H])c4c([H])c(C5([H])C([H])([H])C([H])([H])N(C([H])([H])C([H])([H])S(=O)(=O)C([H])([H])[H])C([H])([H])C5([H])[H])c([H])c([H])c4n3[H])c([H])n2n1
     RDKit          3D

 70 74  0  0  0  0  0  0  0  0999 V2000
   -2.0670   -3.0907    1.3275 C   0  0  0  0  0  0  0  0  0  0  0  0
   -2.9393   -1.8660    1.1752 C   0  0  0  0  0  0  0  0  0  0  0  0
   -4.3629   -2.1850    1.3925 C   0  0  0  0  0  0  0  0  0  0  0  0
   -2.5273   -0.8545    0.2249 C   0  0  0  0  0  0  0  0  0  0  0  0
   -3.2460    0.0641   -0.4869 C   0  0  0  0  0  0  0  0  0  0  0  0
   -2.3542    0.9041   -1.1119 N   0  0  0  0  0  0  0  0  0  0  0  0
   -1.1166    0.5482   -0.8234 C   0  0  0  0  0  0  0  0  0  0  0  0
    0.0797    1.1054   -1.2098 C   0  0  0  0  0  0  0  0  0  0  0  0
    1.2805    0.5776   -0.7659 C   0  0  0  0  0  0  0  0  0  0  0  0
    1.2871   -0.5147    0.0705 C   0  0  0  0  0  0  0  0  0  0  0  0
    0.0391   -1.0366    0.4277 C   0  0  0  0  0  0  0  0  0  0  0  0
   -1.1588   -0.5432    0.0075 C   0  0  0  0  0  0  0  0  0  0  0  0
    2.5658   -1.0901    0.5708 C   0  0  0  0  0  0  0  0  0  0  0  0
    3.3299   -1.6390   -0.5634 C   0  0  0  0  0  0  0  0  0  0  0  0
    4.5338   -0.9061   -1.0200 C   0  0  0  0  0  0  0  0  0  0  0  0
    5.2524   -0.4284    0.0835 N   0  0  0  0  0  0  0  0  0  0  0  0
    6.6414   -0.2154   -0.0698 C   0  0  0  0  0  0  0  0  0  0  0  0
    6.9804    0.9318   -1.0015 C   0  0  0  0  0  0  0  0  0  0  0  0
    8.7514    1.0614   -1.0701 S   0  0  0  0  0  0  0  0  0  0  0  0
    9.3330    1.3829    0.5955 C   0  0  0  0  0  0  0  0  0  0  0  0
    9.3623   -0.2295   -1.5178 O   0  0  0  0  0  0  0  0  0  0  0  0
    9.1708    2.1875   -1.9845 O   0  0  0  0  0  0  0  0  0  0  0  0
    4.5639    0.4081    0.9924 C   0  0  0  0  0  0  0  0  0  0  0  0
    3.2820   -0.1486    1.4874 C   0  0  0  0  0  0  0  0  0  0  0  0
   -4.6724    0.2529   -0.5827 C   0  0  0  0  0  0  0  0  0  0  0  0
   -5.5076   -0.6555   -1.1440 C   0  0  0  0  0  0  0  0  0  0  0  0
   -6.8473   -0.4947   -1.2139 N   0  0  0  0  0  0  0  0  0  0  0  0
   -7.8409   -1.2192   -1.6997 N   0  0  0  0  0  0  0  0  0  0  0  0
   -9.0263   -0.5904   -1.5136 C   0  0  0  0  0  0  0  0  0  0  0  0
   -8.7396    0.5591   -0.8913 N   0  0  0  0  0  0  0  0  0  0  0  0
   -7.3977    0.6076   -0.7119 C   0  0  0  0  0  0  0  0  0  0  0  0
   -6.6159    1.5591   -0.1353 C   0  0  0  0  0  0  0  0  0  0  0  0
   -7.2313    2.7992    0.4295 C   0  0  0  0  0  0  0  0  0  0  0  0
   -5.2283    1.4059   -0.0548 C   0  0  0  0  0  0  0  0  0  0  0  0
   -4.4110    2.4588    0.6004 C   0  0  0  0  0  0  0  0  0  0  0  0
   -2.7718   -3.9797    1.5331 H   0  0  0  0  0  0  0  0  0  0  0  0
   -1.4338   -3.0852    2.2247 H   0  0  0  0  0  0  0  0  0  0  0  0
   -1.4666   -3.3305    0.4472 H   0  0  0  0  0  0  0  0  0  0  0  0
   -2.6811   -1.3084    2.2140 H   0  0  0  0  0  0  0  0  0  0  0  0
   -4.9494   -1.3249    1.7036 H   0  0  0  0  0  0  0  0  0  0  0  0
   -4.8041   -2.8979    0.6934 H   0  0  0  0  0  0  0  0  0  0  0  0
   -4.3659   -2.8168    2.3786 H   0  0  0  0  0  0  0  0  0  0  0  0
   -2.6788    1.6969   -1.7253 H   0  0  0  0  0  0  0  0  0  0  0  0
    0.0814    1.9571   -1.8639 H   0  0  0  0  0  0  0  0  0  0  0  0
    2.2353    0.9991   -1.0580 H   0  0  0  0  0  0  0  0  0  0  0  0
    0.1022   -1.8638    1.0953 H   0  0  0  0  0  0  0  0  0  0  0  0
    2.2652   -1.9724    1.2159 H   0  0  0  0  0  0  0  0  0  0  0  0
    2.6529   -1.7423   -1.4637 H   0  0  0  0  0  0  0  0  0  0  0  0
    3.6507   -2.7048   -0.3781 H   0  0  0  0  0  0  0  0  0  0  0  0
    5.1905   -1.6084   -1.5936 H   0  0  0  0  0  0  0  0  0  0  0  0
    4.2658   -0.0783   -1.7285 H   0  0  0  0  0  0  0  0  0  0  0  0
    7.0880   -1.1429   -0.4992 H   0  0  0  0  0  0  0  0  0  0  0  0
    7.1819   -0.0303    0.8807 H   0  0  0  0  0  0  0  0  0  0  0  0
    6.6080    0.7623   -2.0255 H   0  0  0  0  0  0  0  0  0  0  0  0
    6.5846    1.8889   -0.5876 H   0  0  0  0  0  0  0  0  0  0  0  0
   10.4315    1.6066    0.5831 H   0  0  0  0  0  0  0  0  0  0  0  0
    9.1546    0.4822    1.1849 H   0  0  0  0  0  0  0  0  0  0  0  0
    8.7344    2.2400    0.9745 H   0  0  0  0  0  0  0  0  0  0  0  0
    4.3971    1.3915    0.4972 H   0  0  0  0  0  0  0  0  0  0  0  0
    5.2689    0.6323    1.8465 H   0  0  0  0  0  0  0  0  0  0  0  0
    3.4508   -0.5754    2.5002 H   0  0  0  0  0  0  0  0  0  0  0  0
    2.5784    0.7200    1.6689 H   0  0  0  0  0  0  0  0  0  0  0  0
   -5.1121   -1.5666   -1.5743 H   0  0  0  0  0  0  0  0  0  0  0  0
  -10.0199   -0.9525   -1.8122 H   0  0  0  0  0  0  0  0  0  0  0  0
   -6.7777    3.7155    0.0232 H   0  0  0  0  0  0  0  0  0  0  0  0
   -8.3255    2.7690    0.2562 H   0  0  0  0  0  0  0  0  0  0  0  0
   -7.0071    2.7631    1.5267 H   0  0  0  0  0  0  0  0  0  0  0  0
   -3.8702    2.0318    1.4956 H   0  0  0  0  0  0  0  0  0  0  0  0
   -5.0913    3.2231    1.0413 H   0  0  0  0  0  0  0  0  0  0  0  0
   -3.7301    2.9956   -0.0580 H   0  0  0  0  0  0  0  0  0  0  0  0
  1  2  1  0
  2  3  1  0
  2  4  1  0
  4  5  2  0
  5  6  1  0
  6  7  1  0
  7  8  2  0
  8  9  1  0
  9 10  2  0
 10 11  1  0
 11 12  2  0
 10 13  1  0
 13 14  1  0
 14 15  1  0
 15 16  1  0
 16 17  1  0
 17 18  1  0
 18 19  1  0
 19 20  1  0
 19 21  2  0
 19 22  2  0
 16 23  1  0
 23 24  1  0
  5 25  1  0
 25 26  2  0
 26 27  1  0
 27 28  1  0
 28 29  2  0
 29 30  1  0
 30 31  2  0
 31 32  1  0
 32 33  1  0
 32 34  2  0
 34 35  1  0
 12  4  1  0
 24 13  1  0
 34 25  1  0
 12  7  1  0
 31 27  1  0
  1 36  1  0
  1 37  1  0
  1 38  1  0
  2 39  1  0
  3 40  1  0
  3 41  1  0
  3 42  1  0
  6 43  1  0
  8 44  1  0
  9 45  1  0
 11 46  1  0
 13 47  1  0
 14 48  1  0
 14 49  1  0
 15 50  1  0
 15 51  1  0
 17 52  1  0
 17 53  1  0
 18 54  1  0
 18 55  1  0
 20 56  1  0
 20 57  1  0
 20 58  1  0
 23 59  1  0
 23 60  1  0
 24 61  1  0
 24 62  1  0
 26 63  1  0
 29 64  1  0
 33 65  1  0
 33 66  1  0
 33 67  1  0
 35 68  1  0
 35 69  1  0
 35 70  1  0
M  END
$$$$
[H]c1nc(N([H])c2c([H])c(OC([H])([H])[H])c(OC([H])([H])[H])c(OC([H])([H])[H])c2[H])nc(Oc2c([H])c([H])c(N([H])C(=O)N([H])c3c([H])c(C(C([H])([H])[H])(C([H])([H])[H])C([H])([H])[H])nn3-c3c([H])c([H])c(C([H])([H])[H])c([H])c3[H])c3c([H])c([H])c([H])c([H])c23)c1[H]
     RDKit          3D

 89 94  0  0  0  0  0  0  0  0999 V2000
   10.0273    1.7745    3.1507 C   0  0  0  0  0  0  0  0  0  0  0  0
   10.6573    0.7351    2.4404 O   0  0  0  0  0  0  0  0  0  0  0  0
   10.0078    0.1484    1.3741 C   0  0  0  0  0  0  0  0  0  0  0  0
    8.7410    0.5648    0.9850 C   0  0  0  0  0  0  0  0  0  0  0  0
    8.1069   -0.0233   -0.0723 C   0  0  0  0  0  0  0  0  0  0  0  0
    6.8288    0.2786   -0.5532 N   0  0  0  0  0  0  0  0  0  0  0  0
    5.7967    0.9400    0.1080 C   0  0  0  0  0  0  0  0  0  0  0  0
    5.9027    1.3830    1.3568 N   0  0  0  0  0  0  0  0  0  0  0  0
    4.8549    2.0186    1.9356 C   0  0  0  0  0  0  0  0  0  0  0  0
    3.6748    2.2238    1.2695 C   0  0  0  0  0  0  0  0  0  0  0  0
    3.5521    1.7496   -0.0766 C   0  0  0  0  0  0  0  0  0  0  0  0
    2.3914    1.9571   -0.7165 O   0  0  0  0  0  0  0  0  0  0  0  0
    1.2160    1.3281   -0.6998 C   0  0  0  0  0  0  0  0  0  0  0  0
    0.1533    2.0635   -0.1358 C   0  0  0  0  0  0  0  0  0  0  0  0
   -1.1300    1.5561   -0.0401 C   0  0  0  0  0  0  0  0  0  0  0  0
   -1.4471    0.3066   -0.4886 C   0  0  0  0  0  0  0  0  0  0  0  0
   -2.7209   -0.2597   -0.3523 N   0  0  0  0  0  0  0  0  0  0  0  0
   -3.9036    0.4669   -0.0703 C   0  0  0  0  0  0  0  0  0  0  0  0
   -3.8925    1.6906    0.0689 O   0  0  0  0  0  0  0  0  0  0  0  0
   -5.1494   -0.2056    0.0591 N   0  0  0  0  0  0  0  0  0  0  0  0
   -6.3614    0.4412    0.3250 C   0  0  0  0  0  0  0  0  0  0  0  0
   -6.6099    1.7792    0.5126 C   0  0  0  0  0  0  0  0  0  0  0  0
   -7.9743    1.9226    0.7454 C   0  0  0  0  0  0  0  0  0  0  0  0
   -8.4914    0.7086    0.6938 N   0  0  0  0  0  0  0  0  0  0  0  0
   -7.5793   -0.2009    0.4481 N   0  0  0  0  0  0  0  0  0  0  0  0
   -7.7714   -1.6015    0.3216 C   0  0  0  0  0  0  0  0  0  0  0  0
   -7.5344   -2.1527   -0.9337 C   0  0  0  0  0  0  0  0  0  0  0  0
   -7.7156   -3.5110   -1.0638 C   0  0  0  0  0  0  0  0  0  0  0  0
   -8.1110   -4.2801   -0.0004 C   0  0  0  0  0  0  0  0  0  0  0  0
   -8.2972   -5.7532   -0.1726 C   0  0  0  0  0  0  0  0  0  0  0  0
   -8.3520   -3.7561    1.2574 C   0  0  0  0  0  0  0  0  0  0  0  0
   -8.1736   -2.3960    1.3962 C   0  0  0  0  0  0  0  0  0  0  0  0
   -8.6603    3.2354    1.0010 C   0  0  0  0  0  0  0  0  0  0  0  0
   -8.7435    3.4436    2.4876 C   0  0  0  0  0  0  0  0  0  0  0  0
  -10.0370    3.2400    0.4233 C   0  0  0  0  0  0  0  0  0  0  0  0
   -7.8755    4.3715    0.3557 C   0  0  0  0  0  0  0  0  0  0  0  0
   -0.3993   -0.4362   -1.0543 C   0  0  0  0  0  0  0  0  0  0  0  0
   -0.7106   -1.6819   -1.5382 C   0  0  0  0  0  0  0  0  0  0  0  0
    0.3226   -2.4173   -2.1344 C   0  0  0  0  0  0  0  0  0  0  0  0
    1.5920   -1.9492   -2.2483 C   0  0  0  0  0  0  0  0  0  0  0  0
    1.8836   -0.7004   -1.7586 C   0  0  0  0  0  0  0  0  0  0  0  0
    0.9093    0.0831   -1.1520 C   0  0  0  0  0  0  0  0  0  0  0  0
    4.6278    1.1549   -0.5210 N   0  0  0  0  0  0  0  0  0  0  0  0
    8.7888   -1.0588   -0.7422 C   0  0  0  0  0  0  0  0  0  0  0  0
   10.0256   -1.4411   -0.3359 C   0  0  0  0  0  0  0  0  0  0  0  0
   10.6720   -2.4801   -1.0308 O   0  0  0  0  0  0  0  0  0  0  0  0
   10.0680   -3.1131   -2.1169 C   0  0  0  0  0  0  0  0  0  0  0  0
   10.6793   -0.8614    0.7258 C   0  0  0  0  0  0  0  0  0  0  0  0
   11.9368   -1.3244    1.0600 O   0  0  0  0  0  0  0  0  0  0  0  0
   13.0314   -0.6655    0.3993 C   0  0  0  0  0  0  0  0  0  0  0  0
    9.2536    1.2977    3.8012 H   0  0  0  0  0  0  0  0  0  0  0  0
   10.7951    2.2612    3.8035 H   0  0  0  0  0  0  0  0  0  0  0  0
    9.5901    2.5693    2.5029 H   0  0  0  0  0  0  0  0  0  0  0  0
    8.2813    1.3666    1.5253 H   0  0  0  0  0  0  0  0  0  0  0  0
    6.6065   -0.0254   -1.5604 H   0  0  0  0  0  0  0  0  0  0  0  0
    5.0138    2.3507    2.9663 H   0  0  0  0  0  0  0  0  0  0  0  0
    2.8463    2.7247    1.7229 H   0  0  0  0  0  0  0  0  0  0  0  0
    0.3877    3.0558    0.2245 H   0  0  0  0  0  0  0  0  0  0  0  0
   -1.8663    2.2097    0.4345 H   0  0  0  0  0  0  0  0  0  0  0  0
   -2.8567   -1.3215   -0.4355 H   0  0  0  0  0  0  0  0  0  0  0  0
   -5.1521   -1.2593   -0.0608 H   0  0  0  0  0  0  0  0  0  0  0  0
   -5.9341    2.6385    0.4983 H   0  0  0  0  0  0  0  0  0  0  0  0
   -7.2238   -1.5518   -1.7737 H   0  0  0  0  0  0  0  0  0  0  0  0
   -7.5264   -3.9472   -2.0581 H   0  0  0  0  0  0  0  0  0  0  0  0
   -7.4772   -6.1336   -0.8247 H   0  0  0  0  0  0  0  0  0  0  0  0
   -8.2992   -6.2731    0.8140 H   0  0  0  0  0  0  0  0  0  0  0  0
   -9.2622   -5.9691   -0.7022 H   0  0  0  0  0  0  0  0  0  0  0  0
   -8.6626   -4.3774    2.0850 H   0  0  0  0  0  0  0  0  0  0  0  0
   -8.3533   -1.9375    2.3696 H   0  0  0  0  0  0  0  0  0  0  0  0
   -8.9294    2.4538    2.9600 H   0  0  0  0  0  0  0  0  0  0  0  0
   -7.7376    3.7742    2.8790 H   0  0  0  0  0  0  0  0  0  0  0  0
   -9.5061    4.1720    2.7965 H   0  0  0  0  0  0  0  0  0  0  0  0
  -10.5038    4.2297    0.6231 H   0  0  0  0  0  0  0  0  0  0  0  0
  -10.0648    3.0803   -0.6709 H   0  0  0  0  0  0  0  0  0  0  0  0
  -10.6829    2.5022    0.9721 H   0  0  0  0  0  0  0  0  0  0  0  0
   -7.3113    4.8728    1.1607 H   0  0  0  0  0  0  0  0  0  0  0  0
   -8.5726    5.1079   -0.1189 H   0  0  0  0  0  0  0  0  0  0  0  0
   -7.1553    4.0333   -0.3928 H   0  0  0  0  0  0  0  0  0  0  0  0
   -1.6889   -2.1234   -1.4989 H   0  0  0  0  0  0  0  0  0  0  0  0
    0.0766   -3.4124   -2.5255 H   0  0  0  0  0  0  0  0  0  0  0  0
    2.3921   -2.5174   -2.7100 H   0  0  0  0  0  0  0  0  0  0  0  0
    2.8444   -0.2681   -1.8489 H   0  0  0  0  0  0  0  0  0  0  0  0
    8.3210   -1.5613   -1.5973 H   0  0  0  0  0  0  0  0  0  0  0  0
    9.7038   -2.3899   -2.8897 H   0  0  0  0  0  0  0  0  0  0  0  0
   10.8179   -3.7894   -2.5989 H   0  0  0  0  0  0  0  0  0  0  0  0
    9.1668   -3.6967   -1.7984 H   0  0  0  0  0  0  0  0  0  0  0  0
   13.1976    0.3159    0.8879 H   0  0  0  0  0  0  0  0  0  0  0  0
   13.9154   -1.3285    0.3969 H   0  0  0  0  0  0  0  0  0  0  0  0
   12.7493   -0.4288   -0.6668 H   0  0  0  0  0  0  0  0  0  0  0  0
  1  2  1  0
  2  3  1  0
  3  4  2  0
  4  5  1  0
  5  6  1  0
  6  7  1  0
  7  8  2  0
  8  9  1  0
  9 10  2  0
 10 11  1  0
 11 12  1  0
 12 13  1  0
 13 14  2  0
 14 15  1  0
 15 16  2  0
 16 17  1  0
 17 18  1  0
 18 19  2  0
 18 20  1  0
 20 21  1  0
 21 22  2  0
 22 23  1  0
 23 24  2  0
 24 25  1  0
 25 26  1  0
 26 27  2  0
 27 28  1  0
 28 29  2  0
 29 30  1  0
 29 31  1  0
 31 32  2  0
 23 33  1  0
 33 34  1  0
 33 35  1  0
 33 36  1  0
 16 37  1  0
 37 38  2  0
 38 39  1  0
 39 40  2  0
 40 41  1  0
 41 42  2  0
 11 43  2  0
  5 44  2  0
 44 45  1  0
 45 46  1  0
 46 47  1  0
 45 48  2  0
 48 49  1  0
 49 50  1  0
 48  3  1  0
 43  7  1  0
 42 13  1  0
 25 21  1  0
 32 26  1  0
 42 37  1  0
  1 51  1  0
  1 52  1  0
  1 53  1  0
  4 54  1  0
  6 55  1  0
  9 56  1  0
 10 57  1  0
 14 58  1  0
 15 59  1  0
 17 60  1  0
 20 61  1  0
 22 62  1  0
 27 63  1  0
 28 64  1  0
 30 65  1  0
 30 66  1  0
 30 67  1  0
 31 68  1  0
 32 69  1  0
 34 70  1  0
 34 71  1  0
 34 72  1  0
 35 73  1  0
 35 74  1  0
 35 75  1  0
 36 76  1  0
 36 77  1  0
 36 78  1  0
 38 79  1  0
 39 80  1  0
 40 81  1  0
 41 82  1  0
 44 83  1  0
 47 84  1  0
 47 85  1  0
 47 86  1  0
 50 87  1  0
 50 88  1  0
 50 89  1  0
M  END
$$$$
[H]c1c([H])c([H])c(-c2c([H])c([H])c(C(=O)N([H])c3nc4c(C5([H])C([H])([H])C([H])([H])N(C([H])([H])[H])C([H])([H])C5([H])[H])c([H])n([H])c4c([H])c3[H])c([H])c2[H])c([H])c1[H]
     RDKit          3D

 57 61  0  0  0  0  0  0  0  0999 V2000
   -6.6271    1.4471   -2.3944 C   0  0  0  0  0  0  0  0  0  0  0  0
   -5.7074    1.8163   -1.3365 N   0  0  0  0  0  0  0  0  0  0  0  0
   -6.2845    1.5044   -0.0807 C   0  0  0  0  0  0  0  0  0  0  0  0
   -5.9279    0.1272    0.4586 C   0  0  0  0  0  0  0  0  0  0  0  0
   -4.4188    0.0920    0.5201 C   0  0  0  0  0  0  0  0  0  0  0  0
   -3.8978    0.1807   -0.8587 C   0  0  0  0  0  0  0  0  0  0  0  0
   -4.4198    1.3560   -1.6354 C   0  0  0  0  0  0  0  0  0  0  0  0
   -3.9524   -0.9821    1.3564 C   0  0  0  0  0  0  0  0  0  0  0  0
   -4.7940   -1.8214    2.0634 C   0  0  0  0  0  0  0  0  0  0  0  0
   -4.0854   -2.7080    2.7472 N   0  0  0  0  0  0  0  0  0  0  0  0
   -2.7756   -2.4871    2.5182 C   0  0  0  0  0  0  0  0  0  0  0  0
   -1.6024   -3.0651    2.9361 C   0  0  0  0  0  0  0  0  0  0  0  0
   -0.3641   -2.5752    2.4935 C   0  0  0  0  0  0  0  0  0  0  0  0
   -0.2892   -1.5156    1.6394 C   0  0  0  0  0  0  0  0  0  0  0  0
    0.9058   -0.9333    1.1253 N   0  0  0  0  0  0  0  0  0  0  0  0
    2.2038   -1.3051    1.3864 C   0  0  0  0  0  0  0  0  0  0  0  0
    2.5143   -2.2388    2.1444 O   0  0  0  0  0  0  0  0  0  0  0  0
    3.3194   -0.5752    0.7453 C   0  0  0  0  0  0  0  0  0  0  0  0
    3.1608    0.6818    0.1961 C   0  0  0  0  0  0  0  0  0  0  0  0
    4.2547    1.2884   -0.3949 C   0  0  0  0  0  0  0  0  0  0  0  0
    5.4754    0.6495   -0.4330 C   0  0  0  0  0  0  0  0  0  0  0  0
    5.6514   -0.6043    0.1102 C   0  0  0  0  0  0  0  0  0  0  0  0
    4.5607   -1.1973    0.6937 C   0  0  0  0  0  0  0  0  0  0  0  0
    6.6001    1.3292   -1.0708 C   0  0  0  0  0  0  0  0  0  0  0  0
    6.3750    2.1788   -2.1370 C   0  0  0  0  0  0  0  0  0  0  0  0
    7.3869    2.8548   -2.7853 C   0  0  0  0  0  0  0  0  0  0  0  0
    8.6744    2.6906   -2.3706 C   0  0  0  0  0  0  0  0  0  0  0  0
    8.9249    1.8413   -1.3006 C   0  0  0  0  0  0  0  0  0  0  0  0
    7.9005    1.1654   -0.6544 C   0  0  0  0  0  0  0  0  0  0  0  0
   -1.5007   -0.9899    1.2652 N   0  0  0  0  0  0  0  0  0  0  0  0
   -2.6756   -1.4246    1.6609 C   0  0  0  0  0  0  0  0  0  0  0  0
   -6.5363    0.3904   -2.7070 H   0  0  0  0  0  0  0  0  0  0  0  0
   -7.6817    1.6686   -2.1318 H   0  0  0  0  0  0  0  0  0  0  0  0
   -6.4335    2.0558   -3.3259 H   0  0  0  0  0  0  0  0  0  0  0  0
   -7.3904    1.6547   -0.0759 H   0  0  0  0  0  0  0  0  0  0  0  0
   -5.9017    2.2538    0.6676 H   0  0  0  0  0  0  0  0  0  0  0  0
   -6.4040    0.0529    1.4587 H   0  0  0  0  0  0  0  0  0  0  0  0
   -6.2733   -0.6447   -0.2425 H   0  0  0  0  0  0  0  0  0  0  0  0
   -4.1296    1.0625    1.0308 H   0  0  0  0  0  0  0  0  0  0  0  0
   -4.0387   -0.6877   -1.5003 H   0  0  0  0  0  0  0  0  0  0  0  0
   -2.7778    0.3238   -0.7841 H   0  0  0  0  0  0  0  0  0  0  0  0
   -3.7121    2.2309   -1.5051 H   0  0  0  0  0  0  0  0  0  0  0  0
   -4.3501    1.1566   -2.7457 H   0  0  0  0  0  0  0  0  0  0  0  0
   -5.8949   -1.8127    2.0998 H   0  0  0  0  0  0  0  0  0  0  0  0
   -4.4350   -3.4760    3.3778 H   0  0  0  0  0  0  0  0  0  0  0  0
   -1.6585   -3.9017    3.6106 H   0  0  0  0  0  0  0  0  0  0  0  0
    0.5162   -3.0568    2.8451 H   0  0  0  0  0  0  0  0  0  0  0  0
    0.7619   -0.1002    0.4440 H   0  0  0  0  0  0  0  0  0  0  0  0
    2.2180    1.2030    0.2186 H   0  0  0  0  0  0  0  0  0  0  0  0
    4.1470    2.2724   -0.8295 H   0  0  0  0  0  0  0  0  0  0  0  0
    6.6204   -1.1066    0.0779 H   0  0  0  0  0  0  0  0  0  0  0  0
    4.6571   -2.1947    1.1368 H   0  0  0  0  0  0  0  0  0  0  0  0
    5.3510    2.3131   -2.4716 H   0  0  0  0  0  0  0  0  0  0  0  0
    7.1616    3.5117   -3.6185 H   0  0  0  0  0  0  0  0  0  0  0  0
    9.5204    3.1907   -2.8338 H   0  0  0  0  0  0  0  0  0  0  0  0
    9.9498    1.7133   -0.9735 H   0  0  0  0  0  0  0  0  0  0  0  0
    8.1291    0.5165    0.1691 H   0  0  0  0  0  0  0  0  0  0  0  0
  1  2  1  0
  2  3  1  0
  3  4  1  0
  4  5  1  0
  5  6  1  0
  6  7  1  0
  5  8  1  0
  8  9  2  0
  9 10  1  0
 10 11  1  0
 11 12  2  0
 12 13  1  0
 13 14  2  0
 14 15  1  0
 15 16  1  0
 16 17  2  0
 16 18  1  0
 18 19  2  0
 19 20  1  0
 20 21  2  0
 21 22  1  0
 22 23  2  0
 21 24  1  0
 24 25  2  0
 25 26  1  0
 26 27  2  0
 27 28  1  0
 28 29  2  0
 14 30  1  0
 30 31  2  0
  7  2  1  0
 31  8  1  0
 31 11  1  0
 23 18  1  0
 29 24  1  0
  1 32  1  0
  1 33  1  0
  1 34  1  0
  3 35  1  0
  3 36  1  0
  4 37  1  0
  4 38  1  0
  5 39  1  0
  6 40  1  0
  6 41  1  0
  7 42  1  0
  7 43  1  0
  9 44  1  0
 10 45  1  0
 12 46  1  0
 13 47  1  0
 15 48  1  0
 19 49  1  0
 20 50  1  0
 22 51  1  0
 23 52  1  0
 25 53  1  0
 26 54  1  0
 27 55  1  0
 28 56  1  0
 29 57  1  0
M  END
$$$$
[H]OC(=O)[C@@]([H])(N([H])C(=O)[C@@]([H])(C([H])([H])S[H])C([H])([H])c1c([H])c([H])c([H])c([H])c1[H])C([H])([H])c1c([H])n([H])c2c([H])c([H])c([H])c([H])c12
     RDKit          3D

 49 51  0  0  0  0  0  0  0  0999 V2000
   -1.8741    2.2007   -4.3035 O   0  0  0  0  0  0  0  0  0  0  0  0
   -1.0614    2.3072   -3.2035 C   0  0  0  0  0  0  0  0  0  0  0  0
   -0.2771    3.2324   -3.0332 O   0  0  0  0  0  0  0  0  0  0  0  0
   -1.1502    1.2186   -2.1561 C   0  0  2  0  0  0  0  0  0  0  0  0
   -2.5850    1.0556   -1.8514 C   0  0  0  0  0  0  0  0  0  0  0  0
   -2.9733    0.0656   -0.8610 C   0  0  0  0  0  0  0  0  0  0  0  0
   -3.3868   -1.2299   -1.1658 C   0  0  0  0  0  0  0  0  0  0  0  0
   -3.6528   -1.9054   -0.0356 N   0  0  0  0  0  0  0  0  0  0  0  0
   -3.4240   -1.0828    1.0049 C   0  0  0  0  0  0  0  0  0  0  0  0
   -3.5434   -1.2479    2.3629 C   0  0  0  0  0  0  0  0  0  0  0  0
   -3.2641   -0.2482    3.2657 C   0  0  0  0  0  0  0  0  0  0  0  0
   -2.8491    0.9544    2.7314 C   0  0  0  0  0  0  0  0  0  0  0  0
   -2.7153    1.1628    1.3828 C   0  0  0  0  0  0  0  0  0  0  0  0
   -3.0040    0.1378    0.5105 C   0  0  0  0  0  0  0  0  0  0  0  0
   -0.2395    1.4952   -1.0910 N   0  0  0  0  0  0  0  0  0  0  0  0
    0.9444    0.6821   -0.8664 C   0  0  0  0  0  0  0  0  0  0  0  0
    1.0736   -0.2660   -1.6615 O   0  0  0  0  0  0  0  0  0  0  0  0
    1.8186    1.0724    0.2403 C   0  0  1  0  0  0  0  0  0  0  0  0
    1.1306    0.9926    1.5834 C   0  0  0  0  0  0  0  0  0  0  0  0
    2.2433    1.5210    2.9123 S   0  0  0  0  0  0  0  0  0  0  0  0
    3.2207    0.6053    0.2139 C   0  0  0  0  0  0  0  0  0  0  0  0
    3.4958   -0.8251    0.1665 C   0  0  0  0  0  0  0  0  0  0  0  0
    3.4995   -1.6518    1.2632 C   0  0  0  0  0  0  0  0  0  0  0  0
    3.8150   -2.9799    1.0963 C   0  0  0  0  0  0  0  0  0  0  0  0
    4.1305   -3.5323   -0.1213 C   0  0  0  0  0  0  0  0  0  0  0  0
    4.1233   -2.6916   -1.2120 C   0  0  0  0  0  0  0  0  0  0  0  0
    3.8123   -1.3658   -1.0683 C   0  0  0  0  0  0  0  0  0  0  0  0
   -2.8397    2.5561   -4.3359 H   0  0  0  0  0  0  0  0  0  0  0  0
   -0.7604    0.2605   -2.6414 H   0  0  0  0  0  0  0  0  0  0  0  0
   -3.0759    2.0508   -1.5909 H   0  0  0  0  0  0  0  0  0  0  0  0
   -3.0922    0.8195   -2.8442 H   0  0  0  0  0  0  0  0  0  0  0  0
   -3.4782   -1.6263   -2.1595 H   0  0  0  0  0  0  0  0  0  0  0  0
   -3.9816   -2.9043    0.0003 H   0  0  0  0  0  0  0  0  0  0  0  0
   -3.8768   -2.2176    2.7510 H   0  0  0  0  0  0  0  0  0  0  0  0
   -3.3648   -0.3953    4.3459 H   0  0  0  0  0  0  0  0  0  0  0  0
   -2.6321    1.7377    3.4585 H   0  0  0  0  0  0  0  0  0  0  0  0
   -2.3842    2.1260    0.9948 H   0  0  0  0  0  0  0  0  0  0  0  0
   -0.4622    2.3200   -0.4727 H   0  0  0  0  0  0  0  0  0  0  0  0
    1.9181    2.2260    0.0895 H   0  0  0  0  0  0  0  0  0  0  0  0
    0.6338    0.0446    1.7695 H   0  0  0  0  0  0  0  0  0  0  0  0
    0.3175    1.7767    1.5594 H   0  0  0  0  0  0  0  0  0  0  0  0
    2.6143    2.8491    2.6488 H   0  0  0  0  0  0  0  0  0  0  0  0
    3.7264    1.0098    1.1358 H   0  0  0  0  0  0  0  0  0  0  0  0
    3.7375    1.1615   -0.6294 H   0  0  0  0  0  0  0  0  0  0  0  0
    3.2713   -1.3187    2.2513 H   0  0  0  0  0  0  0  0  0  0  0  0
    3.8263   -3.6688    1.9615 H   0  0  0  0  0  0  0  0  0  0  0  0
    4.3775   -4.6025   -0.2140 H   0  0  0  0  0  0  0  0  0  0  0  0
    4.3755   -3.1267   -2.1935 H   0  0  0  0  0  0  0  0  0  0  0  0
    3.8423   -0.7551   -1.9885 H   0  0  0  0  0  0  0  0  0  0  0  0
  1  2  1  0
  2  3  2  0
  2  4  1  0
  4  5  1  0
  5  6  1  0
  6  7  2  0
  7  8  1  0
  8  9  1  0
  9 10  2  0
 10 11  1  0
 11 12  2  0
 12 13  1  0
 13 14  2  0
  4 15  1  0
 15 16  1  0
 16 17  2  0
 16 18  1  0
 18 19  1  0
 19 20  1  0
 18 21  1  0
 21 22  1  0
 22 23  2  0
 23 24  1  0
 24 25  2  0
 25 26  1  0
 26 27  2  0
 14  6  1  0
 27 22  1  0
 14  9  1  0
  1 28  1  0
  4 29  1  6
  5 30  1  0
  5 31  1  0
  7 32  1  0
  8 33  1  0
 10 34  1  0
 11 35  1  0
 12 36  1  0
 13 37  1  0
 15 38  1  0
 18 39  1  6
 19 40  1  0
 19 41  1  0
 20 42  1  0
 21 43  1  0
 21 44  1  0
 23 45  1  0
 24 46  1  0
 25 47  1  0
 26 48  1  0
 27 49  1  0
M  END
$$$$
[H]c1c([H])c(N([H])C(=O)N([H])c2c([H])c([H])c(N3C([H])([H])C([H])([H])N(C([H])([H])[H])C([H])([H])C3([H])[H])c([H])c2[H])c([H])c([H])c1-c1nc(N2C([H])([H])C([H])([H])OC([H])([H])[C@@]2([H])C([H])([H])[H])nc(C2([H])C([H])([H])OC([H])([H])C2([H])[H])n1
     RDKit          3D

 79 84  0  0  0  0  0  0  0  0999 V2000
   -6.5704   -2.8458   -0.8706 C   0  0  0  0  0  0  0  0  0  0  0  0
   -7.3858   -2.7697    0.4008 C   0  0  2  0  0  0  0  0  0  0  0  0
   -8.8777   -2.8342    0.0949 C   0  0  0  0  0  0  0  0  0  0  0  0
   -9.5589   -1.6947    0.4889 O   0  0  0  0  0  0  0  0  0  0  0  0
   -9.4274   -1.3899    1.8371 C   0  0  0  0  0  0  0  0  0  0  0  0
   -7.9797   -1.3065    2.2850 C   0  0  0  0  0  0  0  0  0  0  0  0
   -7.1829   -1.5220    1.0995 N   0  0  0  0  0  0  0  0  0  0  0  0
   -6.2708   -0.5197    0.7007 C   0  0  0  0  0  0  0  0  0  0  0  0
   -6.6893    0.7102    0.3149 N   0  0  0  0  0  0  0  0  0  0  0  0
   -5.8853    1.7026   -0.0711 C   0  0  0  0  0  0  0  0  0  0  0  0
   -4.5678    1.4430   -0.0693 N   0  0  0  0  0  0  0  0  0  0  0  0
   -4.0787    0.2234    0.3097 C   0  0  0  0  0  0  0  0  0  0  0  0
   -4.9344   -0.7375    0.6879 N   0  0  0  0  0  0  0  0  0  0  0  0
   -2.6361    0.0421    0.2781 C   0  0  0  0  0  0  0  0  0  0  0  0
   -2.0913   -1.1461    0.7186 C   0  0  0  0  0  0  0  0  0  0  0  0
   -0.6965   -1.2772    0.6760 C   0  0  0  0  0  0  0  0  0  0  0  0
    0.0864   -0.2588    0.2131 C   0  0  0  0  0  0  0  0  0  0  0  0
    1.4854   -0.3150    0.2082 N   0  0  0  0  0  0  0  0  0  0  0  0
    2.2562    0.1566   -0.9469 C   0  0  0  0  0  0  0  0  0  0  0  0
    1.5456    0.5490   -1.9055 O   0  0  0  0  0  0  0  0  0  0  0  0
    3.6057    0.1533   -0.9239 N   0  0  0  0  0  0  0  0  0  0  0  0
    4.9684    0.1500   -0.9009 C   0  0  0  0  0  0  0  0  0  0  0  0
    5.6513    1.1430   -0.1921 C   0  0  0  0  0  0  0  0  0  0  0  0
    7.0195    1.0792   -0.1568 C   0  0  0  0  0  0  0  0  0  0  0  0
    7.7373    0.0985   -0.7764 C   0  0  0  0  0  0  0  0  0  0  0  0
    7.0418   -0.8750   -1.4727 C   0  0  0  0  0  0  0  0  0  0  0  0
    5.6848   -0.8760   -1.5519 C   0  0  0  0  0  0  0  0  0  0  0  0
    9.1567    0.0707   -0.7422 N   0  0  0  0  0  0  0  0  0  0  0  0
    9.7657   -1.2430   -0.9161 C   0  0  0  0  0  0  0  0  0  0  0  0
   11.2499   -1.1286   -0.7982 C   0  0  0  0  0  0  0  0  0  0  0  0
   11.7030   -0.3479    0.3074 N   0  0  0  0  0  0  0  0  0  0  0  0
   11.7698   -1.0856    1.5332 C   0  0  0  0  0  0  0  0  0  0  0  0
   11.0988    0.9437    0.4047 C   0  0  0  0  0  0  0  0  0  0  0  0
   10.0012    1.2151   -0.5781 C   0  0  0  0  0  0  0  0  0  0  0  0
   -0.4875    0.9428   -0.2307 C   0  0  0  0  0  0  0  0  0  0  0  0
   -1.8598    1.0759   -0.1908 C   0  0  0  0  0  0  0  0  0  0  0  0
   -6.3944    3.0413   -0.4976 C   0  0  0  0  0  0  0  0  0  0  0  0
   -7.1744    3.6137    0.6717 C   0  0  0  0  0  0  0  0  0  0  0  0
   -8.5912    3.5814    0.1886 C   0  0  0  0  0  0  0  0  0  0  0  0
   -8.5462    3.5630   -1.1837 O   0  0  0  0  0  0  0  0  0  0  0  0
   -7.4327    2.7984   -1.5501 C   0  0  0  0  0  0  0  0  0  0  0  0
   -6.8223   -3.7887   -1.4077 H   0  0  0  0  0  0  0  0  0  0  0  0
   -5.4920   -2.8669   -0.6513 H   0  0  0  0  0  0  0  0  0  0  0  0
   -6.7759   -1.9835   -1.5296 H   0  0  0  0  0  0  0  0  0  0  0  0
   -7.1323   -3.5919    1.0915 H   0  0  0  0  0  0  0  0  0  0  0  0
   -8.9760   -2.9033   -1.0124 H   0  0  0  0  0  0  0  0  0  0  0  0
   -9.3566   -3.7332    0.5214 H   0  0  0  0  0  0  0  0  0  0  0  0
  -10.0224   -2.1033    2.4559 H   0  0  0  0  0  0  0  0  0  0  0  0
   -9.8814   -0.3986    2.0052 H   0  0  0  0  0  0  0  0  0  0  0  0
   -7.7336   -0.3944    2.8219 H   0  0  0  0  0  0  0  0  0  0  0  0
   -7.8132   -2.1659    2.9966 H   0  0  0  0  0  0  0  0  0  0  0  0
   -2.6981   -1.9698    1.0915 H   0  0  0  0  0  0  0  0  0  0  0  0
   -0.2688   -2.2296    1.0319 H   0  0  0  0  0  0  0  0  0  0  0  0
    2.0341   -0.6805    0.9895 H   0  0  0  0  0  0  0  0  0  0  0  0
    3.6733    0.7242   -2.1707 H   0  0  0  0  0  0  0  0  0  0  0  0
    5.0888    1.9395    0.3126 H   0  0  0  0  0  0  0  0  0  0  0  0
    7.5477    1.8535    0.4002 H   0  0  0  0  0  0  0  0  0  0  0  0
    7.5727   -1.6865   -1.9881 H   0  0  0  0  0  0  0  0  0  0  0  0
    5.1363   -1.6280   -2.0910 H   0  0  0  0  0  0  0  0  0  0  0  0
    9.3510   -1.9663   -0.1878 H   0  0  0  0  0  0  0  0  0  0  0  0
    9.5621   -1.6197   -1.9442 H   0  0  0  0  0  0  0  0  0  0  0  0
   11.6620   -0.6742   -1.7435 H   0  0  0  0  0  0  0  0  0  0  0  0
   11.6714   -2.1601   -0.7035 H   0  0  0  0  0  0  0  0  0  0  0  0
   12.7574   -1.5945    1.5673 H   0  0  0  0  0  0  0  0  0  0  0  0
   10.9530   -1.7848    1.7081 H   0  0  0  0  0  0  0  0  0  0  0  0
   11.7884   -0.3408    2.3674 H   0  0  0  0  0  0  0  0  0  0  0  0
   10.6741    1.0755    1.4312 H   0  0  0  0  0  0  0  0  0  0  0  0
   11.8887    1.7253    0.2205 H   0  0  0  0  0  0  0  0  0  0  0  0
   10.4423    1.5466   -1.5706 H   0  0  0  0  0  0  0  0  0  0  0  0
    9.4292    2.0795   -0.1904 H   0  0  0  0  0  0  0  0  0  0  0  0
    0.1126    1.7513   -0.5727 H   0  0  0  0  0  0  0  0  0  0  0  0
   -2.3287    2.0022   -0.5322 H   0  0  0  0  0  0  0  0  0  0  0  0
   -5.5695    3.7035   -0.8080 H   0  0  0  0  0  0  0  0  0  0  0  0
   -6.8296    4.6634    0.8853 H   0  0  0  0  0  0  0  0  0  0  0  0
   -7.0837    2.9978    1.5902 H   0  0  0  0  0  0  0  0  0  0  0  0
   -9.1390    4.5161    0.4898 H   0  0  0  0  0  0  0  0  0  0  0  0
   -9.0968    2.6926    0.6238 H   0  0  0  0  0  0  0  0  0  0  0  0
   -7.0854    3.1291   -2.5339 H   0  0  0  0  0  0  0  0  0  0  0  0
   -7.7479    1.7407   -1.6145 H   0  0  0  0  0  0  0  0  0  0  0  0
  1  2  1  0
  2  3  1  0
  3  4  1  0
  4  5  1  0
  5  6  1  0
  6  7  1  0
  7  8  1  0
  8  9  2  0
  9 10  1  0
 10 11  2  0
 11 12  1  0
 12 13  2  0
 12 14  1  0
 14 15  2  0
 15 16  1  0
 16 17  2  0
 17 18  1  0
 18 19  1  0
 19 20  2  0
 19 21  1  0
 21 22  1  0
 22 23  2  0
 23 24  1  0
 24 25  2  0
 25 26  1  0
 26 27  2  0
 25 28  1  0
 28 29  1  0
 29 30  1  0
 30 31  1  0
 31 32  1  0
 31 33  1  0
 33 34  1  0
 17 35  1  0
 35 36  2  0
 10 37  1  0
 37 38  1  0
 38 39  1  0
 39 40  1  0
 40 41  1  0
  7  2  1  0
 13  8  1  0
 36 14  1  0
 41 37  1  0
 27 22  1  0
 34 28  1  0
  1 42  1  0
  1 43  1  0
  1 44  1  0
  2 45  1  1
  3 46  1  0
  3 47  1  0
  5 48  1  0
  5 49  1  0
  6 50  1  0
  6 51  1  0
 15 52  1  0
 16 53  1  0
 18 54  1  0
 21 55  1  0
 23 56  1  0
 24 57  1  0
 26 58  1  0
 27 59  1  0
 29 60  1  0
 29 61  1  0
 30 62  1  0
 30 63  1  0
 32 64  1  0
 32 65  1  0
 32 66  1  0
 33 67  1  0
 33 68  1  0
 34 69  1  0
 34 70  1  0
 35 71  1  0
 36 72  1  0
 37 73  1  0
 38 74  1  0
 38 75  1  0
 39 76  1  0
 39 77  1  0
 41 78  1  0
 41 79  1  0
M  END
$$$$
[H]OC(=O)C([H])([H])[C@@]([H])(C(=O)N([H])[C@]([H])(C(=O)O[H])C([H])([H])c1c([H])c([H])c([H])c([H])c1[H])N([H])C(=O)[C@@]([H])(N([H])C(=O)[C@@]([H])(N([H])C(=O)C([H])([H])N([H])C(=O)OC(C([H])([H])[H])(C([H])([H])[H])C([H])([H])[H])C([H])([H])c1c([H])n([H])c2c([H])c([H])c([H])c([H])c12)[C@@]([H])(C([H])([H])[H])C([H])([H])C([H])([H])[H]
     RDKit          3D

101103  0  0  0  0  0  0  0  0999 V2000
    1.8039   -3.4658    0.1176 C   0  0  0  0  0  0  0  0  0  0  0  0
    1.1352   -3.6618    1.4473 C   0  0  0  0  0  0  0  0  0  0  0  0
    1.1869   -2.5369    2.3973 C   0  0  2  0  0  0  0  0  0  0  0  0
    0.4139   -3.0697    3.6617 C   0  0  0  0  0  0  0  0  0  0  0  0
    0.6138   -1.2404    2.0917 C   0  0  2  0  0  0  0  0  0  0  0  0
   -0.7518   -1.0547    1.8224 N   0  0  0  0  0  0  0  0  0  0  0  0
   -1.5663   -1.0376    0.6801 C   0  0  0  0  0  0  0  0  0  0  0  0
   -1.0973   -1.2854   -0.4546 O   0  0  0  0  0  0  0  0  0  0  0  0
   -2.9883   -0.7132    0.7316 C   0  0  2  0  0  0  0  0  0  0  0  0
   -4.0476   -1.6888    0.9337 C   0  0  0  0  0  0  0  0  0  0  0  0
   -4.2966   -2.7496   -0.0109 C   0  0  0  0  0  0  0  0  0  0  0  0
   -5.2462   -2.7004   -1.0550 C   0  0  0  0  0  0  0  0  0  0  0  0
   -5.1793   -3.8492   -1.7402 N   0  0  0  0  0  0  0  0  0  0  0  0
   -4.2407   -4.6389   -1.1994 C   0  0  0  0  0  0  0  0  0  0  0  0
   -3.7823   -5.9031   -1.4995 C   0  0  0  0  0  0  0  0  0  0  0  0
   -2.8057   -6.5291   -0.7861 C   0  0  0  0  0  0  0  0  0  0  0  0
   -2.2361   -5.8824    0.2914 C   0  0  0  0  0  0  0  0  0  0  0  0
   -2.6850   -4.6208    0.5992 C   0  0  0  0  0  0  0  0  0  0  0  0
   -3.6792   -3.9609   -0.1132 C   0  0  0  0  0  0  0  0  0  0  0  0
   -3.3460   -0.0857   -0.5948 N   0  0  0  0  0  0  0  0  0  0  0  0
   -3.9658    1.1620   -0.6935 C   0  0  0  0  0  0  0  0  0  0  0  0
   -4.2479    1.7849    0.3625 O   0  0  0  0  0  0  0  0  0  0  0  0
   -4.2601    1.6911   -2.0335 C   0  0  0  0  0  0  0  0  0  0  0  0
   -4.9275    2.9548   -1.9363 N   0  0  0  0  0  0  0  0  0  0  0  0
   -6.1847    3.1139   -1.3352 C   0  0  0  0  0  0  0  0  0  0  0  0
   -6.7731    2.1176   -0.8531 O   0  0  0  0  0  0  0  0  0  0  0  0
   -6.8329    4.3455   -1.2445 O   0  0  0  0  0  0  0  0  0  0  0  0
   -8.1213    4.4103   -0.6198 C   0  0  0  0  0  0  0  0  0  0  0  0
   -8.5841    5.8423   -0.6629 C   0  0  0  0  0  0  0  0  0  0  0  0
   -9.1111    3.5577   -1.4058 C   0  0  0  0  0  0  0  0  0  0  0  0
   -8.0675    3.9073    0.7887 C   0  0  0  0  0  0  0  0  0  0  0  0
    1.4960   -0.4716    1.1195 C   0  0  0  0  0  0  0  0  0  0  0  0
    0.9239    0.2140    0.2547 O   0  0  0  0  0  0  0  0  0  0  0  0
    2.8816   -0.4882    1.1508 N   0  0  0  0  0  0  0  0  0  0  0  0
    3.8745    0.1432    0.3623 C   0  0  1  0  0  0  0  0  0  0  0  0
    3.4803    0.7596   -0.9512 C   0  0  0  0  0  0  0  0  0  0  0  0
    2.9992   -0.1786   -1.9678 C   0  0  0  0  0  0  0  0  0  0  0  0
    3.6748   -1.4085   -2.0472 O   0  0  0  0  0  0  0  0  0  0  0  0
    2.0513    0.0688   -2.7378 O   0  0  0  0  0  0  0  0  0  0  0  0
    4.7076    1.1050    1.1212 C   0  0  0  0  0  0  0  0  0  0  0  0
    4.4653    1.3779    2.3377 O   0  0  0  0  0  0  0  0  0  0  0  0
    5.8108    1.7612    0.5180 N   0  0  0  0  0  0  0  0  0  0  0  0
    6.6302    2.7209    1.2579 C   0  0  1  0  0  0  0  0  0  0  0  0
    7.9508    2.0440    1.5558 C   0  0  0  0  0  0  0  0  0  0  0  0
    8.6911    1.6166    0.3524 C   0  0  0  0  0  0  0  0  0  0  0  0
    8.4641    0.3478   -0.1898 C   0  0  0  0  0  0  0  0  0  0  0  0
    9.1462   -0.0982   -1.3030 C   0  0  0  0  0  0  0  0  0  0  0  0
   10.0837    0.6964   -1.9262 C   0  0  0  0  0  0  0  0  0  0  0  0
   10.3151    1.9463   -1.4023 C   0  0  0  0  0  0  0  0  0  0  0  0
    9.6273    2.3998   -0.2777 C   0  0  0  0  0  0  0  0  0  0  0  0
    6.8041    3.9382    0.4536 C   0  0  0  0  0  0  0  0  0  0  0  0
    7.5508    4.9832    0.9517 O   0  0  0  0  0  0  0  0  0  0  0  0
    6.2774    4.0285   -0.6787 O   0  0  0  0  0  0  0  0  0  0  0  0
    1.6161   -4.4279   -0.4535 H   0  0  0  0  0  0  0  0  0  0  0  0
    2.9011   -3.4137    0.2926 H   0  0  0  0  0  0  0  0  0  0  0  0
    1.4094   -2.6206   -0.4362 H   0  0  0  0  0  0  0  0  0  0  0  0
    0.1572   -4.0907    1.2616 H   0  0  0  0  0  0  0  0  0  0  0  0
    1.7188   -4.5505    1.9022 H   0  0  0  0  0  0  0  0  0  0  0  0
    2.2395   -2.5060    2.8013 H   0  0  0  0  0  0  0  0  0  0  0  0
   -0.6137   -3.2933    3.3123 H   0  0  0  0  0  0  0  0  0  0  0  0
    0.3889   -2.2675    4.4022 H   0  0  0  0  0  0  0  0  0  0  0  0
    0.8621   -3.9933    4.0201 H   0  0  0  0  0  0  0  0  0  0  0  0
    0.8708   -0.5175    3.0362 H   0  0  0  0  0  0  0  0  0  0  0  0
   -1.3183   -0.8902    2.7739 H   0  0  0  0  0  0  0  0  0  0  0  0
   -3.1442    0.1227    1.4546 H   0  0  0  0  0  0  0  0  0  0  0  0
   -4.0382   -2.1784    1.9532 H   0  0  0  0  0  0  0  0  0  0  0  0
   -5.0152   -1.0833    1.0029 H   0  0  0  0  0  0  0  0  0  0  0  0
   -5.9301   -1.9017   -1.2969 H   0  0  0  0  0  0  0  0  0  0  0  0
   -5.7533   -4.1424   -2.5844 H   0  0  0  0  0  0  0  0  0  0  0  0
   -4.2226   -6.4293   -2.3446 H   0  0  0  0  0  0  0  0  0  0  0  0
   -2.4527   -7.5376   -1.0421 H   0  0  0  0  0  0  0  0  0  0  0  0
   -1.4540   -6.3281    0.9020 H   0  0  0  0  0  0  0  0  0  0  0  0
   -2.2362   -4.1172    1.4432 H   0  0  0  0  0  0  0  0  0  0  0  0
   -3.1012   -0.6399   -1.4371 H   0  0  0  0  0  0  0  0  0  0  0  0
   -3.3201    1.8194   -2.6173 H   0  0  0  0  0  0  0  0  0  0  0  0
   -4.9310    0.9446   -2.5427 H   0  0  0  0  0  0  0  0  0  0  0  0
   -4.4707    3.8329   -2.3287 H   0  0  0  0  0  0  0  0  0  0  0  0
   -8.3204    6.3175   -1.6533 H   0  0  0  0  0  0  0  0  0  0  0  0
   -9.6944    5.8293   -0.5278 H   0  0  0  0  0  0  0  0  0  0  0  0
   -8.1654    6.4231    0.1711 H   0  0  0  0  0  0  0  0  0  0  0  0
  -10.0396    4.1142   -1.5353 H   0  0  0  0  0  0  0  0  0  0  0  0
   -8.6591    3.3880   -2.4119 H   0  0  0  0  0  0  0  0  0  0  0  0
   -9.2117    2.5852   -0.8896 H   0  0  0  0  0  0  0  0  0  0  0  0
   -8.4584    2.8823    0.8254 H   0  0  0  0  0  0  0  0  0  0  0  0
   -7.0317    4.0023    1.2050 H   0  0  0  0  0  0  0  0  0  0  0  0
   -8.7257    4.5661    1.4010 H   0  0  0  0  0  0  0  0  0  0  0  0
    3.2944   -1.1095    1.9442 H   0  0  0  0  0  0  0  0  0  0  0  0
    4.6262   -0.6978    0.0280 H   0  0  0  0  0  0  0  0  0  0  0  0
    4.3376    1.3849   -1.3587 H   0  0  0  0  0  0  0  0  0  0  0  0
    2.6668    1.5219   -0.8098 H   0  0  0  0  0  0  0  0  0  0  0  0
    4.1878   -1.6263   -2.9096 H   0  0  0  0  0  0  0  0  0  0  0  0
    6.1062    1.5977   -0.4656 H   0  0  0  0  0  0  0  0  0  0  0  0
    6.1580    2.9291    2.2485 H   0  0  0  0  0  0  0  0  0  0  0  0
    7.7903    1.1513    2.2325 H   0  0  0  0  0  0  0  0  0  0  0  0
    8.6150    2.7218    2.1682 H   0  0  0  0  0  0  0  0  0  0  0  0
    7.7444   -0.2816    0.2744 H   0  0  0  0  0  0  0  0  0  0  0  0
    8.9845   -1.0888   -1.7402 H   0  0  0  0  0  0  0  0  0  0  0  0
   10.6135    0.3272   -2.8101 H   0  0  0  0  0  0  0  0  0  0  0  0
   11.0433    2.5929   -1.8667 H   0  0  0  0  0  0  0  0  0  0  0  0
    9.8164    3.3899    0.1281 H   0  0  0  0  0  0  0  0  0  0  0  0
    8.1241    5.5699    0.3541 H   0  0  0  0  0  0  0  0  0  0  0  0
  1  2  1  0
  2  3  1  0
  3  4  1  0
  3  5  1  0
  5  6  1  0
  6  7  1  0
  7  8  2  0
  7  9  1  0
  9 10  1  0
 10 11  1  0
 11 12  2  0
 12 13  1  0
 13 14  1  0
 14 15  2  0
 15 16  1  0
 16 17  2  0
 17 18  1  0
 18 19  2  0
  9 20  1  0
 20 21  1  0
 21 22  2  0
 21 23  1  0
 23 24  1  0
 24 25  1  0
 25 26  2  0
 25 27  1  0
 27 28  1  0
 28 29  1  0
 28 30  1  0
 28 31  1  0
  5 32  1  0
 32 33  2  0
 32 34  1  0
 34 35  1  0
 35 36  1  0
 36 37  1  0
 37 38  1  0
 37 39  2  0
 35 40  1  0
 40 41  2  0
 40 42  1  0
 42 43  1  0
 43 44  1  0
 44 45  1  0
 45 46  2  0
 46 47  1  0
 47 48  2  0
 48 49  1  0
 49 50  2  0
 43 51  1  0
 51 52  1  0
 51 53  2  0
 19 11  1  0
 50 45  1  0
 19 14  1  0
  1 54  1  0
  1 55  1  0
  1 56  1  0
  2 57  1  0
  2 58  1  0
  3 59  1  1
  4 60  1  0
  4 61  1  0
  4 62  1  0
  5 63  1  1
  6 64  1  0
  9 65  1  1
 10 66  1  0
 10 67  1  0
 12 68  1  0
 13 69  1  0
 15 70  1  0
 16 71  1  0
 17 72  1  0
 18 73  1  0
 20 74  1  0
 23 75  1  0
 23 76  1  0
 24 77  1  0
 29 78  1  0
 29 79  1  0
 29 80  1  0
 30 81  1  0
 30 82  1  0
 30 83  1  0
 31 84  1  0
 31 85  1  0
 31 86  1  0
 34 87  1  0
 35 88  1  6
 36 89  1  0
 36 90  1  0
 38 91  1  0
 42 92  1  0
 43 93  1  1
 44 94  1  0
 44 95  1  0
 46 96  1  0
 47 97  1  0
 48 98  1  0
 49 99  1  0
 50100  1  0
 52101  1  0
M  END
$$$$
[H]c1c([H])c([H])c2c(c1[H])c1c3c(c4c5c([H])c([H])c([H])c([H])c5n5c4c1n2[C@]1([H])O[C@]5(C([H])([H])[H])[C@@]([H])(OC([H])([H])[H])[C@]([H])(N([H])C([H])([H])[H])C1([H])[H])C([H])([H])N([H])C3=O
     RDKit          3D

 61 68  0  0  0  0  0  0  0  0999 V2000
   -5.0032    2.3015   -0.0847 C   0  0  0  0  0  0  0  0  0  0  0  0
   -4.2911    1.1206   -0.5239 N   0  0  0  0  0  0  0  0  0  0  0  0
   -3.1564    0.9314    0.3042 C   0  0  2  0  0  0  0  0  0  0  0  0
   -2.1540    2.1226    0.1663 C   0  0  0  0  0  0  0  0  0  0  0  0
   -0.9665    1.4540   -0.0205 C   0  0  1  0  0  0  0  0  0  0  0  0
   -1.1415    0.7448   -1.1981 O   0  0  0  0  0  0  0  0  0  0  0  0
   -1.4119   -0.5987   -0.7868 C   0  0  2  0  0  0  0  0  0  0  0  0
   -1.8712   -1.2254   -2.1322 C   0  0  0  0  0  0  0  0  0  0  0  0
   -2.4889   -0.4501    0.1598 C   0  0  1  0  0  0  0  0  0  0  0  0
   -2.3890   -1.1153    1.3880 O   0  0  0  0  0  0  0  0  0  0  0  0
   -3.3269   -2.1274    1.5521 C   0  0  0  0  0  0  0  0  0  0  0  0
   -0.1378   -1.2020   -0.4914 N   0  0  0  0  0  0  0  0  0  0  0  0
    0.1616   -2.5344   -0.6109 C   0  0  0  0  0  0  0  0  0  0  0  0
   -0.5901   -3.6465   -0.8619 C   0  0  0  0  0  0  0  0  0  0  0  0
    0.0056   -4.9014   -0.9123 C   0  0  0  0  0  0  0  0  0  0  0  0
    1.3589   -5.0700   -0.7130 C   0  0  0  0  0  0  0  0  0  0  0  0
    2.1437   -3.9569   -0.4556 C   0  0  0  0  0  0  0  0  0  0  0  0
    1.5172   -2.7445   -0.4151 C   0  0  0  0  0  0  0  0  0  0  0  0
    2.0596   -1.5148   -0.1645 C   0  0  0  0  0  0  0  0  0  0  0  0
    3.3310   -1.0167    0.0798 C   0  0  0  0  0  0  0  0  0  0  0  0
    4.6039   -1.7769    0.1721 C   0  0  0  0  0  0  0  0  0  0  0  0
    5.6037   -0.7850    0.4503 N   0  0  0  0  0  0  0  0  0  0  0  0
    5.0034    0.5280    0.5134 C   0  0  0  0  0  0  0  0  0  0  0  0
    5.7188    1.5160    0.7371 O   0  0  0  0  0  0  0  0  0  0  0  0
    3.6006    0.3262    0.2783 C   0  0  0  0  0  0  0  0  0  0  0  0
    2.5644    1.2461    0.2408 C   0  0  0  0  0  0  0  0  0  0  0  0
    2.4247    2.5831    0.4378 C   0  0  0  0  0  0  0  0  0  0  0  0
    3.2960    3.5951    0.7015 C   0  0  0  0  0  0  0  0  0  0  0  0
    2.7602    4.8881    0.8432 C   0  0  0  0  0  0  0  0  0  0  0  0
    1.4157    5.1498    0.7252 C   0  0  0  0  0  0  0  0  0  0  0  0
    0.5372    4.1127    0.4564 C   0  0  0  0  0  0  0  0  0  0  0  0
    1.0796    2.8483    0.3203 C   0  0  0  0  0  0  0  0  0  0  0  0
    0.4024    1.7469    0.0621 N   0  0  0  0  0  0  0  0  0  0  0  0
    1.3106    0.7318   -0.0025 C   0  0  0  0  0  0  0  0  0  0  0  0
    1.0507   -0.6266   -0.2113 C   0  0  0  0  0  0  0  0  0  0  0  0
   -4.4222    3.2206   -0.0758 H   0  0  0  0  0  0  0  0  0  0  0  0
   -5.9751    2.4312   -0.6421 H   0  0  0  0  0  0  0  0  0  0  0  0
   -5.3325    2.1331    0.9827 H   0  0  0  0  0  0  0  0  0  0  0  0
   -4.9231    0.3185   -0.4524 H   0  0  0  0  0  0  0  0  0  0  0  0
   -3.5204    0.9543    1.3717 H   0  0  0  0  0  0  0  0  0  0  0  0
   -2.2319    2.7634    1.0681 H   0  0  0  0  0  0  0  0  0  0  0  0
   -2.5549    2.7584   -0.6810 H   0  0  0  0  0  0  0  0  0  0  0  0
   -1.0177    0.7572    0.9341 H   0  0  0  0  0  0  0  0  0  0  0  0
   -2.1640   -0.4180   -2.8609 H   0  0  0  0  0  0  0  0  0  0  0  0
   -1.0623   -1.7738   -2.6232 H   0  0  0  0  0  0  0  0  0  0  0  0
   -2.8063   -1.7859   -1.9703 H   0  0  0  0  0  0  0  0  0  0  0  0
   -3.3692   -1.0206   -0.3155 H   0  0  0  0  0  0  0  0  0  0  0  0
   -4.3685   -1.7465    1.5031 H   0  0  0  0  0  0  0  0  0  0  0  0
   -3.1360   -2.7642    2.4105 H   0  0  0  0  0  0  0  0  0  0  0  0
   -3.2309   -2.7727    0.6280 H   0  0  0  0  0  0  0  0  0  0  0  0
   -1.6587   -3.5713   -1.0137 H   0  0  0  0  0  0  0  0  0  0  0  0
   -0.5879   -5.7740   -1.1105 H   0  0  0  0  0  0  0  0  0  0  0  0
    1.8233   -6.0462   -0.7522 H   0  0  0  0  0  0  0  0  0  0  0  0
    3.2016   -4.0714   -0.2980 H   0  0  0  0  0  0  0  0  0  0  0  0
    4.5688   -2.4736    1.0276 H   0  0  0  0  0  0  0  0  0  0  0  0
    4.8295   -2.3223   -0.7651 H   0  0  0  0  0  0  0  0  0  0  0  0
    6.6092   -1.0259    0.5823 H   0  0  0  0  0  0  0  0  0  0  0  0
    4.3503    3.4578    0.8021 H   0  0  0  0  0  0  0  0  0  0  0  0
    3.4660    5.6873    1.0540 H   0  0  0  0  0  0  0  0  0  0  0  0
    1.0161    6.1615    0.8387 H   0  0  0  0  0  0  0  0  0  0  0  0
   -0.5241    4.2689    0.3538 H   0  0  0  0  0  0  0  0  0  0  0  0
  1  2  1  0
  2  3  1  0
  3  4  1  0
  4  5  1  0
  5  6  1  0
  6  7  1  0
  7  8  1  6
  7  9  1  0
  9 10  1  0
 10 11  1  0
  7 12  1  0
 12 13  1  0
 13 14  2  0
 14 15  1  0
 15 16  2  0
 16 17  1  0
 17 18  2  0
 18 19  1  0
 19 20  2  0
 20 21  1  0
 21 22  1  0
 22 23  1  0
 23 24  2  0
 23 25  1  0
 25 26  2  0
 26 27  1  0
 27 28  2  0
 28 29  1  0
 29 30  2  0
 30 31  1  0
 31 32  2  0
 32 33  1  0
 33 34  1  0
 34 35  2  0
  9  3  1  0
 35 12  1  0
 33  5  1  0
 18 13  1  0
 35 19  1  0
 25 20  1  0
 34 26  1  0
 32 27  1  0
  1 36  1  0
  1 37  1  0
  1 38  1  0
  2 39  1  0
  3 40  1  1
  4 41  1  0
  4 42  1  0
  5 43  1  1
  8 44  1  0
  8 45  1  0
  8 46  1  0
  9 47  1  6
 11 48  1  0
 11 49  1  0
 11 50  1  0
 14 51  1  0
 15 52  1  0
 16 53  1  0
 17 54  1  0
 21 55  1  0
 21 56  1  0
 22 57  1  0
 28 58  1  0
 29 59  1  0
 30 60  1  0
 31 61  1  0
M  END
$$$$
[H]C([H])([H])C1(C([H])([H])[H])C(=O)C([H])([H])C([H])([H])[C@]2(C([H])([H])[H])[C@@]3([H])C([H])([H])C([H])([H])[C@]4(C([H])([H])[H])[C@@]([H])(C([H])([H])[H])C([H])([H])C([H])([H])C([H])([H])[C@@]4([H])[C@]3([H])C([H])([H])[C@@]([H])(C([H])([H])[H])[C@]2(C([H])([H])[H])[C@]1([H])C([H])([H])[H]
     RDKit          3D

 74 77  0  0  0  0  0  0  0  0999 V2000
   -1.3277    1.7729   -2.1844 C   0  0  0  0  0  0  0  0  0  0  0  0
   -1.3629    1.1982   -0.7564 C   0  0  2  0  0  0  0  0  0  0  0  0
    0.0102    1.4698   -0.2053 C   0  0  0  0  0  0  0  0  0  0  0  0
    0.9540    0.3564   -0.3496 C   0  0  1  0  0  0  0  0  0  0  0  0
    2.2544    0.7153    0.3662 C   0  0  2  0  0  0  0  0  0  0  0  0
    2.6983    2.1103    0.0773 C   0  0  0  0  0  0  0  0  0  0  0  0
    4.0071    2.3504    0.7930 C   0  0  0  0  0  0  0  0  0  0  0  0
    5.0429    1.3186    0.5159 C   0  0  0  0  0  0  0  0  0  0  0  0
    4.5234   -0.0909    0.7640 C   0  0  2  0  0  0  0  0  0  0  0  0
    5.6290   -1.0419    0.4643 C   0  0  0  0  0  0  0  0  0  0  0  0
    3.2659   -0.3380   -0.0253 C   0  0  2  0  0  0  0  0  0  0  0  0
    3.6194   -0.2737   -1.4902 C   0  0  0  0  0  0  0  0  0  0  0  0
    2.7526   -1.6828    0.3258 C   0  0  0  0  0  0  0  0  0  0  0  0
    1.3486   -1.9728   -0.2270 C   0  0  0  0  0  0  0  0  0  0  0  0
    0.4160   -0.8727    0.3017 C   0  0  2  0  0  0  0  0  0  0  0  0
   -1.0252   -1.1502    0.1774 C   0  0  1  0  0  0  0  0  0  0  0  0
   -1.1022   -2.5879   -0.3965 C   0  0  0  0  0  0  0  0  0  0  0  0
   -1.6172   -1.3766    1.5621 C   0  0  0  0  0  0  0  0  0  0  0  0
   -1.9303   -0.1794    2.3484 C   0  0  0  0  0  0  0  0  0  0  0  0
   -3.0242    0.6519    1.8601 C   0  0  0  0  0  0  0  0  0  0  0  0
   -3.2461    1.6755    2.4614 O   0  0  0  0  0  0  0  0  0  0  0  0
   -3.9216    0.4110    0.7035 C   0  0  0  0  0  0  0  0  0  0  0  0
   -4.6069    1.6988    0.3112 C   0  0  0  0  0  0  0  0  0  0  0  0
   -5.0714   -0.4307    1.3099 C   0  0  0  0  0  0  0  0  0  0  0  0
   -3.3083   -0.3631   -0.3942 C   0  0  1  0  0  0  0  0  0  0  0  0
   -4.1966   -0.3246   -1.6080 C   0  0  0  0  0  0  0  0  0  0  0  0
   -1.8409   -0.1980   -0.6715 C   0  0  1  0  0  0  0  0  0  0  0  0
   -1.6938   -0.7282   -2.1171 C   0  0  0  0  0  0  0  0  0  0  0  0
   -0.7876    2.7639   -2.0721 H   0  0  0  0  0  0  0  0  0  0  0  0
   -2.3108    2.0344   -2.5605 H   0  0  0  0  0  0  0  0  0  0  0  0
   -0.6924    1.1811   -2.8493 H   0  0  0  0  0  0  0  0  0  0  0  0
   -2.0138    1.9580   -0.2313 H   0  0  0  0  0  0  0  0  0  0  0  0
    0.4685    2.3693   -0.7194 H   0  0  0  0  0  0  0  0  0  0  0  0
    0.0003    1.7970    0.8700 H   0  0  0  0  0  0  0  0  0  0  0  0
    1.2806    0.1839   -1.4181 H   0  0  0  0  0  0  0  0  0  0  0  0
    2.0600    0.6026    1.4457 H   0  0  0  0  0  0  0  0  0  0  0  0
    2.7581    2.3193   -1.0014 H   0  0  0  0  0  0  0  0  0  0  0  0
    1.9620    2.7905    0.5999 H   0  0  0  0  0  0  0  0  0  0  0  0
    3.7662    2.3120    1.8935 H   0  0  0  0  0  0  0  0  0  0  0  0
    4.4186    3.3387    0.5236 H   0  0  0  0  0  0  0  0  0  0  0  0
    5.4591    1.4070   -0.5082 H   0  0  0  0  0  0  0  0  0  0  0  0
    5.8744    1.4660    1.2356 H   0  0  0  0  0  0  0  0  0  0  0  0
    4.2689   -0.1645    1.8470 H   0  0  0  0  0  0  0  0  0  0  0  0
    6.2379   -0.6433   -0.3936 H   0  0  0  0  0  0  0  0  0  0  0  0
    6.3435   -1.0018    1.3383 H   0  0  0  0  0  0  0  0  0  0  0  0
    5.3421   -2.0838    0.3424 H   0  0  0  0  0  0  0  0  0  0  0  0
    3.8350    0.7741   -1.7897 H   0  0  0  0  0  0  0  0  0  0  0  0
    4.6044   -0.8137   -1.6036 H   0  0  0  0  0  0  0  0  0  0  0  0
    2.9169   -0.7949   -2.1437 H   0  0  0  0  0  0  0  0  0  0  0  0
    3.4024   -2.4707   -0.1556 H   0  0  0  0  0  0  0  0  0  0  0  0
    2.7967   -1.9061    1.4167 H   0  0  0  0  0  0  0  0  0  0  0  0
    1.4248   -1.9238   -1.3285 H   0  0  0  0  0  0  0  0  0  0  0  0
    1.1199   -2.9670    0.1273 H   0  0  0  0  0  0  0  0  0  0  0  0
    0.7065   -0.8073    1.3960 H   0  0  0  0  0  0  0  0  0  0  0  0
   -0.8306   -3.3275    0.4198 H   0  0  0  0  0  0  0  0  0  0  0  0
   -2.1291   -2.9029   -0.6290 H   0  0  0  0  0  0  0  0  0  0  0  0
   -0.4859   -2.6951   -1.2879 H   0  0  0  0  0  0  0  0  0  0  0  0
   -2.4415   -2.1111    1.5720 H   0  0  0  0  0  0  0  0  0  0  0  0
   -0.7869   -1.9205    2.1166 H   0  0  0  0  0  0  0  0  0  0  0  0
   -2.2424   -0.5521    3.3714 H   0  0  0  0  0  0  0  0  0  0  0  0
   -0.9974    0.4124    2.5805 H   0  0  0  0  0  0  0  0  0  0  0  0
   -4.6613    1.8511   -0.7853 H   0  0  0  0  0  0  0  0  0  0  0  0
   -5.6590    1.7786    0.6635 H   0  0  0  0  0  0  0  0  0  0  0  0
   -4.1088    2.5946    0.7445 H   0  0  0  0  0  0  0  0  0  0  0  0
   -6.0128   -0.2459    0.7442 H   0  0  0  0  0  0  0  0  0  0  0  0
   -5.2571   -0.1128    2.3637 H   0  0  0  0  0  0  0  0  0  0  0  0
   -4.8585   -1.4967    1.2443 H   0  0  0  0  0  0  0  0  0  0  0  0
   -3.4071   -1.4515   -0.0779 H   0  0  0  0  0  0  0  0  0  0  0  0
   -5.2496   -0.3587   -1.1960 H   0  0  0  0  0  0  0  0  0  0  0  0
   -4.1435    0.5397   -2.2392 H   0  0  0  0  0  0  0  0  0  0  0  0
   -4.1234   -1.2325   -2.2413 H   0  0  0  0  0  0  0  0  0  0  0  0
   -0.6501   -0.8093   -2.4186 H   0  0  0  0  0  0  0  0  0  0  0  0
   -2.2968   -0.0765   -2.8075 H   0  0  0  0  0  0  0  0  0  0  0  0
   -2.1471   -1.7218   -2.2525 H   0  0  0  0  0  0  0  0  0  0  0  0
  1  2  1  0
  2  3  1  0
  3  4  1  0
  4  5  1  0
  5  6  1  0
  6  7  1  0
  7  8  1  0
  8  9  1  0
  9 10  1  0
  9 11  1  0
 11 12  1  6
 11 13  1  0
 13 14  1  0
 14 15  1  0
 15 16  1  0
 16 17  1  6
 16 18  1  0
 18 19  1  0
 19 20  1  0
 20 21  2  0
 20 22  1  0
 22 23  1  0
 22 24  1  0
 22 25  1  0
 25 26  1  0
 25 27  1  0
 27 28  1  6
 27  2  1  0
 15  4  1  0
 27 16  1  0
 11  5  1  0
  1 29  1  0
  1 30  1  0
  1 31  1  0
  2 32  1  1
  3 33  1  0
  3 34  1  0
  4 35  1  6
  5 36  1  1
  6 37  1  0
  6 38  1  0
  7 39  1  0
  7 40  1  0
  8 41  1  0
  8 42  1  0
  9 43  1  1
 10 44  1  0
 10 45  1  0
 10 46  1  0
 12 47  1  0
 12 48  1  0
 12 49  1  0
 13 50  1  0
 13 51  1  0
 14 52  1  0
 14 53  1  0
 15 54  1  1
 17 55  1  0
 17 56  1  0
 17 57  1  0
 18 58  1  0
 18 59  1  0
 19 60  1  0
 19 61  1  0
 23 62  1  0
 23 63  1  0
 23 64  1  0
 24 65  1  0
 24 66  1  0
 24 67  1  0
 25 68  1  1
 26 69  1  0
 26 70  1  0
 26 71  1  0
 28 72  1  0
 28 73  1  0
 28 74  1  0
M  END
$$$$
[H]c1nc(N([H])C(=O)c2c([H])c([H])c(-c3nc([C@]4([H])C([H])([H])N5C(=O)C([H])([H])C([H])([H])[C@]5([H])C([H])([H])C4([H])[H])n4c([H])c([H])nc(N([H])[H])c34)c([H])c2[H])c([H])c(C(F)(F)F)c1[H]
     RDKit          3D

 63 68  0  0  0  0  0  0  0  0999 V2000
    1.1354    2.5301   -0.3548 N   0  0  0  0  0  0  0  0  0  0  0  0
   -0.2576    2.3933   -0.5564 C   0  0  0  0  0  0  0  0  0  0  0  0
   -0.9136    3.4329   -1.1835 N   0  0  0  0  0  0  0  0  0  0  0  0
   -2.2199    3.4047   -1.4192 C   0  0  0  0  0  0  0  0  0  0  0  0
   -2.9844    2.2989   -1.0277 C   0  0  0  0  0  0  0  0  0  0  0  0
   -2.3709    1.2882   -0.4204 N   0  0  0  0  0  0  0  0  0  0  0  0
   -2.8956    0.1207    0.0399 C   0  0  0  0  0  0  0  0  0  0  0  0
   -1.8510   -0.5398    0.5447 N   0  0  0  0  0  0  0  0  0  0  0  0
   -0.7021    0.1035    0.4451 C   0  0  0  0  0  0  0  0  0  0  0  0
    0.6963   -0.3098    0.6609 C   0  0  0  0  0  0  0  0  0  0  0  0
    1.5709    0.1796    1.5342 C   0  0  0  0  0  0  0  0  0  0  0  0
    2.9350   -0.1725    1.4430 C   0  0  0  0  0  0  0  0  0  0  0  0
    3.3777   -1.0115    0.4731 C   0  0  0  0  0  0  0  0  0  0  0  0
    2.4603   -1.5451   -0.4434 C   0  0  0  0  0  0  0  0  0  0  0  0
    1.1688   -1.1977   -0.3386 C   0  0  0  0  0  0  0  0  0  0  0  0
    4.7764   -1.2329    0.1172 C   0  0  0  0  0  0  0  0  0  0  0  0
    5.0902   -2.1302   -0.7036 O   0  0  0  0  0  0  0  0  0  0  0  0
    5.7779   -0.4274    0.6731 N   0  0  0  0  0  0  0  0  0  0  0  0
    7.1021   -0.4553    0.0615 C   0  0  0  0  0  0  0  0  0  0  0  0
    8.1335    0.2001    0.6038 C   0  0  0  0  0  0  0  0  0  0  0  0
    9.3292    0.2889   -0.1274 C   0  0  0  0  0  0  0  0  0  0  0  0
    9.3895   -0.3077   -1.3603 C   0  0  0  0  0  0  0  0  0  0  0  0
    8.3412   -0.9741   -1.8901 C   0  0  0  0  0  0  0  0  0  0  0  0
    7.2132   -1.0343   -1.1626 N   0  0  0  0  0  0  0  0  0  0  0  0
   10.5079    1.0382    0.4474 C   0  0  0  0  0  0  0  0  0  0  0  0
   10.0478    2.2915    0.8183 F   0  0  0  0  0  0  0  0  0  0  0  0
   10.9690    0.2836    1.4706 F   0  0  0  0  0  0  0  0  0  0  0  0
   11.4517    1.1303   -0.5598 F   0  0  0  0  0  0  0  0  0  0  0  0
   -1.0269    1.3173   -0.1807 C   0  0  0  0  0  0  0  0  0  0  0  0
   -4.2896   -0.3559   -0.0523 C   0  0  1  0  0  0  0  0  0  0  0  0
   -4.4500   -1.6548    0.7270 C   0  0  0  0  0  0  0  0  0  0  0  0
   -5.7655   -2.3055    0.3549 C   0  0  0  0  0  0  0  0  0  0  0  0
   -6.7400   -1.3628   -0.3230 C   0  0  1  0  0  0  0  0  0  0  0  0
   -8.1408   -1.6638    0.1118 C   0  0  0  0  0  0  0  0  0  0  0  0
   -8.8474   -0.4213   -0.4708 C   0  0  0  0  0  0  0  0  0  0  0  0
   -7.8289    0.6471   -0.2259 C   0  0  0  0  0  0  0  0  0  0  0  0
   -8.1170    1.8897   -0.2713 O   0  0  0  0  0  0  0  0  0  0  0  0
   -6.6004    0.0295    0.0374 N   0  0  0  0  0  0  0  0  0  0  0  0
   -5.3074    0.5614    0.5620 C   0  0  0  0  0  0  0  0  0  0  0  0
    1.4078    3.1040    0.4615 H   0  0  0  0  0  0  0  0  0  0  0  0
    1.8760    2.1125   -0.9233 H   0  0  0  0  0  0  0  0  0  0  0  0
   -2.7410    4.2357   -1.9354 H   0  0  0  0  0  0  0  0  0  0  0  0
   -4.0237    2.3770   -1.2821 H   0  0  0  0  0  0  0  0  0  0  0  0
    1.2430    0.8458    2.3264 H   0  0  0  0  0  0  0  0  0  0  0  0
    3.6480    0.2337    2.1634 H   0  0  0  0  0  0  0  0  0  0  0  0
    2.7810   -2.2118   -1.2015 H   0  0  0  0  0  0  0  0  0  0  0  0
    0.4106   -1.6033   -1.0180 H   0  0  0  0  0  0  0  0  0  0  0  0
    5.5770    0.2953    1.3615 H   0  0  0  0  0  0  0  0  0  0  0  0
    8.1326    0.6753    1.5822 H   0  0  0  0  0  0  0  0  0  0  0  0
   10.2948   -0.2432   -1.9332 H   0  0  0  0  0  0  0  0  0  0  0  0
    8.4228   -1.4155   -2.8893 H   0  0  0  0  0  0  0  0  0  0  0  0
   -4.5585   -0.6086   -1.1155 H   0  0  0  0  0  0  0  0  0  0  0  0
   -3.5990   -2.3130    0.6442 H   0  0  0  0  0  0  0  0  0  0  0  0
   -4.5329   -1.3260    1.7960 H   0  0  0  0  0  0  0  0  0  0  0  0
   -5.5535   -3.1210   -0.3444 H   0  0  0  0  0  0  0  0  0  0  0  0
   -6.2020   -2.7316    1.2727 H   0  0  0  0  0  0  0  0  0  0  0  0
   -6.7056   -1.5385   -1.4119 H   0  0  0  0  0  0  0  0  0  0  0  0
   -8.5471   -2.5910   -0.3028 H   0  0  0  0  0  0  0  0  0  0  0  0
   -8.1733   -1.6476    1.2177 H   0  0  0  0  0  0  0  0  0  0  0  0
   -9.0151   -0.6214   -1.5461 H   0  0  0  0  0  0  0  0  0  0  0  0
   -9.7564   -0.2007    0.0784 H   0  0  0  0  0  0  0  0  0  0  0  0
   -5.2723    1.6133    0.3693 H   0  0  0  0  0  0  0  0  0  0  0  0
   -5.2781    0.3534    1.6708 H   0  0  0  0  0  0  0  0  0  0  0  0
  1  2  1  0
  2  3  2  0
  3  4  1  0
  4  5  2  0
  5  6  1  0
  6  7  1  0
  7  8  2  0
  8  9  1  0
  9 10  1  0
 10 11  2  0
 11 12  1  0
 12 13  2  0
 13 14  1  0
 14 15  2  0
 13 16  1  0
 16 17  2  0
 16 18  1  0
 18 19  1  0
 19 20  2  0
 20 21  1  0
 21 22  2  0
 22 23  1  0
 23 24  2  0
 21 25  1  0
 25 26  1  0
 25 27  1  0
 25 28  1  0
  9 29  2  0
  7 30  1  0
 30 31  1  0
 31 32  1  0
 32 33  1  0
 33 34  1  0
 34 35  1  0
 35 36  1  0
 36 37  2  0
 36 38  1  0
 38 39  1  0
 29  2  1  0
 39 30  1  0
 29  6  1  0
 38 33  1  0
 15 10  1  0
 24 19  1  0
  1 40  1  0
  1 41  1  0
  4 42  1  0
  5 43  1  0
 11 44  1  0
 12 45  1  0
 14 46  1  0
 15 47  1  0
 18 48  1  0
 20 49  1  0
 22 50  1  0
 23 51  1  0
 30 52  1  6
 31 53  1  0
 31 54  1  0
 32 55  1  0
 32 56  1  0
 33 57  1  6
 34 58  1  0
 34 59  1  0
 35 60  1  0
 35 61  1  0
 39 62  1  0
 39 63  1  0
M  END
$$$$
[H]N=C(N([H])[H])N([H])C([H])([H])C([H])([H])C([H])([H])[C@@]([H])(C(=O)N1C([H])([H])C([H])([H])C([H])([H])[C@@]1([H])C(=O)N([H])[C@]([H])(C(=O)O[H])C([H])([H])c1c([H])c([H])c([H])c([H])c1[H])N([H])C(=O)[C@@]1([H])N([H])C([H])([H])c2c([H])c([H])c([H])c([H])c2C1([H])[H]
     RDKit          3D

 81 84  0  0  0  0  0  0  0  0999 V2000
    0.1713    5.7805    0.8056 N   0  0  0  0  0  0  0  0  0  0  0  0
   -0.4636    5.2938   -0.3545 C   0  0  0  0  0  0  0  0  0  0  0  0
   -1.1971    6.1487   -1.0211 N   0  0  0  0  0  0  0  0  0  0  0  0
   -0.3581    3.9690   -0.8321 N   0  0  0  0  0  0  0  0  0  0  0  0
   -1.5106    3.3204   -1.4057 C   0  0  0  0  0  0  0  0  0  0  0  0
   -2.5157    3.0859   -0.2973 C   0  0  0  0  0  0  0  0  0  0  0  0
   -1.9823    2.2077    0.7937 C   0  0  0  0  0  0  0  0  0  0  0  0
   -1.6025    0.8124    0.3218 C   0  0  2  0  0  0  0  0  0  0  0  0
   -2.8838    0.2750   -0.2017 N   0  0  0  0  0  0  0  0  0  0  0  0
   -2.9633   -0.3065   -1.4736 C   0  0  0  0  0  0  0  0  0  0  0  0
   -1.9581   -0.3877   -2.2009 O   0  0  0  0  0  0  0  0  0  0  0  0
   -4.2771   -0.8433   -1.9725 C   0  0  2  0  0  0  0  0  0  0  0  0
   -4.8974   -1.7499   -0.9474 C   0  0  0  0  0  0  0  0  0  0  0  0
   -4.5761   -3.1810   -1.2008 C   0  0  0  0  0  0  0  0  0  0  0  0
   -4.2398   -4.0581   -0.2190 C   0  0  0  0  0  0  0  0  0  0  0  0
   -3.9488   -5.3880   -0.5021 C   0  0  0  0  0  0  0  0  0  0  0  0
   -4.0106   -5.7926   -1.8071 C   0  0  0  0  0  0  0  0  0  0  0  0
   -4.3586   -4.8849   -2.8199 C   0  0  0  0  0  0  0  0  0  0  0  0
   -4.6425   -3.5818   -2.5319 C   0  0  0  0  0  0  0  0  0  0  0  0
   -5.0177   -2.5177   -3.4871 C   0  0  0  0  0  0  0  0  0  0  0  0
   -4.1467   -1.3966   -3.2725 N   0  0  0  0  0  0  0  0  0  0  0  0
   -1.2345    0.0329    1.5336 C   0  0  0  0  0  0  0  0  0  0  0  0
   -2.1171   -0.7798    1.9912 O   0  0  0  0  0  0  0  0  0  0  0  0
   -0.0192    0.0900    2.2315 N   0  0  0  0  0  0  0  0  0  0  0  0
    0.2901   -0.6555    3.4363 C   0  0  0  0  0  0  0  0  0  0  0  0
    1.0769    0.4108    4.2143 C   0  0  0  0  0  0  0  0  0  0  0  0
    2.0540    0.8230    3.1155 C   0  0  0  0  0  0  0  0  0  0  0  0
    1.1463    0.8350    1.9008 C   0  0  1  0  0  0  0  0  0  0  0  0
    1.8748    0.2967    0.7300 C   0  0  0  0  0  0  0  0  0  0  0  0
    1.4469   -0.7276    0.1678 O   0  0  0  0  0  0  0  0  0  0  0  0
    3.0427    0.9294    0.2399 N   0  0  0  0  0  0  0  0  0  0  0  0
    3.7758    0.4660   -0.9070 C   0  0  1  0  0  0  0  0  0  0  0  0
    4.4025   -0.8803   -0.7908 C   0  0  0  0  0  0  0  0  0  0  0  0
    5.3978   -1.0126    0.2892 C   0  0  0  0  0  0  0  0  0  0  0  0
    5.0841   -1.4335    1.5526 C   0  0  0  0  0  0  0  0  0  0  0  0
    6.0381   -1.5506    2.5536 C   0  0  0  0  0  0  0  0  0  0  0  0
    7.3493   -1.2400    2.2936 C   0  0  0  0  0  0  0  0  0  0  0  0
    7.6938   -0.8093    1.0147 C   0  0  0  0  0  0  0  0  0  0  0  0
    6.7242   -0.6999    0.0305 C   0  0  0  0  0  0  0  0  0  0  0  0
    2.9323    0.5740   -2.1505 C   0  0  0  0  0  0  0  0  0  0  0  0
    3.5141    0.1454   -3.3376 O   0  0  0  0  0  0  0  0  0  0  0  0
    1.7842    1.0262   -2.0803 O   0  0  0  0  0  0  0  0  0  0  0  0
    0.2253    5.1901    1.6503 H   0  0  0  0  0  0  0  0  0  0  0  0
    0.5766    6.7375    0.7884 H   0  0  0  0  0  0  0  0  0  0  0  0
   -1.3278    7.1298   -0.7455 H   0  0  0  0  0  0  0  0  0  0  0  0
    0.5390    3.4573   -0.7748 H   0  0  0  0  0  0  0  0  0  0  0  0
   -1.9709    3.9707   -2.2080 H   0  0  0  0  0  0  0  0  0  0  0  0
   -1.2630    2.3606   -1.8674 H   0  0  0  0  0  0  0  0  0  0  0  0
   -3.4361    2.7090   -0.7601 H   0  0  0  0  0  0  0  0  0  0  0  0
   -2.7597    4.0704    0.1905 H   0  0  0  0  0  0  0  0  0  0  0  0
   -2.7820    2.0502    1.5664 H   0  0  0  0  0  0  0  0  0  0  0  0
   -1.1621    2.7226    1.3170 H   0  0  0  0  0  0  0  0  0  0  0  0
   -0.8621    0.8295   -0.4611 H   0  0  0  0  0  0  0  0  0  0  0  0
   -3.7349    0.3340    0.3920 H   0  0  0  0  0  0  0  0  0  0  0  0
   -4.9477    0.0643   -2.0743 H   0  0  0  0  0  0  0  0  0  0  0  0
   -4.5972   -1.5188    0.0850 H   0  0  0  0  0  0  0  0  0  0  0  0
   -6.0227   -1.6860   -1.0400 H   0  0  0  0  0  0  0  0  0  0  0  0
   -4.1927   -3.7284    0.8123 H   0  0  0  0  0  0  0  0  0  0  0  0
   -3.6879   -6.0352    0.3237 H   0  0  0  0  0  0  0  0  0  0  0  0
   -3.7893   -6.8098   -2.0335 H   0  0  0  0  0  0  0  0  0  0  0  0
   -4.4101   -5.1960   -3.8558 H   0  0  0  0  0  0  0  0  0  0  0  0
   -6.0762   -2.2352   -3.2673 H   0  0  0  0  0  0  0  0  0  0  0  0
   -4.9488   -2.9147   -4.5276 H   0  0  0  0  0  0  0  0  0  0  0  0
   -3.1696   -1.7215   -3.4426 H   0  0  0  0  0  0  0  0  0  0  0  0
    0.9490   -1.5170    3.2440 H   0  0  0  0  0  0  0  0  0  0  0  0
   -0.5916   -0.9310    4.0169 H   0  0  0  0  0  0  0  0  0  0  0  0
    1.5805   -0.0088    5.0967 H   0  0  0  0  0  0  0  0  0  0  0  0
    0.3957    1.2408    4.3979 H   0  0  0  0  0  0  0  0  0  0  0  0
    2.7735   -0.0161    3.0486 H   0  0  0  0  0  0  0  0  0  0  0  0
    2.5156    1.7970    3.3247 H   0  0  0  0  0  0  0  0  0  0  0  0
    0.9811    1.9144    1.6780 H   0  0  0  0  0  0  0  0  0  0  0  0
    3.4007    1.8036    0.7545 H   0  0  0  0  0  0  0  0  0  0  0  0
    4.6150    1.1834   -1.1014 H   0  0  0  0  0  0  0  0  0  0  0  0
    3.5971   -1.6274   -0.5766 H   0  0  0  0  0  0  0  0  0  0  0  0
    4.9131   -1.1633   -1.7566 H   0  0  0  0  0  0  0  0  0  0  0  0
    4.0660   -1.6924    1.8180 H   0  0  0  0  0  0  0  0  0  0  0  0
    5.7434   -1.8901    3.5456 H   0  0  0  0  0  0  0  0  0  0  0  0
    8.1246   -1.3205    3.0579 H   0  0  0  0  0  0  0  0  0  0  0  0
    8.7346   -0.5728    0.8493 H   0  0  0  0  0  0  0  0  0  0  0  0
    7.0459   -0.3612   -0.9443 H   0  0  0  0  0  0  0  0  0  0  0  0
    4.0777    0.7351   -3.9238 H   0  0  0  0  0  0  0  0  0  0  0  0
  1  2  1  0
  2  3  2  3
  2  4  1  0
  4  5  1  0
  5  6  1  0
  6  7  1  0
  7  8  1  0
  8  9  1  0
  9 10  1  0
 10 11  2  0
 10 12  1  0
 12 13  1  0
 13 14  1  0
 14 15  2  0
 15 16  1  0
 16 17  2  0
 17 18  1  0
 18 19  2  0
 19 20  1  0
 20 21  1  0
  8 22  1  0
 22 23  2  0
 22 24  1  0
 24 25  1  0
 25 26  1  0
 26 27  1  0
 27 28  1  0
 28 29  1  0
 29 30  2  0
 29 31  1  0
 31 32  1  0
 32 33  1  0
 33 34  1  0
 34 35  2  0
 35 36  1  0
 36 37  2  0
 37 38  1  0
 38 39  2  0
 32 40  1  0
 40 41  1  0
 40 42  2  0
 21 12  1  0
 28 24  1  0
 39 34  1  0
 19 14  1  0
  1 43  1  0
  1 44  1  0
  3 45  1  0
  4 46  1  0
  5 47  1  0
  5 48  1  0
  6 49  1  0
  6 50  1  0
  7 51  1  0
  7 52  1  0
  8 53  1  6
  9 54  1  0
 12 55  1  6
 13 56  1  0
 13 57  1  0
 15 58  1  0
 16 59  1  0
 17 60  1  0
 18 61  1  0
 20 62  1  0
 20 63  1  0
 21 64  1  0
 25 65  1  0
 25 66  1  0
 26 67  1  0
 26 68  1  0
 27 69  1  0
 27 70  1  0
 28 71  1  6
 31 72  1  0
 32 73  1  6
 33 74  1  0
 33 75  1  0
 35 76  1  0
 36 77  1  0
 37 78  1  0
 38 79  1  0
 39 80  1  0
 41 81  1  0
M  END
$$$$
[H]Oc1c([H])c([H])c(C(=O)/C([H])=C(\[H])c2c([H])c([H])c(O[H])c(O[H])c2[H])c([H])c1[H]
     RDKit          3D

 31 32  0  0  0  0  0  0  0  0999 V2000
   -6.2261   -0.2927   -0.7213 O   0  0  0  0  0  0  0  0  0  0  0  0
   -4.8301   -0.2509   -0.5186 C   0  0  0  0  0  0  0  0  0  0  0  0
   -3.9536   -0.2738   -1.5652 C   0  0  0  0  0  0  0  0  0  0  0  0
   -2.6072   -0.2336   -1.3734 C   0  0  0  0  0  0  0  0  0  0  0  0
   -2.0575   -0.1667   -0.0898 C   0  0  0  0  0  0  0  0  0  0  0  0
   -0.5949   -0.1256    0.0584 C   0  0  0  0  0  0  0  0  0  0  0  0
    0.0059   -0.0629    1.2024 C   0  0  0  0  0  0  0  0  0  0  0  0
    1.3839   -0.0114    1.5218 C   0  0  0  0  0  0  0  0  0  0  0  0
    1.6353   -0.0315    2.8047 O   0  0  0  0  0  0  0  0  0  0  0  0
    2.5473    0.0557    0.7006 C   0  0  0  0  0  0  0  0  0  0  0  0
    3.8125   -0.2436    1.2722 C   0  0  0  0  0  0  0  0  0  0  0  0
    4.9825   -0.1488    0.5890 C   0  0  0  0  0  0  0  0  0  0  0  0
    4.9766    0.2532   -0.7201 C   0  0  0  0  0  0  0  0  0  0  0  0
    6.1754    0.3575   -1.4473 O   0  0  0  0  0  0  0  0  0  0  0  0
    3.8012    0.5581   -1.3354 C   0  0  0  0  0  0  0  0  0  0  0  0
    2.6182    0.4529   -0.6106 C   0  0  0  0  0  0  0  0  0  0  0  0
   -2.9216   -0.1434    0.9580 C   0  0  0  0  0  0  0  0  0  0  0  0
   -4.3077   -0.1855    0.7447 C   0  0  0  0  0  0  0  0  0  0  0  0
   -5.1329   -0.1587    1.8555 O   0  0  0  0  0  0  0  0  0  0  0  0
   -6.8447   -0.2739    0.0792 H   0  0  0  0  0  0  0  0  0  0  0  0
   -4.3991   -0.3266   -2.5716 H   0  0  0  0  0  0  0  0  0  0  0  0
   -1.9140   -0.2514   -2.1966 H   0  0  0  0  0  0  0  0  0  0  0  0
    0.0080   -0.1894   -0.8254 H   0  0  0  0  0  0  0  0  0  0  0  0
   -0.7060   -0.0447    2.1007 H   0  0  0  0  0  0  0  0  0  0  0  0
    3.8288   -0.5716    2.3253 H   0  0  0  0  0  0  0  0  0  0  0  0
    5.9327   -0.3890    1.0686 H   0  0  0  0  0  0  0  0  0  0  0  0
    6.6314    1.2588   -1.4053 H   0  0  0  0  0  0  0  0  0  0  0  0
    3.7818    0.8819   -2.3852 H   0  0  0  0  0  0  0  0  0  0  0  0
    1.7226    0.7603   -1.1591 H   0  0  0  0  0  0  0  0  0  0  0  0
   -2.5591   -0.0918    1.9832 H   0  0  0  0  0  0  0  0  0  0  0  0
   -4.7894   -0.1111    2.7954 H   0  0  0  0  0  0  0  0  0  0  0  0
  1  2  1  0
  2  3  2  0
  3  4  1  0
  4  5  2  0
  5  6  1  0
  6  7  2  0
  7  8  1  0
  8  9  2  0
  8 10  1  0
 10 11  2  0
 11 12  1  0
 12 13  2  0
 13 14  1  0
 13 15  1  0
 15 16  2  0
  5 17  1  0
 17 18  2  0
 18 19  1  0
 18  2  1  0
 16 10  1  0
  1 20  1  0
  3 21  1  0
  4 22  1  0
  6 23  1  0
  7 24  1  0
 11 25  1  0
 12 26  1  0
 14 27  1  0
 15 28  1  0
 16 29  1  0
 17 30  1  0
 19 31  1  0
M  END
$$$$
[H]c1c([H])c([H])c(N2C([H])([H])N([H])C(=O)C23C([H])([H])C([H])([H])N(C(=O)c2c([H])c([H])c(-c4c([H])c([H])c(F)c([H])c4[H])c([H])c2[H])C([H])([H])C3([H])[H])c([H])c1[H]
     RDKit          3D

 56 60  0  0  0  0  0  0  0  0999 V2000
   10.2981    0.6246   -0.7507 F   0  0  0  0  0  0  0  0  0  0  0  0
    8.9719    0.3913   -0.5010 C   0  0  0  0  0  0  0  0  0  0  0  0
    8.5486   -0.8437   -0.0691 C   0  0  0  0  0  0  0  0  0  0  0  0
    7.2088   -1.0639    0.1785 C   0  0  0  0  0  0  0  0  0  0  0  0
    6.3292   -0.0132   -0.0216 C   0  0  0  0  0  0  0  0  0  0  0  0
    6.7489    1.2195   -0.4525 C   0  0  0  0  0  0  0  0  0  0  0  0
    8.0839    1.4209   -0.6937 C   0  0  0  0  0  0  0  0  0  0  0  0
    4.9189   -0.2603    0.2456 C   0  0  0  0  0  0  0  0  0  0  0  0
    4.5674   -1.1471    1.2317 C   0  0  0  0  0  0  0  0  0  0  0  0
    3.2535   -1.4145    1.5192 C   0  0  0  0  0  0  0  0  0  0  0  0
    2.2338   -0.7838    0.8077 C   0  0  0  0  0  0  0  0  0  0  0  0
    2.6135    0.0909   -0.1645 C   0  0  0  0  0  0  0  0  0  0  0  0
    3.9471    0.3869   -0.4837 C   0  0  0  0  0  0  0  0  0  0  0  0
    0.8832   -1.0820    1.1247 C   0  0  0  0  0  0  0  0  0  0  0  0
    0.7473   -1.9662    2.0922 O   0  0  0  0  0  0  0  0  0  0  0  0
   -0.3410   -0.6317    0.6228 N   0  0  0  0  0  0  0  0  0  0  0  0
   -1.5586   -1.2319    1.2661 C   0  0  0  0  0  0  0  0  0  0  0  0
   -2.4719   -0.1248    1.6649 C   0  0  0  0  0  0  0  0  0  0  0  0
   -2.8789    0.7595    0.5210 C   0  0  0  0  0  0  0  0  0  0  0  0
   -2.1055    0.4407   -0.7147 C   0  0  0  0  0  0  0  0  0  0  0  0
   -0.6264    0.3113   -0.4056 C   0  0  0  0  0  0  0  0  0  0  0  0
   -4.3009    0.7095    0.3900 N   0  0  0  0  0  0  0  0  0  0  0  0
   -4.8426    1.5718    1.4561 C   0  0  0  0  0  0  0  0  0  0  0  0
   -3.7791    2.5193    1.7014 N   0  0  0  0  0  0  0  0  0  0  0  0
   -2.6679    2.2161    0.8739 C   0  0  0  0  0  0  0  0  0  0  0  0
   -1.7502    2.9912    0.5356 O   0  0  0  0  0  0  0  0  0  0  0  0
   -5.1898    0.0211   -0.4723 C   0  0  0  0  0  0  0  0  0  0  0  0
   -6.3298    0.6433   -0.9799 C   0  0  0  0  0  0  0  0  0  0  0  0
   -7.2189   -0.0180   -1.7998 C   0  0  0  0  0  0  0  0  0  0  0  0
   -7.0183   -1.3335   -2.1567 C   0  0  0  0  0  0  0  0  0  0  0  0
   -5.8987   -1.9650   -1.6654 C   0  0  0  0  0  0  0  0  0  0  0  0
   -4.9980   -1.2872   -0.8314 C   0  0  0  0  0  0  0  0  0  0  0  0
    9.2863   -1.6456    0.0750 H   0  0  0  0  0  0  0  0  0  0  0  0
    6.8708   -2.0221    0.5136 H   0  0  0  0  0  0  0  0  0  0  0  0
    6.0268    1.9974   -0.5913 H   0  0  0  0  0  0  0  0  0  0  0  0
    8.4090    2.3887   -1.0312 H   0  0  0  0  0  0  0  0  0  0  0  0
    5.3464   -1.6510    1.8018 H   0  0  0  0  0  0  0  0  0  0  0  0
    3.0337   -2.1396    2.3260 H   0  0  0  0  0  0  0  0  0  0  0  0
    1.9200    0.6437   -0.7880 H   0  0  0  0  0  0  0  0  0  0  0  0
    4.2232    1.0733   -1.2472 H   0  0  0  0  0  0  0  0  0  0  0  0
   -1.2807   -1.8181    2.1535 H   0  0  0  0  0  0  0  0  0  0  0  0
   -1.9689   -1.9407    0.5274 H   0  0  0  0  0  0  0  0  0  0  0  0
   -3.3588   -0.5612    2.1239 H   0  0  0  0  0  0  0  0  0  0  0  0
   -1.9884    0.5042    2.4487 H   0  0  0  0  0  0  0  0  0  0  0  0
   -2.1756    1.3412   -1.3998 H   0  0  0  0  0  0  0  0  0  0  0  0
   -2.5173   -0.3818   -1.2810 H   0  0  0  0  0  0  0  0  0  0  0  0
   -0.1809   -0.0403   -1.3834 H   0  0  0  0  0  0  0  0  0  0  0  0
   -0.1816    1.2868   -0.1709 H   0  0  0  0  0  0  0  0  0  0  0  0
   -5.0828    0.9663    2.3542 H   0  0  0  0  0  0  0  0  0  0  0  0
   -5.7576    2.0645    1.1318 H   0  0  0  0  0  0  0  0  0  0  0  0
   -3.8530    3.3028    2.3961 H   0  0  0  0  0  0  0  0  0  0  0  0
   -6.4958    1.6902   -0.7033 H   0  0  0  0  0  0  0  0  0  0  0  0
   -8.0944    0.4803   -2.1822 H   0  0  0  0  0  0  0  0  0  0  0  0
   -7.7220   -1.8598   -2.8069 H   0  0  0  0  0  0  0  0  0  0  0  0
   -5.7046   -3.0059   -1.9248 H   0  0  0  0  0  0  0  0  0  0  0  0
   -4.1312   -1.8247   -0.4501 H   0  0  0  0  0  0  0  0  0  0  0  0
  1  2  1  0
  2  3  2  0
  3  4  1  0
  4  5  2  0
  5  6  1  0
  6  7  2  0
  5  8  1  0
  8  9  2  0
  9 10  1  0
 10 11  2  0
 11 12  1  0
 12 13  2  0
 11 14  1  0
 14 15  2  0
 14 16  1  0
 16 17  1  0
 17 18  1  0
 18 19  1  0
 19 20  1  0
 20 21  1  0
 19 22  1  0
 22 23  1  0
 23 24  1  0
 24 25  1  0
 25 26  2  0
 22 27  1  0
 27 28  2  0
 28 29  1  0
 29 30  2  0
 30 31  1  0
 31 32  2  0
  7  2  1  0
 13  8  1  0
 21 16  1  0
 32 27  1  0
 25 19  1  0
  3 33  1  0
  4 34  1  0
  6 35  1  0
  7 36  1  0
  9 37  1  0
 10 38  1  0
 12 39  1  0
 13 40  1  0
 17 41  1  0
 17 42  1  0
 18 43  1  0
 18 44  1  0
 20 45  1  0
 20 46  1  0
 21 47  1  0
 21 48  1  0
 23 49  1  0
 23 50  1  0
 24 51  1  0
 28 52  1  0
 29 53  1  0
 30 54  1  0
 31 55  1  0
 32 56  1  0
M  END
$$$$
[H]Oc1c([H])c([H])c(C([H])([H])[C@@]([H])(C(=O)N([H])[C@]([H])(C(=O)N([H])[C@]([H])(C(=O)N([H])[C@]([H])(C(=O)N([H])[C@]([H])(C(=O)N([H])[C@]([H])(C(=O)N([H])C([H])([H])C(=O)N([H])[H])C([H])([H])C(=O)N([H])[H])C([H])([H])C(=O)N([H])[H])C([H])([H])C([H])(C([H])([H])[H])C([H])([H])[H])C([H])([H])C([H])([H])C(=O)N([H])[H])C([H])([H])C([H])(C([H])([H])[H])C([H])([H])[H])N([H])[H])c([H])c1[H]
     RDKit          3D

115115  0  0  0  0  0  0  0  0999 V2000
    3.0792   -1.9137    2.8905 C   0  0  0  0  0  0  0  0  0  0  0  0
    1.9143   -1.0161    3.1108 C   0  0  0  0  0  0  0  0  0  0  0  0
    2.1968   -0.3298    4.4712 C   0  0  0  0  0  0  0  0  0  0  0  0
    1.6949    0.0895    2.1743 C   0  0  0  0  0  0  0  0  0  0  0  0
    1.4754   -0.1932    0.7218 C   0  0  2  0  0  0  0  0  0  0  0  0
    0.3588   -1.0237    0.4364 N   0  0  0  0  0  0  0  0  0  0  0  0
   -0.9179   -0.4867    0.0726 C   0  0  0  0  0  0  0  0  0  0  0  0
   -0.9321    0.8188    0.0637 O   0  0  0  0  0  0  0  0  0  0  0  0
   -2.1416   -1.1489   -0.2693 C   0  0  2  0  0  0  0  0  0  0  0  0
   -2.5026   -1.3150   -1.7165 C   0  0  0  0  0  0  0  0  0  0  0  0
   -1.6450   -2.0758   -2.6129 C   0  0  0  0  0  0  0  0  0  0  0  0
   -0.3269   -1.5349   -2.8810 C   0  0  0  0  0  0  0  0  0  0  0  0
    0.8000   -2.3887   -3.1291 N   0  0  0  0  0  0  0  0  0  0  0  0
   -0.1290   -0.3016   -2.9113 O   0  0  0  0  0  0  0  0  0  0  0  0
   -3.2799   -0.3534    0.2787 N   0  0  0  0  0  0  0  0  0  0  0  0
   -4.5417   -0.9048    0.5700 C   0  0  0  0  0  0  0  0  0  0  0  0
   -4.7547   -2.1159    0.3503 O   0  0  0  0  0  0  0  0  0  0  0  0
   -5.6312   -0.0854    1.1307 C   0  0  2  0  0  0  0  0  0  0  0  0
   -5.8790   -0.5423    2.5739 C   0  0  0  0  0  0  0  0  0  0  0  0
   -4.6198   -0.3584    3.3615 C   0  0  0  0  0  0  0  0  0  0  0  0
   -4.8726   -0.8310    4.8071 C   0  0  0  0  0  0  0  0  0  0  0  0
   -4.2521    1.1200    3.4893 C   0  0  0  0  0  0  0  0  0  0  0  0
   -6.9021   -0.3450    0.4550 N   0  0  0  0  0  0  0  0  0  0  0  0
   -7.7993    0.6845    0.1357 C   0  0  0  0  0  0  0  0  0  0  0  0
   -7.4132    1.8686    0.4907 O   0  0  0  0  0  0  0  0  0  0  0  0
   -9.0895    0.5997   -0.5300 C   0  0  1  0  0  0  0  0  0  0  0  0
   -9.8620    1.8392   -0.3733 N   0  0  0  0  0  0  0  0  0  0  0  0
   -8.9105    0.4815   -2.0653 C   0  0  0  0  0  0  0  0  0  0  0  0
  -10.2848    0.4154   -2.6311 C   0  0  0  0  0  0  0  0  0  0  0  0
  -10.9393   -0.7789   -2.8502 C   0  0  0  0  0  0  0  0  0  0  0  0
  -12.2339   -0.7678   -3.3751 C   0  0  0  0  0  0  0  0  0  0  0  0
  -12.8895    0.3995   -3.6859 C   0  0  0  0  0  0  0  0  0  0  0  0
  -14.1697    0.3638   -4.2034 O   0  0  0  0  0  0  0  0  0  0  0  0
  -12.2426    1.5986   -3.4698 C   0  0  0  0  0  0  0  0  0  0  0  0
  -10.9601    1.5830   -2.9495 C   0  0  0  0  0  0  0  0  0  0  0  0
    2.7357   -0.6408    0.1104 C   0  0  0  0  0  0  0  0  0  0  0  0
    2.7999   -1.8297   -0.2796 O   0  0  0  0  0  0  0  0  0  0  0  0
    3.8568    0.2164   -0.0515 N   0  0  0  0  0  0  0  0  0  0  0  0
    5.1030   -0.1499   -0.6306 C   0  0  1  0  0  0  0  0  0  0  0  0
    5.3855    0.7211   -1.8501 C   0  0  0  0  0  0  0  0  0  0  0  0
    4.4335    0.6581   -2.9239 C   0  0  0  0  0  0  0  0  0  0  0  0
    4.6319    1.4744   -4.1157 N   0  0  0  0  0  0  0  0  0  0  0  0
    3.4176   -0.0552   -2.9333 O   0  0  0  0  0  0  0  0  0  0  0  0
    6.2072    0.1515    0.3562 C   0  0  0  0  0  0  0  0  0  0  0  0
    5.9619    0.6355    1.4849 O   0  0  0  0  0  0  0  0  0  0  0  0
    7.5426   -0.1115   -0.0072 N   0  0  0  0  0  0  0  0  0  0  0  0
    8.6386    0.1903    0.8652 C   0  0  1  0  0  0  0  0  0  0  0  0
    9.3939   -0.9745    1.3963 C   0  0  0  0  0  0  0  0  0  0  0  0
   10.0363   -1.8368    0.4004 C   0  0  0  0  0  0  0  0  0  0  0  0
   10.7779   -2.9879    0.8873 N   0  0  0  0  0  0  0  0  0  0  0  0
    9.9733   -1.6248   -0.8158 O   0  0  0  0  0  0  0  0  0  0  0  0
    9.6083    1.1130    0.1845 C   0  0  0  0  0  0  0  0  0  0  0  0
    9.4302    1.5096   -0.9783 O   0  0  0  0  0  0  0  0  0  0  0  0
   10.7913    1.5714    0.8779 N   0  0  0  0  0  0  0  0  0  0  0  0
   11.6841    2.4603    0.1816 C   0  0  0  0  0  0  0  0  0  0  0  0
   11.1043    3.7413   -0.2164 C   0  0  0  0  0  0  0  0  0  0  0  0
   11.8804    4.6815   -0.9314 N   0  0  0  0  0  0  0  0  0  0  0  0
    9.9080    4.0769    0.0461 O   0  0  0  0  0  0  0  0  0  0  0  0
    3.9587   -1.4251    2.4457 H   0  0  0  0  0  0  0  0  0  0  0  0
    2.7921   -2.8780    2.3769 H   0  0  0  0  0  0  0  0  0  0  0  0
    3.4754   -2.3048    3.8838 H   0  0  0  0  0  0  0  0  0  0  0  0
    0.9779   -1.6045    3.3156 H   0  0  0  0  0  0  0  0  0  0  0  0
    2.2782   -1.0435    5.2902 H   0  0  0  0  0  0  0  0  0  0  0  0
    3.2300    0.1003    4.3100 H   0  0  0  0  0  0  0  0  0  0  0  0
    1.5515    0.5303    4.6348 H   0  0  0  0  0  0  0  0  0  0  0  0
    2.5097    0.8447    2.3307 H   0  0  0  0  0  0  0  0  0  0  0  0
    0.7738    0.6478    2.5245 H   0  0  0  0  0  0  0  0  0  0  0  0
    1.2251    0.8142    0.2292 H   0  0  0  0  0  0  0  0  0  0  0  0
    0.4277   -2.0497    0.4810 H   0  0  0  0  0  0  0  0  0  0  0  0
   -2.2456   -2.1317    0.2552 H   0  0  0  0  0  0  0  0  0  0  0  0
   -3.5203   -1.8246   -1.7088 H   0  0  0  0  0  0  0  0  0  0  0  0
   -2.6979   -0.3080   -2.1877 H   0  0  0  0  0  0  0  0  0  0  0  0
   -2.1734   -2.0761   -3.6374 H   0  0  0  0  0  0  0  0  0  0  0  0
   -1.6189   -3.1844   -2.3955 H   0  0  0  0  0  0  0  0  0  0  0  0
    1.3746   -2.2471   -3.9838 H   0  0  0  0  0  0  0  0  0  0  0  0
    1.0771   -3.1583   -2.4845 H   0  0  0  0  0  0  0  0  0  0  0  0
   -3.1108    0.6613    0.4462 H   0  0  0  0  0  0  0  0  0  0  0  0
   -5.4253    0.9867    1.1152 H   0  0  0  0  0  0  0  0  0  0  0  0
   -6.6928    0.0494    3.0507 H   0  0  0  0  0  0  0  0  0  0  0  0
   -6.1923   -1.5917    2.6131 H   0  0  0  0  0  0  0  0  0  0  0  0
   -3.8142   -0.9700    2.9429 H   0  0  0  0  0  0  0  0  0  0  0  0
   -5.3511   -1.8274    4.7526 H   0  0  0  0  0  0  0  0  0  0  0  0
   -5.5080   -0.0812    5.3164 H   0  0  0  0  0  0  0  0  0  0  0  0
   -3.8922   -0.8607    5.3099 H   0  0  0  0  0  0  0  0  0  0  0  0
   -5.1543    1.7367    3.2799 H   0  0  0  0  0  0  0  0  0  0  0  0
   -3.3871    1.3691    2.8642 H   0  0  0  0  0  0  0  0  0  0  0  0
   -3.9585    1.3630    4.5546 H   0  0  0  0  0  0  0  0  0  0  0  0
   -7.1437   -1.3242    0.2095 H   0  0  0  0  0  0  0  0  0  0  0  0
   -9.7464   -0.2229   -0.2232 H   0  0  0  0  0  0  0  0  0  0  0  0
   -9.2501    2.5434    0.0770 H   0  0  0  0  0  0  0  0  0  0  0  0
  -10.6571    1.6683    0.2702 H   0  0  0  0  0  0  0  0  0  0  0  0
   -8.3189   -0.4131   -2.2533 H   0  0  0  0  0  0  0  0  0  0  0  0
   -8.4315    1.4344   -2.4010 H   0  0  0  0  0  0  0  0  0  0  0  0
  -10.4209   -1.6791   -2.6081 H   0  0  0  0  0  0  0  0  0  0  0  0
  -12.7455   -1.6967   -3.5465 H   0  0  0  0  0  0  0  0  0  0  0  0
  -15.0044    0.3808   -3.6353 H   0  0  0  0  0  0  0  0  0  0  0  0
  -12.7532    2.5275   -3.7096 H   0  0  0  0  0  0  0  0  0  0  0  0
  -10.4515    2.5274   -2.7817 H   0  0  0  0  0  0  0  0  0  0  0  0
    3.7619    1.2192    0.2949 H   0  0  0  0  0  0  0  0  0  0  0  0
    5.1753   -1.2090   -0.8818 H   0  0  0  0  0  0  0  0  0  0  0  0
    5.5797    1.7794   -1.5006 H   0  0  0  0  0  0  0  0  0  0  0  0
    6.3958    0.4024   -2.2515 H   0  0  0  0  0  0  0  0  0  0  0  0
    3.8733    2.0968   -4.3998 H   0  0  0  0  0  0  0  0  0  0  0  0
    5.5403    1.3483   -4.5801 H   0  0  0  0  0  0  0  0  0  0  0  0
    7.7707   -0.5422   -0.9416 H   0  0  0  0  0  0  0  0  0  0  0  0
    8.2145    0.7654    1.7443 H   0  0  0  0  0  0  0  0  0  0  0  0
   10.2086   -0.6598    2.1076 H   0  0  0  0  0  0  0  0  0  0  0  0
    8.7328   -1.6224    2.0403 H   0  0  0  0  0  0  0  0  0  0  0  0
   11.4547   -3.4749    0.2756 H   0  0  0  0  0  0  0  0  0  0  0  0
   10.6321   -3.3337    1.8678 H   0  0  0  0  0  0  0  0  0  0  0  0
   11.0016    1.2759    1.8439 H   0  0  0  0  0  0  0  0  0  0  0  0
   12.5568    2.6932    0.8396 H   0  0  0  0  0  0  0  0  0  0  0  0
   12.0664    1.8792   -0.7039 H   0  0  0  0  0  0  0  0  0  0  0  0
   11.6164    5.6800   -0.9643 H   0  0  0  0  0  0  0  0  0  0  0  0
   12.7345    4.3787   -1.4389 H   0  0  0  0  0  0  0  0  0  0  0  0
  1  2  1  0
  2  3  1  0
  2  4  1  0
  4  5  1  0
  5  6  1  0
  6  7  1  0
  7  8  2  0
  7  9  1  0
  9 10  1  0
 10 11  1  0
 11 12  1  0
 12 13  1  0
 12 14  2  0
  9 15  1  0
 15 16  1  0
 16 17  2  0
 16 18  1  0
 18 19  1  0
 19 20  1  0
 20 21  1  0
 20 22  1  0
 18 23  1  0
 23 24  1  0
 24 25  2  0
 24 26  1  0
 26 27  1  0
 26 28  1  0
 28 29  1  0
 29 30  2  0
 30 31  1  0
 31 32  2  0
 32 33  1  0
 32 34  1  0
 34 35  2  0
  5 36  1  0
 36 37  2  0
 36 38  1  0
 38 39  1  0
 39 40  1  0
 40 41  1  0
 41 42  1  0
 41 43  2  0
 39 44  1  0
 44 45  2  0
 44 46  1  0
 46 47  1  0
 47 48  1  0
 48 49  1  0
 49 50  1  0
 49 51  2  0
 47 52  1  0
 52 53  2  0
 52 54  1  0
 54 55  1  0
 55 56  1  0
 56 57  1  0
 56 58  2  0
 35 29  1  0
  1 59  1  0
  1 60  1  0
  1 61  1  0
  2 62  1  0
  3 63  1  0
  3 64  1  0
  3 65  1  0
  4 66  1  0
  4 67  1  0
  5 68  1  6
  6 69  1  0
  9 70  1  1
 10 71  1  0
 10 72  1  0
 11 73  1  0
 11 74  1  0
 13 75  1  0
 13 76  1  0
 15 77  1  0
 18 78  1  1
 19 79  1  0
 19 80  1  0
 20 81  1  0
 21 82  1  0
 21 83  1  0
 21 84  1  0
 22 85  1  0
 22 86  1  0
 22 87  1  0
 23 88  1  0
 26 89  1  1
 27 90  1  0
 27 91  1  0
 28 92  1  0
 28 93  1  0
 30 94  1  0
 31 95  1  0
 33 96  1  0
 34 97  1  0
 35 98  1  0
 38 99  1  0
 39100  1  6
 40101  1  0
 40102  1  0
 42103  1  0
 42104  1  0
 46105  1  0
 47106  1  1
 48107  1  0
 48108  1  0
 50109  1  0
 50110  1  0
 54111  1  0
 55112  1  0
 55113  1  0
 57114  1  0
 57115  1  0
M  END
$$$$
[H]OC(=O)[C@@]([H])(N([H])C(=O)[C@@]([H])(N([H])C(=O)[C@@]([H])(N([H])C(=O)[C@@]([H])(N([H])C(=O)[C@@]([H])(N([H])C(=O)c1c(O[H])c2c([H])c([H])c([H])c([H])c2n1[H])C([H])([H])c1c([H])c([H])c([H])c([H])c1[H])C([H])([H])C([H])(C([H])([H])[H])C([H])([H])[H])C([H])(C([H])([H])[H])C([H])([H])[H])C([H])(C([H])([H])[H])C([H])([H])[H])C([H])(C([H])([H])[H])C([H])([H])[H]
     RDKit          3D

107109  0  0  0  0  0  0  0  0999 V2000
    2.6963   -4.9972   -1.9615 C   0  0  0  0  0  0  0  0  0  0  0  0
    1.6209   -4.5559   -2.9040 C   0  0  0  0  0  0  0  0  0  0  0  0
    0.7669   -5.7640   -3.3051 C   0  0  0  0  0  0  0  0  0  0  0  0
    0.7378   -3.4498   -2.4145 C   0  0  0  0  0  0  0  0  0  0  0  0
    1.3825   -2.1626   -2.1084 C   0  0  2  0  0  0  0  0  0  0  0  0
    2.4096   -2.2344   -1.0460 N   0  0  0  0  0  0  0  0  0  0  0  0
    3.4763   -1.3234   -1.1624 C   0  0  0  0  0  0  0  0  0  0  0  0
    3.5439   -0.4993   -2.1457 O   0  0  0  0  0  0  0  0  0  0  0  0
    4.5499   -1.2859   -0.1389 C   0  0  2  0  0  0  0  0  0  0  0  0
    4.0824   -1.9601    1.0967 C   0  0  0  0  0  0  0  0  0  0  0  0
    5.0345   -1.9631    2.2042 C   0  0  0  0  0  0  0  0  0  0  0  0
    4.9947   -0.9246    3.1063 C   0  0  0  0  0  0  0  0  0  0  0  0
    5.8714   -0.8616    4.1941 C   0  0  0  0  0  0  0  0  0  0  0  0
    6.8101   -1.8639    4.3838 C   0  0  0  0  0  0  0  0  0  0  0  0
    6.8466   -2.8911    3.4879 C   0  0  0  0  0  0  0  0  0  0  0  0
    5.9765   -2.9453    2.4148 C   0  0  0  0  0  0  0  0  0  0  0  0
    4.8654    0.1240    0.0419 N   0  0  0  0  0  0  0  0  0  0  0  0
    6.1461    0.5968   -0.3082 C   0  0  0  0  0  0  0  0  0  0  0  0
    7.0211   -0.2276   -0.7803 O   0  0  0  0  0  0  0  0  0  0  0  0
    6.5234    1.9769   -0.1588 C   0  0  0  0  0  0  0  0  0  0  0  0
    7.7582    2.4513   -0.4988 N   0  0  0  0  0  0  0  0  0  0  0  0
    7.8239    3.7708   -0.2567 C   0  0  0  0  0  0  0  0  0  0  0  0
    8.8226    4.7146   -0.4237 C   0  0  0  0  0  0  0  0  0  0  0  0
    8.5949    6.0317   -0.0835 C   0  0  0  0  0  0  0  0  0  0  0  0
    7.3690    6.4712    0.4368 C   0  0  0  0  0  0  0  0  0  0  0  0
    6.3928    5.5136    0.5940 C   0  0  0  0  0  0  0  0  0  0  0  0
    6.6304    4.2013    0.2509 C   0  0  0  0  0  0  0  0  0  0  0  0
    5.7990    3.0729    0.3171 C   0  0  0  0  0  0  0  0  0  0  0  0
    4.5587    3.0544    0.7512 O   0  0  0  0  0  0  0  0  0  0  0  0
    0.4369   -1.1002   -1.6093 C   0  0  0  0  0  0  0  0  0  0  0  0
    0.6611   -0.5200   -0.5229 O   0  0  0  0  0  0  0  0  0  0  0  0
   -0.7062   -0.7292   -2.3359 N   0  0  0  0  0  0  0  0  0  0  0  0
   -1.5919    0.3291   -1.8270 C   0  0  1  0  0  0  0  0  0  0  0  0
   -1.9778    1.2216   -2.9569 C   0  0  0  0  0  0  0  0  0  0  0  0
   -2.8897    2.3304   -2.4606 C   0  0  0  0  0  0  0  0  0  0  0  0
   -2.6809    0.4584   -4.0658 C   0  0  0  0  0  0  0  0  0  0  0  0
   -2.7449   -0.3025   -1.1421 C   0  0  0  0  0  0  0  0  0  0  0  0
   -3.0141   -1.4973   -1.3940 O   0  0  0  0  0  0  0  0  0  0  0  0
   -3.5419    0.4022   -0.2116 N   0  0  0  0  0  0  0  0  0  0  0  0
   -4.6782   -0.2439    0.4400 C   0  0  1  0  0  0  0  0  0  0  0  0
   -4.0394   -0.9995    1.6407 C   0  0  0  0  0  0  0  0  0  0  0  0
   -3.3568   -0.0144    2.5461 C   0  0  0  0  0  0  0  0  0  0  0  0
   -5.0341   -1.8060    2.3944 C   0  0  0  0  0  0  0  0  0  0  0  0
   -5.6429    0.7385    0.9373 C   0  0  0  0  0  0  0  0  0  0  0  0
   -5.2412    1.9552    0.9371 O   0  0  0  0  0  0  0  0  0  0  0  0
   -6.9445    0.5108    1.4078 N   0  0  0  0  0  0  0  0  0  0  0  0
   -7.8203    1.5486    1.8930 C   0  0  1  0  0  0  0  0  0  0  0  0
   -8.7503    2.0987    0.8248 C   0  0  0  0  0  0  0  0  0  0  0  0
   -9.6538    1.0465    0.2284 C   0  0  0  0  0  0  0  0  0  0  0  0
   -7.9936    2.7615   -0.3025 C   0  0  0  0  0  0  0  0  0  0  0  0
   -8.5611    1.1935    3.1008 C   0  0  0  0  0  0  0  0  0  0  0  0
   -9.4421    2.0720    3.7188 O   0  0  0  0  0  0  0  0  0  0  0  0
   -8.4121    0.0609    3.6155 O   0  0  0  0  0  0  0  0  0  0  0  0
    3.5629   -4.3393   -1.8674 H   0  0  0  0  0  0  0  0  0  0  0  0
    2.2502   -5.2052   -0.9615 H   0  0  0  0  0  0  0  0  0  0  0  0
    3.1344   -5.9870   -2.2897 H   0  0  0  0  0  0  0  0  0  0  0  0
    2.1330   -4.2286   -3.8615 H   0  0  0  0  0  0  0  0  0  0  0  0
    0.6194   -6.4192   -2.4197 H   0  0  0  0  0  0  0  0  0  0  0  0
    1.2572   -6.3342   -4.1154 H   0  0  0  0  0  0  0  0  0  0  0  0
   -0.2034   -5.4071   -3.6594 H   0  0  0  0  0  0  0  0  0  0  0  0
   -0.1137   -3.3403   -3.1569 H   0  0  0  0  0  0  0  0  0  0  0  0
    0.2020   -3.8034   -1.4678 H   0  0  0  0  0  0  0  0  0  0  0  0
    1.8555   -1.7435   -3.0541 H   0  0  0  0  0  0  0  0  0  0  0  0
    2.2675   -2.9283   -0.3088 H   0  0  0  0  0  0  0  0  0  0  0  0
    5.4343   -1.7607   -0.6082 H   0  0  0  0  0  0  0  0  0  0  0  0
    3.1352   -1.4959    1.4270 H   0  0  0  0  0  0  0  0  0  0  0  0
    3.8342   -3.0345    0.8875 H   0  0  0  0  0  0  0  0  0  0  0  0
    4.2959   -0.1048    3.0290 H   0  0  0  0  0  0  0  0  0  0  0  0
    5.8407   -0.0426    4.9096 H   0  0  0  0  0  0  0  0  0  0  0  0
    7.4732   -1.7914    5.2298 H   0  0  0  0  0  0  0  0  0  0  0  0
    7.5845   -3.6846    3.6284 H   0  0  0  0  0  0  0  0  0  0  0  0
    6.0688   -3.7919    1.7475 H   0  0  0  0  0  0  0  0  0  0  0  0
    4.1658    0.7922    0.4202 H   0  0  0  0  0  0  0  0  0  0  0  0
    8.5484    1.9029   -0.8890 H   0  0  0  0  0  0  0  0  0  0  0  0
    9.7688    4.3806   -0.8259 H   0  0  0  0  0  0  0  0  0  0  0  0
    9.3699    6.7438   -0.2182 H   0  0  0  0  0  0  0  0  0  0  0  0
    7.2265    7.5100    0.6950 H   0  0  0  0  0  0  0  0  0  0  0  0
    5.4220    5.7755    0.9931 H   0  0  0  0  0  0  0  0  0  0  0  0
    3.7011    3.0374    1.0506 H   0  0  0  0  0  0  0  0  0  0  0  0
   -0.9580   -1.1729   -3.2296 H   0  0  0  0  0  0  0  0  0  0  0  0
   -1.0078    0.8597   -1.0288 H   0  0  0  0  0  0  0  0  0  0  0  0
   -1.1058    1.7352   -3.4194 H   0  0  0  0  0  0  0  0  0  0  0  0
   -2.4180    2.8420   -1.6023 H   0  0  0  0  0  0  0  0  0  0  0  0
   -3.9057    1.9586   -2.2282 H   0  0  0  0  0  0  0  0  0  0  0  0
   -3.0042    3.1251   -3.2383 H   0  0  0  0  0  0  0  0  0  0  0  0
   -1.9919    0.3310   -4.9086 H   0  0  0  0  0  0  0  0  0  0  0  0
   -3.6081    0.9393   -4.3874 H   0  0  0  0  0  0  0  0  0  0  0  0
   -2.8877   -0.5602   -3.6672 H   0  0  0  0  0  0  0  0  0  0  0  0
   -3.3612    1.4054    0.0538 H   0  0  0  0  0  0  0  0  0  0  0  0
   -5.0364   -1.0413   -0.2025 H   0  0  0  0  0  0  0  0  0  0  0  0
   -3.2851   -1.6457    1.1867 H   0  0  0  0  0  0  0  0  0  0  0  0
   -2.4289   -0.4904    2.9572 H   0  0  0  0  0  0  0  0  0  0  0  0
   -3.9978    0.2376    3.3991 H   0  0  0  0  0  0  0  0  0  0  0  0
   -3.1037    0.9307    2.0141 H   0  0  0  0  0  0  0  0  0  0  0  0
   -4.4701   -2.6566    2.8910 H   0  0  0  0  0  0  0  0  0  0  0  0
   -5.4859   -1.2622    3.2612 H   0  0  0  0  0  0  0  0  0  0  0  0
   -5.8077   -2.2259    1.7598 H   0  0  0  0  0  0  0  0  0  0  0  0
   -7.3441   -0.4646    1.4269 H   0  0  0  0  0  0  0  0  0  0  0  0
   -7.1343    2.4137    2.1409 H   0  0  0  0  0  0  0  0  0  0  0  0
   -9.3981    2.8773    1.2804 H   0  0  0  0  0  0  0  0  0  0  0  0
   -9.3639    0.0180    0.5307 H   0  0  0  0  0  0  0  0  0  0  0  0
   -9.5967    1.0646   -0.8970 H   0  0  0  0  0  0  0  0  0  0  0  0
  -10.7262    1.2573    0.4418 H   0  0  0  0  0  0  0  0  0  0  0  0
   -7.3785    3.6057    0.0024 H   0  0  0  0  0  0  0  0  0  0  0  0
   -8.7927    3.1515   -1.0014 H   0  0  0  0  0  0  0  0  0  0  0  0
   -7.4759    1.9779   -0.8967 H   0  0  0  0  0  0  0  0  0  0  0  0
   -9.2459    2.5047    4.6080 H   0  0  0  0  0  0  0  0  0  0  0  0
  1  2  1  0
  2  3  1  0
  2  4  1  0
  4  5  1  0
  5  6  1  0
  6  7  1  0
  7  8  2  0
  7  9  1  0
  9 10  1  0
 10 11  1  0
 11 12  2  0
 12 13  1  0
 13 14  2  0
 14 15  1  0
 15 16  2  0
  9 17  1  0
 17 18  1  0
 18 19  2  0
 18 20  1  0
 20 21  1  0
 21 22  1  0
 22 23  2  0
 23 24  1  0
 24 25  2  0
 25 26  1  0
 26 27  2  0
 27 28  1  0
 28 29  1  0
  5 30  1  0
 30 31  2  0
 30 32  1  0
 32 33  1  0
 33 34  1  0
 34 35  1  0
 34 36  1  0
 33 37  1  0
 37 38  2  0
 37 39  1  0
 39 40  1  0
 40 41  1  0
 41 42  1  0
 41 43  1  0
 40 44  1  0
 44 45  2  0
 44 46  1  0
 46 47  1  0
 47 48  1  0
 48 49  1  0
 48 50  1  0
 47 51  1  0
 51 52  1  0
 51 53  2  0
 16 11  1  0
 28 20  2  0
 27 22  1  0
  1 54  1  0
  1 55  1  0
  1 56  1  0
  2 57  1  0
  3 58  1  0
  3 59  1  0
  3 60  1  0
  4 61  1  0
  4 62  1  0
  5 63  1  6
  6 64  1  0
  9 65  1  6
 10 66  1  0
 10 67  1  0
 12 68  1  0
 13 69  1  0
 14 70  1  0
 15 71  1  0
 16 72  1  0
 17 73  1  0
 21 74  1  0
 23 75  1  0
 24 76  1  0
 25 77  1  0
 26 78  1  0
 29 79  1  0
 32 80  1  0
 33 81  1  1
 34 82  1  0
 35 83  1  0
 35 84  1  0
 35 85  1  0
 36 86  1  0
 36 87  1  0
 36 88  1  0
 39 89  1  0
 40 90  1  6
 41 91  1  0
 42 92  1  0
 42 93  1  0
 42 94  1  0
 43 95  1  0
 43 96  1  0
 43 97  1  0
 46 98  1  0
 47 99  1  1
 48100  1  0
 49101  1  0
 49102  1  0
 49103  1  0
 50104  1  0
 50105  1  0
 50106  1  0
 52107  1  0
M  END
$$$$
[H]c1c([H])c(C2=C(c3c([H])n(C([H])([H])[H])c4c([H])c([H])c(C(F)(F)F)c([H])c34)C(=O)N([H])C2=O)c([H])c(C(F)(F)F)c1[H]
     RDKit          3D

 43 46  0  0  0  0  0  0  0  0999 V2000
    1.7237    3.4437    0.9761 C   0  0  0  0  0  0  0  0  0  0  0  0
    1.5526    2.0953    0.4306 N   0  0  0  0  0  0  0  0  0  0  0  0
    0.6900    1.7135   -0.5518 C   0  0  0  0  0  0  0  0  0  0  0  0
    0.8400    0.3491   -0.7940 C   0  0  0  0  0  0  0  0  0  0  0  0
    0.1240   -0.4577   -1.7692 C   0  0  0  0  0  0  0  0  0  0  0  0
   -1.1567   -0.5966   -1.9517 C   0  0  0  0  0  0  0  0  0  0  0  0
   -1.4286   -1.5282   -3.0785 C   0  0  0  0  0  0  0  0  0  0  0  0
   -2.5551   -1.8648   -3.4958 O   0  0  0  0  0  0  0  0  0  0  0  0
   -0.1779   -1.9524   -3.5769 N   0  0  0  0  0  0  0  0  0  0  0  0
    0.7937   -1.3025   -2.7845 C   0  0  0  0  0  0  0  0  0  0  0  0
    2.0481   -1.3850   -2.8751 O   0  0  0  0  0  0  0  0  0  0  0  0
   -2.2491    0.0079   -1.1895 C   0  0  0  0  0  0  0  0  0  0  0  0
   -2.8079    1.2207   -1.5306 C   0  0  0  0  0  0  0  0  0  0  0  0
   -3.8399    1.7569   -0.8250 C   0  0  0  0  0  0  0  0  0  0  0  0
   -4.3830    1.1039    0.2811 C   0  0  0  0  0  0  0  0  0  0  0  0
   -3.8434   -0.0995    0.6397 C   0  0  0  0  0  0  0  0  0  0  0  0
   -2.7994   -0.6291   -0.0845 C   0  0  0  0  0  0  0  0  0  0  0  0
   -4.3980   -0.8164    1.8152 C   0  0  0  0  0  0  0  0  0  0  0  0
   -5.2731   -1.8097    1.4051 F   0  0  0  0  0  0  0  0  0  0  0  0
   -3.3624   -1.4211    2.5384 F   0  0  0  0  0  0  0  0  0  0  0  0
   -5.0799    0.0797    2.5908 F   0  0  0  0  0  0  0  0  0  0  0  0
    1.8372   -0.0407    0.1078 C   0  0  0  0  0  0  0  0  0  0  0  0
    2.4294   -1.2697    0.3656 C   0  0  0  0  0  0  0  0  0  0  0  0
    3.4183   -1.3742    1.3391 C   0  0  0  0  0  0  0  0  0  0  0  0
    3.8443   -0.2849    2.0767 C   0  0  0  0  0  0  0  0  0  0  0  0
    3.2485    0.9384    1.8184 C   0  0  0  0  0  0  0  0  0  0  0  0
    2.2697    1.0365    0.8536 C   0  0  0  0  0  0  0  0  0  0  0  0
    4.0367   -2.6902    1.6081 C   0  0  0  0  0  0  0  0  0  0  0  0
    5.0383   -2.8478    0.6587 F   0  0  0  0  0  0  0  0  0  0  0  0
    3.1578   -3.7204    1.6570 F   0  0  0  0  0  0  0  0  0  0  0  0
    4.7343   -2.5908    2.8211 F   0  0  0  0  0  0  0  0  0  0  0  0
    2.7887    3.5678    1.3361 H   0  0  0  0  0  0  0  0  0  0  0  0
    1.5970    4.2254    0.2062 H   0  0  0  0  0  0  0  0  0  0  0  0
    1.0579    3.6228    1.8469 H   0  0  0  0  0  0  0  0  0  0  0  0
    0.0091    2.3688   -1.0666 H   0  0  0  0  0  0  0  0  0  0  0  0
    0.0494   -2.6018   -4.3618 H   0  0  0  0  0  0  0  0  0  0  0  0
   -2.4125    1.7515   -2.3759 H   0  0  0  0  0  0  0  0  0  0  0  0
   -4.2381    2.7295   -1.1391 H   0  0  0  0  0  0  0  0  0  0  0  0
   -5.1971    1.5781    0.7998 H   0  0  0  0  0  0  0  0  0  0  0  0
   -2.3983   -1.5765    0.2258 H   0  0  0  0  0  0  0  0  0  0  0  0
    2.1024   -2.1418   -0.1814 H   0  0  0  0  0  0  0  0  0  0  0  0
    4.6254   -0.3721    2.8391 H   0  0  0  0  0  0  0  0  0  0  0  0
    3.5840    1.7845    2.3945 H   0  0  0  0  0  0  0  0  0  0  0  0
  1  2  1  0
  2  3  1  0
  3  4  2  0
  4  5  1  0
  5  6  2  0
  6  7  1  0
  7  8  2  0
  7  9  1  0
  9 10  1  0
 10 11  2  0
  6 12  1  0
 12 13  2  0
 13 14  1  0
 14 15  2  0
 15 16  1  0
 16 17  2  0
 16 18  1  0
 18 19  1  0
 18 20  1  0
 18 21  1  0
  4 22  1  0
 22 23  2  0
 23 24  1  0
 24 25  2  0
 25 26  1  0
 26 27  2  0
 24 28  1  0
 28 29  1  0
 28 30  1  0
 28 31  1  0
 27  2  1  0
 10  5  1  0
 17 12  1  0
 27 22  1  0
  1 32  1  0
  1 33  1  0
  1 34  1  0
  3 35  1  0
  9 36  1  0
 13 37  1  0
 14 38  1  0
 15 39  1  0
 17 40  1  0
 23 41  1  0
 25 42  1  0
 26 43  1  0
M  END
$$$$
[H]OC(=O)[C@@]([H])(N([H])C(=O)[C@@]([H])(N([H])C(=O)c1c([H])c(OC([H])([H])[H])c(OC([H])([H])[H])c(OC([H])([H])[H])c1[H])C([H])([H])c1c([H])c([H])c([H])c([H])c1[H])C([H])([H])c1c([H])c([H])c([H])c([H])c1[H]
     RDKit          3D

 67 69  0  0  0  0  0  0  0  0999 V2000
    5.6001    4.1886   -1.5825 C   0  0  0  0  0  0  0  0  0  0  0  0
    6.0506    3.2777   -0.5963 O   0  0  0  0  0  0  0  0  0  0  0  0
    5.2234    2.2028   -0.3014 C   0  0  0  0  0  0  0  0  0  0  0  0
    4.0193    1.9967   -0.9128 C   0  0  0  0  0  0  0  0  0  0  0  0
    3.2074    0.9079   -0.5977 C   0  0  0  0  0  0  0  0  0  0  0  0
    3.6290    0.0223    0.3499 C   0  0  0  0  0  0  0  0  0  0  0  0
    4.8428    0.2001    0.9894 C   0  0  0  0  0  0  0  0  0  0  0  0
    5.2396   -0.7192    1.9472 O   0  0  0  0  0  0  0  0  0  0  0  0
    4.4176   -1.8163    2.2628 C   0  0  0  0  0  0  0  0  0  0  0  0
    5.6203    1.2860    0.6545 C   0  0  0  0  0  0  0  0  0  0  0  0
    6.8402    1.4359    1.3192 O   0  0  0  0  0  0  0  0  0  0  0  0
    6.9451    2.1665    2.5261 C   0  0  0  0  0  0  0  0  0  0  0  0
    1.9391    0.7194   -1.2716 C   0  0  0  0  0  0  0  0  0  0  0  0
    1.6513    1.4821   -2.2273 O   0  0  0  0  0  0  0  0  0  0  0  0
    1.0323   -0.2755   -0.8963 N   0  0  0  0  0  0  0  0  0  0  0  0
   -0.2428   -0.4666   -1.5760 C   0  0  1  0  0  0  0  0  0  0  0  0
   -0.2767   -1.7646   -2.3277 C   0  0  0  0  0  0  0  0  0  0  0  0
   -0.0683   -2.9496   -1.4832 C   0  0  0  0  0  0  0  0  0  0  0  0
    1.2182   -3.4396   -1.2495 C   0  0  0  0  0  0  0  0  0  0  0  0
    1.4458   -4.5419   -0.4688 C   0  0  0  0  0  0  0  0  0  0  0  0
    0.4026   -5.2208    0.1254 C   0  0  0  0  0  0  0  0  0  0  0  0
   -0.8715   -4.7525   -0.0937 C   0  0  0  0  0  0  0  0  0  0  0  0
   -1.0998   -3.6334   -0.8866 C   0  0  0  0  0  0  0  0  0  0  0  0
   -1.4024   -0.2282   -0.6940 C   0  0  0  0  0  0  0  0  0  0  0  0
   -1.2076    0.0560    0.5248 O   0  0  0  0  0  0  0  0  0  0  0  0
   -2.7164   -0.3054   -1.1720 N   0  0  0  0  0  0  0  0  0  0  0  0
   -3.8532   -0.0503   -0.2443 C   0  0  1  0  0  0  0  0  0  0  0  0
   -4.4497    1.2974   -0.6186 C   0  0  0  0  0  0  0  0  0  0  0  0
   -5.5754    1.6825    0.2139 C   0  0  0  0  0  0  0  0  0  0  0  0
   -6.8791    1.4400   -0.1696 C   0  0  0  0  0  0  0  0  0  0  0  0
   -7.9156    1.8210    0.6497 C   0  0  0  0  0  0  0  0  0  0  0  0
   -7.6318    2.4468    1.8560 C   0  0  0  0  0  0  0  0  0  0  0  0
   -6.3294    2.6896    2.2400 C   0  0  0  0  0  0  0  0  0  0  0  0
   -5.2846    2.3131    1.4290 C   0  0  0  0  0  0  0  0  0  0  0  0
   -4.7954   -1.1704   -0.3509 C   0  0  0  0  0  0  0  0  0  0  0  0
   -5.8709   -1.2608    0.5056 O   0  0  0  0  0  0  0  0  0  0  0  0
   -4.6827   -2.0910   -1.1995 O   0  0  0  0  0  0  0  0  0  0  0  0
    5.2555    3.6769   -2.5016 H   0  0  0  0  0  0  0  0  0  0  0  0
    6.3709    4.9505   -1.8224 H   0  0  0  0  0  0  0  0  0  0  0  0
    4.7070    4.6955   -1.1470 H   0  0  0  0  0  0  0  0  0  0  0  0
    3.6544    2.6956   -1.6808 H   0  0  0  0  0  0  0  0  0  0  0  0
    3.0374   -0.8573    0.6421 H   0  0  0  0  0  0  0  0  0  0  0  0
    4.9511   -2.4924    2.9733 H   0  0  0  0  0  0  0  0  0  0  0  0
    3.4506   -1.4917    2.7087 H   0  0  0  0  0  0  0  0  0  0  0  0
    4.1561   -2.4145    1.3508 H   0  0  0  0  0  0  0  0  0  0  0  0
    7.7507    2.9260    2.3740 H   0  0  0  0  0  0  0  0  0  0  0  0
    5.9889    2.6116    2.8404 H   0  0  0  0  0  0  0  0  0  0  0  0
    7.3118    1.5039    3.3632 H   0  0  0  0  0  0  0  0  0  0  0  0
    1.2476   -0.9137   -0.1066 H   0  0  0  0  0  0  0  0  0  0  0  0
   -0.2915    0.3320   -2.3748 H   0  0  0  0  0  0  0  0  0  0  0  0
   -1.2528   -1.8076   -2.8616 H   0  0  0  0  0  0  0  0  0  0  0  0
    0.4950   -1.7028   -3.1259 H   0  0  0  0  0  0  0  0  0  0  0  0
    2.0574   -2.9338   -1.6976 H   0  0  0  0  0  0  0  0  0  0  0  0
    2.4481   -4.9406   -0.2743 H   0  0  0  0  0  0  0  0  0  0  0  0
    0.6057   -6.0954    0.7431 H   0  0  0  0  0  0  0  0  0  0  0  0
   -1.6764   -5.2945    0.3780 H   0  0  0  0  0  0  0  0  0  0  0  0
   -2.1166   -3.3427   -1.0025 H   0  0  0  0  0  0  0  0  0  0  0  0
   -2.9571   -0.5326   -2.1490 H   0  0  0  0  0  0  0  0  0  0  0  0
   -3.4256    0.0662    0.7620 H   0  0  0  0  0  0  0  0  0  0  0  0
   -4.7614    1.2039   -1.7023 H   0  0  0  0  0  0  0  0  0  0  0  0
   -3.6223    2.0601   -0.6263 H   0  0  0  0  0  0  0  0  0  0  0  0
   -7.1062    0.9438   -1.1256 H   0  0  0  0  0  0  0  0  0  0  0  0
   -8.9268    1.6439    0.3746 H   0  0  0  0  0  0  0  0  0  0  0  0
   -8.4796    2.7312    2.4729 H   0  0  0  0  0  0  0  0  0  0  0  0
   -6.1210    3.1716    3.1699 H   0  0  0  0  0  0  0  0  0  0  0  0
   -4.2552    2.4964    1.7158 H   0  0  0  0  0  0  0  0  0  0  0  0
   -6.6673   -1.8362    0.3495 H   0  0  0  0  0  0  0  0  0  0  0  0
  1  2  1  0
  2  3  1  0
  3  4  2  0
  4  5  1  0
  5  6  2  0
  6  7  1  0
  7  8  1  0
  8  9  1  0
  7 10  2  0
 10 11  1  0
 11 12  1  0
  5 13  1  0
 13 14  2  0
 13 15  1  0
 15 16  1  0
 16 17  1  0
 17 18  1  0
 18 19  2  0
 19 20  1  0
 20 21  2  0
 21 22  1  0
 22 23  2  0
 16 24  1  0
 24 25  2  0
 24 26  1  0
 26 27  1  0
 27 28  1  0
 28 29  1  0
 29 30  2  0
 30 31  1  0
 31 32  2  0
 32 33  1  0
 33 34  2  0
 27 35  1  0
 35 36  1  0
 35 37  2  0
 10  3  1  0
 23 18  1  0
 34 29  1  0
  1 38  1  0
  1 39  1  0
  1 40  1  0
  4 41  1  0
  6 42  1  0
  9 43  1  0
  9 44  1  0
  9 45  1  0
 12 46  1  0
 12 47  1  0
 12 48  1  0
 15 49  1  0
 16 50  1  6
 17 51  1  0
 17 52  1  0
 19 53  1  0
 20 54  1  0
 21 55  1  0
 22 56  1  0
 23 57  1  0
 26 58  1  0
 27 59  1  1
 28 60  1  0
 28 61  1  0
 30 62  1  0
 31 63  1  0
 32 64  1  0
 33 65  1  0
 34 66  1  0
 36 67  1  0
M  END
$$$$
[H]O[C@@]1([H])C([H])([H])C([H])([H])C2([H])C3([H])C([H])([H])C([H])([H])C4([H])C([H])([H])[C@]([H])(O[H])C([H])([H])C([H])([H])[C@]4(C([H])([H])[H])C3([H])C([H])([H])C([H])([H])[C@@]21C([H])([H])[H]
     RDKit          3D

 53 56  0  0  0  0  0  0  0  0999 V2000
    3.2531   -1.4473   -0.3415 C   0  0  0  0  0  0  0  0  0  0  0  0
    2.7212   -0.1048    0.0651 C   0  0  2  0  0  0  0  0  0  0  0  0
    1.9831   -0.2186    1.3743 C   0  0  0  0  0  0  0  0  0  0  0  0
    0.5122   -0.2832    1.2767 C   0  0  0  0  0  0  0  0  0  0  0  0
    0.0200   -0.7205   -0.0761 C   0  0  0  0  0  0  0  0  0  0  0  0
    0.5037    0.2726   -1.0952 C   0  0  0  0  0  0  0  0  0  0  0  0
   -0.3078    1.5455   -1.1156 C   0  0  0  0  0  0  0  0  0  0  0  0
   -1.7667    1.3178   -0.8225 C   0  0  0  0  0  0  0  0  0  0  0  0
   -2.0992   -0.0987   -1.1543 C   0  0  0  0  0  0  0  0  0  0  0  0
   -3.5927   -0.2461   -1.1902 C   0  0  0  0  0  0  0  0  0  0  0  0
   -4.2496   -0.1239    0.1457 C   0  0  2  0  0  0  0  0  0  0  0  0
   -4.3167    1.1781    0.6220 O   0  0  0  0  0  0  0  0  0  0  0  0
   -3.5912   -1.0625    1.1000 C   0  0  0  0  0  0  0  0  0  0  0  0
   -2.1105   -0.8927    1.2171 C   0  0  0  0  0  0  0  0  0  0  0  0
   -1.4328   -0.9953   -0.1425 C   0  0  2  0  0  0  0  0  0  0  0  0
   -1.7178   -2.4345   -0.6065 C   0  0  0  0  0  0  0  0  0  0  0  0
    1.9365    0.5803   -1.0028 C   0  0  0  0  0  0  0  0  0  0  0  0
    2.2275    2.0560   -0.6891 C   0  0  0  0  0  0  0  0  0  0  0  0
    3.7421    1.9860   -0.6667 C   0  0  0  0  0  0  0  0  0  0  0  0
    3.9096    0.8052    0.3023 C   0  0  2  0  0  0  0  0  0  0  0  0
    5.1294    0.2571    0.0312 O   0  0  0  0  0  0  0  0  0  0  0  0
    3.0425   -1.5735   -1.4229 H   0  0  0  0  0  0  0  0  0  0  0  0
    2.8033   -2.2881    0.2621 H   0  0  0  0  0  0  0  0  0  0  0  0
    4.3445   -1.5811   -0.1994 H   0  0  0  0  0  0  0  0  0  0  0  0
    2.2519    0.6328    2.0560 H   0  0  0  0  0  0  0  0  0  0  0  0
    2.3910   -1.1263    1.8965 H   0  0  0  0  0  0  0  0  0  0  0  0
    0.1374   -1.0173    2.0204 H   0  0  0  0  0  0  0  0  0  0  0  0
    0.0511    0.7020    1.5720 H   0  0  0  0  0  0  0  0  0  0  0  0
    0.5584   -1.6811   -0.3078 H   0  0  0  0  0  0  0  0  0  0  0  0
    0.3139   -0.2139   -2.0995 H   0  0  0  0  0  0  0  0  0  0  0  0
   -0.2411    1.9703   -2.1600 H   0  0  0  0  0  0  0  0  0  0  0  0
    0.0536    2.3229   -0.4490 H   0  0  0  0  0  0  0  0  0  0  0  0
   -1.8901    1.4464    0.2841 H   0  0  0  0  0  0  0  0  0  0  0  0
   -2.3869    2.0446   -1.3747 H   0  0  0  0  0  0  0  0  0  0  0  0
   -1.7187   -0.3593   -2.1601 H   0  0  0  0  0  0  0  0  0  0  0  0
   -3.9739    0.6132   -1.8173 H   0  0  0  0  0  0  0  0  0  0  0  0
   -3.9418   -1.1548   -1.7099 H   0  0  0  0  0  0  0  0  0  0  0  0
   -5.3094   -0.4659    0.0240 H   0  0  0  0  0  0  0  0  0  0  0  0
   -4.4775    1.8151   -0.1017 H   0  0  0  0  0  0  0  0  0  0  0  0
   -3.8600   -2.1011    0.7881 H   0  0  0  0  0  0  0  0  0  0  0  0
   -4.0372   -0.9309    2.1063 H   0  0  0  0  0  0  0  0  0  0  0  0
   -1.7346   -1.7883    1.7944 H   0  0  0  0  0  0  0  0  0  0  0  0
   -1.8587    0.0118    1.7615 H   0  0  0  0  0  0  0  0  0  0  0  0
   -1.3828   -3.0763    0.2557 H   0  0  0  0  0  0  0  0  0  0  0  0
   -1.0100   -2.6683   -1.4279 H   0  0  0  0  0  0  0  0  0  0  0  0
   -2.7616   -2.5854   -0.8611 H   0  0  0  0  0  0  0  0  0  0  0  0
    2.4827    0.3956   -1.9729 H   0  0  0  0  0  0  0  0  0  0  0  0
    1.9271    2.3000    0.3558 H   0  0  0  0  0  0  0  0  0  0  0  0
    1.8275    2.7248   -1.4441 H   0  0  0  0  0  0  0  0  0  0  0  0
    4.1947    2.8999   -0.2871 H   0  0  0  0  0  0  0  0  0  0  0  0
    4.1041    1.6817   -1.6746 H   0  0  0  0  0  0  0  0  0  0  0  0
    3.8812    1.2714    1.3111 H   0  0  0  0  0  0  0  0  0  0  0  0
    5.4661    0.4084   -0.8885 H   0  0  0  0  0  0  0  0  0  0  0  0
  2  1  1  6
  2  3  1  0
  3  4  1  0
  4  5  1  0
  5  6  1  0
  6  7  1  0
  7  8  1  0
  8  9  1  0
  9 10  1  0
 10 11  1  0
 11 12  1  0
 11 13  1  0
 13 14  1  0
 14 15  1  0
 15 16  1  6
  6 17  1  0
 17 18  1  0
 18 19  1  0
 19 20  1  0
 20 21  1  0
 17  2  1  0
 20  2  1  0
 15  5  1  0
 15  9  1  0
  1 22  1  0
  1 23  1  0
  1 24  1  0
  3 25  1  0
  3 26  1  0
  4 27  1  0
  4 28  1  0
  5 29  1  0
  6 30  1  0
  7 31  1  0
  7 32  1  0
  8 33  1  0
  8 34  1  0
  9 35  1  0
 10 36  1  0
 10 37  1  0
 11 38  1  6
 12 39  1  0
 13 40  1  0
 13 41  1  0
 14 42  1  0
 14 43  1  0
 16 44  1  0
 16 45  1  0
 16 46  1  0
 17 47  1  0
 18 48  1  0
 18 49  1  0
 19 50  1  0
 19 51  1  0
 20 52  1  1
 21 53  1  0
M  END
$$$$
[H]c1nc2c([H])c([H])c([H])c([H])n2c1-c1c([H])c(N([H])C(=O)c2c([H])c([H])c(C([H])([H])N3C([H])([H])C([H])([H])N(C([H])([H])[H])C([H])([H])C3([H])[H])c(C(F)(F)F)c2[H])c([H])c([H])c1C([H])([H])[H]
     RDKit          3D

 65 69  0  0  0  0  0  0  0  0999 V2000
    8.9739    0.3589   -1.0819 C   0  0  0  0  0  0  0  0  0  0  0  0
    7.5959    0.2892   -0.5907 N   0  0  0  0  0  0  0  0  0  0  0  0
    7.5975   -0.4572    0.6592 C   0  0  0  0  0  0  0  0  0  0  0  0
    6.8275    0.3100    1.6894 C   0  0  0  0  0  0  0  0  0  0  0  0
    5.4924    0.6758    1.2241 N   0  0  0  0  0  0  0  0  0  0  0  0
    4.8711   -0.5916    0.8227 C   0  0  0  0  0  0  0  0  0  0  0  0
    3.4214   -0.4474    0.5577 C   0  0  0  0  0  0  0  0  0  0  0  0
    2.7749    0.7528    0.7635 C   0  0  0  0  0  0  0  0  0  0  0  0
    1.4186    0.8179    0.5264 C   0  0  0  0  0  0  0  0  0  0  0  0
    0.6845   -0.2662    0.0939 C   0  0  0  0  0  0  0  0  0  0  0  0
    1.3626   -1.4313   -0.0956 C   0  0  0  0  0  0  0  0  0  0  0  0
    2.7337   -1.5726    0.1232 C   0  0  0  0  0  0  0  0  0  0  0  0
    3.3872   -2.8820   -0.1085 C   0  0  0  0  0  0  0  0  0  0  0  0
    4.3618   -2.8649   -1.0589 F   0  0  0  0  0  0  0  0  0  0  0  0
    2.4114   -3.7896   -0.5236 F   0  0  0  0  0  0  0  0  0  0  0  0
    3.8556   -3.3843    1.1041 F   0  0  0  0  0  0  0  0  0  0  0  0
   -0.7793   -0.1285   -0.1507 C   0  0  0  0  0  0  0  0  0  0  0  0
   -1.1443    1.0715   -0.2862 O   0  0  0  0  0  0  0  0  0  0  0  0
   -1.6023   -1.2614   -0.2102 N   0  0  0  0  0  0  0  0  0  0  0  0
   -3.0041   -1.2851   -0.4349 C   0  0  0  0  0  0  0  0  0  0  0  0
   -3.6388   -2.5371   -0.5768 C   0  0  0  0  0  0  0  0  0  0  0  0
   -4.9847   -2.6349   -0.7939 C   0  0  0  0  0  0  0  0  0  0  0  0
   -5.8002   -1.5002   -0.8861 C   0  0  0  0  0  0  0  0  0  0  0  0
   -7.2348   -1.7348   -1.2844 C   0  0  0  0  0  0  0  0  0  0  0  0
   -5.2244   -0.2868   -0.7491 C   0  0  0  0  0  0  0  0  0  0  0  0
   -3.8200   -0.2015   -0.5258 C   0  0  0  0  0  0  0  0  0  0  0  0
   -5.9301    0.9822   -0.6584 C   0  0  0  0  0  0  0  0  0  0  0  0
   -5.4225    2.1470   -1.2817 C   0  0  0  0  0  0  0  0  0  0  0  0
   -6.2209    3.1359   -0.9416 N   0  0  0  0  0  0  0  0  0  0  0  0
   -7.1995    2.6426   -0.1337 C   0  0  0  0  0  0  0  0  0  0  0  0
   -8.2057    3.3900    0.4551 C   0  0  0  0  0  0  0  0  0  0  0  0
   -9.0858    2.7446    1.2853 C   0  0  0  0  0  0  0  0  0  0  0  0
   -8.8780    1.4038    1.4535 C   0  0  0  0  0  0  0  0  0  0  0  0
   -7.8718    0.6881    0.8558 C   0  0  0  0  0  0  0  0  0  0  0  0
   -7.0050    1.3227    0.0316 N   0  0  0  0  0  0  0  0  0  0  0  0
    5.6333    1.5190    0.0290 C   0  0  0  0  0  0  0  0  0  0  0  0
    7.0682    1.6264   -0.3849 C   0  0  0  0  0  0  0  0  0  0  0  0
    9.1293   -0.4773   -1.7643 H   0  0  0  0  0  0  0  0  0  0  0  0
    9.0745    1.3630   -1.5712 H   0  0  0  0  0  0  0  0  0  0  0  0
    9.6343    0.2773   -0.1937 H   0  0  0  0  0  0  0  0  0  0  0  0
    8.6530   -0.5378    1.0433 H   0  0  0  0  0  0  0  0  0  0  0  0
    7.1434   -1.4486    0.5232 H   0  0  0  0  0  0  0  0  0  0  0  0
    7.4159    1.1727    2.0333 H   0  0  0  0  0  0  0  0  0  0  0  0
    6.6694   -0.3197    2.5959 H   0  0  0  0  0  0  0  0  0  0  0  0
    5.3510   -0.8623   -0.1628 H   0  0  0  0  0  0  0  0  0  0  0  0
    5.0828   -1.3229    1.6204 H   0  0  0  0  0  0  0  0  0  0  0  0
    3.3379    1.5943    1.1182 H   0  0  0  0  0  0  0  0  0  0  0  0
    0.9202    1.7570    0.6879 H   0  0  0  0  0  0  0  0  0  0  0  0
    0.8325   -2.3261   -0.4436 H   0  0  0  0  0  0  0  0  0  0  0  0
   -1.0975   -2.1919   -0.0618 H   0  0  0  0  0  0  0  0  0  0  0  0
   -3.0091   -3.4091   -0.5059 H   0  0  0  0  0  0  0  0  0  0  0  0
   -5.4812   -3.6026   -0.9040 H   0  0  0  0  0  0  0  0  0  0  0  0
   -7.8328   -2.1498   -0.4640 H   0  0  0  0  0  0  0  0  0  0  0  0
   -7.2577   -2.5550   -2.0764 H   0  0  0  0  0  0  0  0  0  0  0  0
   -7.6646   -0.8692   -1.8096 H   0  0  0  0  0  0  0  0  0  0  0  0
   -3.4005    0.7871   -0.4228 H   0  0  0  0  0  0  0  0  0  0  0  0
   -4.5290    2.1874   -1.9226 H   0  0  0  0  0  0  0  0  0  0  0  0
   -8.3023    4.4622    0.2688 H   0  0  0  0  0  0  0  0  0  0  0  0
   -9.8820    3.2945    1.7598 H   0  0  0  0  0  0  0  0  0  0  0  0
   -9.5690    0.8607    2.1168 H   0  0  0  0  0  0  0  0  0  0  0  0
   -7.7315   -0.3525    1.0718 H   0  0  0  0  0  0  0  0  0  0  0  0
    5.2979    2.5742    0.2342 H   0  0  0  0  0  0  0  0  0  0  0  0
    5.0272    1.1107   -0.7981 H   0  0  0  0  0  0  0  0  0  0  0  0
    7.6436    2.2301    0.3188 H   0  0  0  0  0  0  0  0  0  0  0  0
    7.1252    2.1326   -1.3742 H   0  0  0  0  0  0  0  0  0  0  0  0
  1  2  1  0
  2  3  1  0
  3  4  1  0
  4  5  1  0
  5  6  1  0
  6  7  1  0
  7  8  2  0
  8  9  1  0
  9 10  2  0
 10 11  1  0
 11 12  2  0
 12 13  1  0
 13 14  1  0
 13 15  1  0
 13 16  1  0
 10 17  1  0
 17 18  2  0
 17 19  1  0
 19 20  1  0
 20 21  2  0
 21 22  1  0
 22 23  2  0
 23 24  1  0
 23 25  1  0
 25 26  2  0
 25 27  1  0
 27 28  2  0
 28 29  1  0
 29 30  2  0
 30 31  1  0
 31 32  2  0
 32 33  1  0
 33 34  2  0
 34 35  1  0
  5 36  1  0
 36 37  1  0
 37  2  1  0
 12  7  1  0
 26 20  1  0
 35 27  1  0
 35 30  1  0
  1 38  1  0
  1 39  1  0
  1 40  1  0
  3 41  1  0
  3 42  1  0
  4 43  1  0
  4 44  1  0
  6 45  1  0
  6 46  1  0
  8 47  1  0
  9 48  1  0
 11 49  1  0
 19 50  1  0
 21 51  1  0
 22 52  1  0
 24 53  1  0
 24 54  1  0
 24 55  1  0
 26 56  1  0
 28 57  1  0
 31 58  1  0
 32 59  1  0
 33 60  1  0
 34 61  1  0
 36 62  1  0
 36 63  1  0
 37 64  1  0
 37 65  1  0
M  END
$$$$
[H]OC(=O)c1c([H])c([H])c(-c2c([H])c([H])c(OC([H])(C([H])([H])[H])C([H])([H])[H])c(C#N)c2[H])c(C#N)c1[H]
     RDKit          3D

 37 38  0  0  0  0  0  0  0  0999 V2000
   -5.4057   -0.0775    1.0677 C   0  0  0  0  0  0  0  0  0  0  0  0
   -4.5455   -0.1533   -0.2346 C   0  0  0  0  0  0  0  0  0  0  0  0
   -5.4091    0.6504   -1.2306 C   0  0  0  0  0  0  0  0  0  0  0  0
   -3.3365    0.3129   -0.0478 O   0  0  0  0  0  0  0  0  0  0  0  0
   -2.0135    0.1806   -0.0294 C   0  0  0  0  0  0  0  0  0  0  0  0
   -1.2115    1.3069    0.3309 C   0  0  0  0  0  0  0  0  0  0  0  0
    0.1483    1.2250    0.3656 C   0  0  0  0  0  0  0  0  0  0  0  0
    0.8167    0.0525    0.0550 C   0  0  0  0  0  0  0  0  0  0  0  0
    0.0332   -1.0152   -0.2878 C   0  0  0  0  0  0  0  0  0  0  0  0
   -1.3570   -0.9825   -0.3378 C   0  0  0  0  0  0  0  0  0  0  0  0
   -2.0664   -2.1919   -0.7182 C   0  0  0  0  0  0  0  0  0  0  0  0
   -2.6005   -3.1715   -1.0245 N   0  0  0  0  0  0  0  0  0  0  0  0
    2.2623    0.0392    0.1016 C   0  0  0  0  0  0  0  0  0  0  0  0
    2.9341    1.0657   -0.5721 C   0  0  0  0  0  0  0  0  0  0  0  0
    4.3043    1.0761   -0.5594 C   0  0  0  0  0  0  0  0  0  0  0  0
    5.0377    0.1012    0.1001 C   0  0  0  0  0  0  0  0  0  0  0  0
    4.3676   -0.8999    0.7572 C   0  0  0  0  0  0  0  0  0  0  0  0
    2.9751   -0.9259    0.7548 C   0  0  0  0  0  0  0  0  0  0  0  0
    2.3100   -1.9675    1.4547 C   0  0  0  0  0  0  0  0  0  0  0  0
    1.7838   -2.8176    2.0444 N   0  0  0  0  0  0  0  0  0  0  0  0
    6.4967    0.1628    0.0795 C   0  0  0  0  0  0  0  0  0  0  0  0
    7.1707    1.1758   -0.5855 O   0  0  0  0  0  0  0  0  0  0  0  0
    7.1684   -0.7141    0.6729 O   0  0  0  0  0  0  0  0  0  0  0  0
   -5.2241    0.8665    1.5866 H   0  0  0  0  0  0  0  0  0  0  0  0
   -5.1654   -0.9694    1.6670 H   0  0  0  0  0  0  0  0  0  0  0  0
   -6.4788   -0.1325    0.7940 H   0  0  0  0  0  0  0  0  0  0  0  0
   -4.6281   -1.2042   -0.5423 H   0  0  0  0  0  0  0  0  0  0  0  0
   -6.4420    0.2664   -1.0975 H   0  0  0  0  0  0  0  0  0  0  0  0
   -5.1199    0.4608   -2.2619 H   0  0  0  0  0  0  0  0  0  0  0  0
   -5.3879    1.7124   -0.9826 H   0  0  0  0  0  0  0  0  0  0  0  0
   -1.7379    2.2238    0.5735 H   0  0  0  0  0  0  0  0  0  0  0  0
    0.6911    2.1366    0.6526 H   0  0  0  0  0  0  0  0  0  0  0  0
    0.5118   -1.9517   -0.5459 H   0  0  0  0  0  0  0  0  0  0  0  0
    2.3537    1.8253   -1.0861 H   0  0  0  0  0  0  0  0  0  0  0  0
    4.8475    1.8614   -1.0745 H   0  0  0  0  0  0  0  0  0  0  0  0
    4.9171   -1.6680    1.2765 H   0  0  0  0  0  0  0  0  0  0  0  0
    6.9998    2.1401   -0.3863 H   0  0  0  0  0  0  0  0  0  0  0  0
  1  2  1  0
  2  3  1  0
  2  4  1  0
  4  5  1  0
  5  6  2  0
  6  7  1  0
  7  8  2  0
  8  9  1  0
  9 10  2  0
 10 11  1  0
 11 12  3  0
  8 13  1  0
 13 14  2  0
 14 15  1  0
 15 16  2  0
 16 17  1  0
 17 18  2  0
 18 19  1  0
 19 20  3  0
 16 21  1  0
 21 22  1  0
 21 23  2  0
 10  5  1  0
 18 13  1  0
  1 24  1  0
  1 25  1  0
  1 26  1  0
  2 27  1  0
  3 28  1  0
  3 29  1  0
  3 30  1  0
  6 31  1  0
  7 32  1  0
  9 33  1  0
 14 34  1  0
 15 35  1  0
 17 36  1  0
 22 37  1  0
M  END
$$$$
[H]c1c([H])c([H])c(C([H])([H])[C@@]2([H])C(=O)N3C([H])([H])C([H])([H])C([H])([H])[C@@]3([H])C(=O)N([H])[C@@]([H])(C([H])([H])c3c([H])n([H])c4c([H])c([H])c([H])c([H])c34)C(=O)N([H])[C@@]([H])(C([H])([H])c3c([H])n([H])c4c([H])c([H])c([H])c([H])c34)C(=O)N([H])[C@@]([H])(C([H])([H])c3c([H])c([H])c([H])c([H])c3[H])C(=O)N([H])[C@@]([H])([C@@]([H])(C([H])([H])[H])C([H])([H])C([H])([H])[H])C(=O)N2[H])c([H])c1[H]
     RDKit          3D

121128  0  0  0  0  0  0  0  0999 V2000
   -5.4271    2.4714    1.8965 C   0  0  0  0  0  0  0  0  0  0  0  0
   -4.7275    2.5024    0.5358 C   0  0  0  0  0  0  0  0  0  0  0  0
   -3.3497    1.9815    0.7660 C   0  0  2  0  0  0  0  0  0  0  0  0
   -2.6866    2.9055    1.7796 C   0  0  0  0  0  0  0  0  0  0  0  0
   -2.5069    1.7870   -0.4490 C   0  0  2  0  0  0  0  0  0  0  0  0
   -2.3135    3.0471   -1.1854 N   0  0  0  0  0  0  0  0  0  0  0  0
   -1.1260    3.5103   -1.7281 C   0  0  0  0  0  0  0  0  0  0  0  0
   -1.1085    3.6151   -3.0182 O   0  0  0  0  0  0  0  0  0  0  0  0
    0.1266    3.9061   -1.0741 C   0  0  2  0  0  0  0  0  0  0  0  0
    0.5237    5.3491   -1.2973 C   0  0  0  0  0  0  0  0  0  0  0  0
    0.7203    5.7783   -2.6654 C   0  0  0  0  0  0  0  0  0  0  0  0
    1.9126    5.5588   -3.3072 C   0  0  0  0  0  0  0  0  0  0  0  0
    2.1461    5.9946   -4.6076 C   0  0  0  0  0  0  0  0  0  0  0  0
    1.1553    6.6674   -5.2729 C   0  0  0  0  0  0  0  0  0  0  0  0
   -0.0511    6.9070   -4.6626 C   0  0  0  0  0  0  0  0  0  0  0  0
   -0.2584    6.4562   -3.3558 C   0  0  0  0  0  0  0  0  0  0  0  0
    1.1917    3.0289   -1.5200 N   0  0  0  0  0  0  0  0  0  0  0  0
    2.1309    2.3302   -0.7972 C   0  0  0  0  0  0  0  0  0  0  0  0
    3.3709    2.6496   -1.0208 O   0  0  0  0  0  0  0  0  0  0  0  0
    2.0002    1.2476    0.2200 C   0  0  2  0  0  0  0  0  0  0  0  0
    1.9578    1.8978    1.5669 C   0  0  0  0  0  0  0  0  0  0  0  0
    3.1245    2.7042    1.8982 C   0  0  0  0  0  0  0  0  0  0  0  0
    3.2087    4.0890    1.6821 C   0  0  0  0  0  0  0  0  0  0  0  0
    4.4180    4.4691    2.0680 N   0  0  0  0  0  0  0  0  0  0  0  0
    5.1153    3.4134    2.5200 C   0  0  0  0  0  0  0  0  0  0  0  0
    6.3899    3.3120    3.0387 C   0  0  0  0  0  0  0  0  0  0  0  0
    6.8836    2.0834    3.4707 C   0  0  0  0  0  0  0  0  0  0  0  0
    6.1055    0.9510    3.3864 C   0  0  0  0  0  0  0  0  0  0  0  0
    4.8444    1.0713    2.8670 C   0  0  0  0  0  0  0  0  0  0  0  0
    4.3160    2.2693    2.4255 C   0  0  0  0  0  0  0  0  0  0  0  0
    3.0895    0.3044    0.1013 N   0  0  0  0  0  0  0  0  0  0  0  0
    3.1027   -1.0820    0.1971 C   0  0  0  0  0  0  0  0  0  0  0  0
    4.2410   -1.6796    0.1216 O   0  0  0  0  0  0  0  0  0  0  0  0
    1.9608   -2.0246    0.3788 C   0  0  2  0  0  0  0  0  0  0  0  0
    1.4689   -2.3339   -0.9766 C   0  0  0  0  0  0  0  0  0  0  0  0
    2.5804   -2.9730   -1.7758 C   0  0  0  0  0  0  0  0  0  0  0  0
    3.3497   -2.4306   -2.7523 C   0  0  0  0  0  0  0  0  0  0  0  0
    4.2081   -3.3673   -3.1915 N   0  0  0  0  0  0  0  0  0  0  0  0
    4.0238   -4.5321   -2.5197 C   0  0  0  0  0  0  0  0  0  0  0  0
    4.6522   -5.7753   -2.6114 C   0  0  0  0  0  0  0  0  0  0  0  0
    4.2319   -6.7898   -1.7801 C   0  0  0  0  0  0  0  0  0  0  0  0
    3.2102   -6.5406   -0.8908 C   0  0  0  0  0  0  0  0  0  0  0  0
    2.5902   -5.3241   -0.7963 C   0  0  0  0  0  0  0  0  0  0  0  0
    3.0023   -4.2943   -1.6268 C   0  0  0  0  0  0  0  0  0  0  0  0
    1.0649   -1.6765    1.4121 N   0  0  0  0  0  0  0  0  0  0  0  0
   -0.3123   -1.7870    1.6253 C   0  0  0  0  0  0  0  0  0  0  0  0
   -0.9165   -0.6412    1.7082 O   0  0  0  0  0  0  0  0  0  0  0  0
   -1.2092   -2.9209    1.7769 C   0  0  2  0  0  0  0  0  0  0  0  0
   -0.6326   -4.0349    2.6295 C   0  0  0  0  0  0  0  0  0  0  0  0
   -1.5240   -5.2080    2.2263 C   0  0  0  0  0  0  0  0  0  0  0  0
   -1.5164   -4.9691    0.7550 C   0  0  0  0  0  0  0  0  0  0  0  0
   -1.7954   -3.5200    0.6030 N   0  0  0  0  0  0  0  0  0  0  0  0
   -2.4708   -2.9042   -0.4445 C   0  0  0  0  0  0  0  0  0  0  0  0
   -2.3394   -3.4652   -1.6001 O   0  0  0  0  0  0  0  0  0  0  0  0
   -3.3287   -1.6948   -0.4701 C   0  0  2  0  0  0  0  0  0  0  0  0
   -4.7556   -2.0784   -0.8491 C   0  0  0  0  0  0  0  0  0  0  0  0
   -5.2730   -3.0287    0.1609 C   0  0  0  0  0  0  0  0  0  0  0  0
   -5.2138   -4.3778    0.0550 C   0  0  0  0  0  0  0  0  0  0  0  0
   -5.7378   -5.1468    1.0711 C   0  0  0  0  0  0  0  0  0  0  0  0
   -6.3192   -4.5917    2.1909 C   0  0  0  0  0  0  0  0  0  0  0  0
   -6.3919   -3.2195    2.3212 C   0  0  0  0  0  0  0  0  0  0  0  0
   -5.8637   -2.4475    1.2960 C   0  0  0  0  0  0  0  0  0  0  0  0
   -2.8147   -0.6582   -1.3465 N   0  0  0  0  0  0  0  0  0  0  0  0
   -2.9514    0.7157   -1.3705 C   0  0  0  0  0  0  0  0  0  0  0  0
   -3.5901    1.2239   -2.3848 O   0  0  0  0  0  0  0  0  0  0  0  0
   -6.5036    2.3097    1.6981 H   0  0  0  0  0  0  0  0  0  0  0  0
   -5.2581    3.4141    2.4494 H   0  0  0  0  0  0  0  0  0  0  0  0
   -5.0470    1.5836    2.4468 H   0  0  0  0  0  0  0  0  0  0  0  0
   -5.2621    1.7572   -0.0901 H   0  0  0  0  0  0  0  0  0  0  0  0
   -4.7556    3.5245    0.1141 H   0  0  0  0  0  0  0  0  0  0  0  0
   -3.4449    1.0093    1.2865 H   0  0  0  0  0  0  0  0  0  0  0  0
   -3.2945    2.8383    2.7138 H   0  0  0  0  0  0  0  0  0  0  0  0
   -1.6854    2.5098    2.0730 H   0  0  0  0  0  0  0  0  0  0  0  0
   -2.6271    3.9260    1.3791 H   0  0  0  0  0  0  0  0  0  0  0  0
   -1.4781    1.5979   -0.0120 H   0  0  0  0  0  0  0  0  0  0  0  0
   -3.1910    3.6501   -1.3139 H   0  0  0  0  0  0  0  0  0  0  0  0
    0.0330    3.8555    0.0582 H   0  0  0  0  0  0  0  0  0  0  0  0
    1.4522    5.4999   -0.6644 H   0  0  0  0  0  0  0  0  0  0  0  0
   -0.2384    5.9803   -0.7423 H   0  0  0  0  0  0  0  0  0  0  0  0
    2.7325    5.0343   -2.8367 H   0  0  0  0  0  0  0  0  0  0  0  0
    3.0851    5.8187   -5.1119 H   0  0  0  0  0  0  0  0  0  0  0  0
    1.2932    7.0262   -6.2887 H   0  0  0  0  0  0  0  0  0  0  0  0
   -0.8110    7.4458   -5.2151 H   0  0  0  0  0  0  0  0  0  0  0  0
   -1.2047    6.6532   -2.8978 H   0  0  0  0  0  0  0  0  0  0  0  0
    1.2308    2.9426   -2.5963 H   0  0  0  0  0  0  0  0  0  0  0  0
    1.0158    0.7079    0.0465 H   0  0  0  0  0  0  0  0  0  0  0  0
    1.7882    1.1148    2.3800 H   0  0  0  0  0  0  0  0  0  0  0  0
    1.0451    2.5422    1.6843 H   0  0  0  0  0  0  0  0  0  0  0  0
    2.3832    4.6477    1.2812 H   0  0  0  0  0  0  0  0  0  0  0  0
    4.7645    5.4559    2.0211 H   0  0  0  0  0  0  0  0  0  0  0  0
    6.9817    4.2134    3.0938 H   0  0  0  0  0  0  0  0  0  0  0  0
    7.8769    2.0451    3.8684 H   0  0  0  0  0  0  0  0  0  0  0  0
    6.4551   -0.0144    3.7147 H   0  0  0  0  0  0  0  0  0  0  0  0
    4.2289    0.1927    2.8174 H   0  0  0  0  0  0  0  0  0  0  0  0
    4.0207    0.7885   -0.1062 H   0  0  0  0  0  0  0  0  0  0  0  0
    2.4341   -3.0073    0.7214 H   0  0  0  0  0  0  0  0  0  0  0  0
    0.6366   -3.0212   -1.0816 H   0  0  0  0  0  0  0  0  0  0  0  0
    1.2471   -1.3544   -1.4917 H   0  0  0  0  0  0  0  0  0  0  0  0
    3.2645   -1.4055   -3.0999 H   0  0  0  0  0  0  0  0  0  0  0  0
    4.9396   -3.2780   -3.9390 H   0  0  0  0  0  0  0  0  0  0  0  0
    5.4524   -5.8985   -3.3337 H   0  0  0  0  0  0  0  0  0  0  0  0
    4.7315   -7.7366   -1.8708 H   0  0  0  0  0  0  0  0  0  0  0  0
    2.8994   -7.3715   -0.2419 H   0  0  0  0  0  0  0  0  0  0  0  0
    1.8078   -5.1732   -0.0911 H   0  0  0  0  0  0  0  0  0  0  0  0
    1.6229   -1.2117    2.2241 H   0  0  0  0  0  0  0  0  0  0  0  0
   -2.1350   -2.6514    2.3885 H   0  0  0  0  0  0  0  0  0  0  0  0
    0.4049   -4.2945    2.3461 H   0  0  0  0  0  0  0  0  0  0  0  0
   -0.7835   -3.8698    3.7139 H   0  0  0  0  0  0  0  0  0  0  0  0
   -1.0392   -6.1873    2.4129 H   0  0  0  0  0  0  0  0  0  0  0  0
   -2.5337   -5.1232    2.6430 H   0  0  0  0  0  0  0  0  0  0  0  0
   -0.4893   -5.1017    0.3700 H   0  0  0  0  0  0  0  0  0  0  0  0
   -2.1922   -5.6123    0.1852 H   0  0  0  0  0  0  0  0  0  0  0  0
   -3.4635   -1.2380    0.5308 H   0  0  0  0  0  0  0  0  0  0  0  0
   -4.6588   -2.5839   -1.8457 H   0  0  0  0  0  0  0  0  0  0  0  0
   -5.4276   -1.2267   -0.8687 H   0  0  0  0  0  0  0  0  0  0  0  0
   -4.7596   -4.8306   -0.8208 H   0  0  0  0  0  0  0  0  0  0  0  0
   -5.7071   -6.2294    1.0148 H   0  0  0  0  0  0  0  0  0  0  0  0
   -6.7408   -5.1633    3.0075 H   0  0  0  0  0  0  0  0  0  0  0  0
   -6.8423   -2.7182    3.1833 H   0  0  0  0  0  0  0  0  0  0  0  0
   -5.9332   -1.3762    1.4201 H   0  0  0  0  0  0  0  0  0  0  0  0
   -2.2266   -1.0878   -2.1305 H   0  0  0  0  0  0  0  0  0  0  0  0
  1  2  1  0
  2  3  1  0
  3  4  1  0
  3  5  1  0
  5  6  1  0
  6  7  1  0
  7  8  2  0
  7  9  1  0
  9 10  1  0
 10 11  1  0
 11 12  2  0
 12 13  1  0
 13 14  2  0
 14 15  1  0
 15 16  2  0
  9 17  1  0
 17 18  1  0
 18 19  2  0
 18 20  1  0
 20 21  1  0
 21 22  1  0
 22 23  2  0
 23 24  1  0
 24 25  1  0
 25 26  2  0
 26 27  1  0
 27 28  2  0
 28 29  1  0
 29 30  2  0
 20 31  1  0
 31 32  1  0
 32 33  2  0
 32 34  1  0
 34 35  1  0
 35 36  1  0
 36 37  2  0
 37 38  1  0
 38 39  1  0
 39 40  2  0
 40 41  1  0
 41 42  2  0
 42 43  1  0
 43 44  2  0
 34 45  1  0
 45 46  1  0
 46 47  2  0
 46 48  1  0
 48 49  1  0
 49 50  1  0
 50 51  1  0
 51 52  1  0
 52 53  1  0
 53 54  2  0
 53 55  1  0
 55 56  1  0
 56 57  1  0
 57 58  2  0
 58 59  1  0
 59 60  2  0
 60 61  1  0
 61 62  2  0
 55 63  1  0
 63 64  1  0
 64 65  2  0
 64  5  1  0
 16 11  1  0
 30 22  1  0
 44 36  1  0
 52 48  1  0
 62 57  1  0
 30 25  1  0
 44 39  1  0
  1 66  1  0
  1 67  1  0
  1 68  1  0
  2 69  1  0
  2 70  1  0
  3 71  1  1
  4 72  1  0
  4 73  1  0
  4 74  1  0
  5 75  1  1
  6 76  1  0
  9 77  1  1
 10 78  1  0
 10 79  1  0
 12 80  1  0
 13 81  1  0
 14 82  1  0
 15 83  1  0
 16 84  1  0
 17 85  1  0
 20 86  1  6
 21 87  1  0
 21 88  1  0
 23 89  1  0
 24 90  1  0
 26 91  1  0
 27 92  1  0
 28 93  1  0
 29 94  1  0
 31 95  1  0
 34 96  1  1
 35 97  1  0
 35 98  1  0
 37 99  1  0
 38100  1  0
 40101  1  0
 41102  1  0
 42103  1  0
 43104  1  0
 45105  1  0
 48106  1  1
 49107  1  0
 49108  1  0
 50109  1  0
 50110  1  0
 51111  1  0
 51112  1  0
 55113  1  1
 56114  1  0
 56115  1  0
 58116  1  0
 59117  1  0
 60118  1  0
 61119  1  0
 62120  1  0
 63121  1  0
M  END
$$$$
[H]OC(=O)[C@@]([H])(N([H])C(=O)[C@@]([H])(N([H])[H])[C@@]([H])(C(=O)O[H])C([H])([H])c1c([H])c([H])c([H])c([H])c1[H])C([H])([H])c1c([H])c([H])c(O[H])c([H])c1[H]
     RDKit          3D

 50 51  0  0  0  0  0  0  0  0999 V2000
   -1.5594    0.0013    1.7919 N   0  0  0  0  0  0  0  0  0  0  0  0
   -1.7217    0.0715    0.3026 C   0  0  1  0  0  0  0  0  0  0  0  0
   -2.3378    1.3689    0.0436 C   0  0  2  0  0  0  0  0  0  0  0  0
   -3.6892    1.5191    0.7132 C   0  0  0  0  0  0  0  0  0  0  0  0
   -4.7049    0.5305    0.2813 C   0  0  0  0  0  0  0  0  0  0  0  0
   -4.9198   -0.6301    0.9786 C   0  0  0  0  0  0  0  0  0  0  0  0
   -5.8639   -1.5488    0.5608 C   0  0  0  0  0  0  0  0  0  0  0  0
   -6.5952   -1.2898   -0.5699 C   0  0  0  0  0  0  0  0  0  0  0  0
   -6.3948   -0.1341   -1.2802 C   0  0  0  0  0  0  0  0  0  0  0  0
   -5.4528    0.7683   -0.8519 C   0  0  0  0  0  0  0  0  0  0  0  0
   -2.4908    1.8893   -1.2996 C   0  0  0  0  0  0  0  0  0  0  0  0
   -2.9119    3.2433   -1.3775 O   0  0  0  0  0  0  0  0  0  0  0  0
   -2.3273    1.3844   -2.4067 O   0  0  0  0  0  0  0  0  0  0  0  0
   -0.4664   -0.2801   -0.3366 C   0  0  0  0  0  0  0  0  0  0  0  0
   -0.3104   -0.3703   -1.5596 O   0  0  0  0  0  0  0  0  0  0  0  0
    0.6792   -0.5461    0.4383 N   0  0  0  0  0  0  0  0  0  0  0  0
    1.9847   -0.9080   -0.1275 C   0  0  1  0  0  0  0  0  0  0  0  0
    2.9177    0.1639    0.3281 C   0  0  0  0  0  0  0  0  0  0  0  0
    4.3094    0.0820   -0.0773 C   0  0  0  0  0  0  0  0  0  0  0  0
    4.7860    0.5830   -1.2723 C   0  0  0  0  0  0  0  0  0  0  0  0
    6.1155    0.4804   -1.5487 C   0  0  0  0  0  0  0  0  0  0  0  0
    7.0102   -0.1076   -0.6775 C   0  0  0  0  0  0  0  0  0  0  0  0
    8.3605   -0.2127   -0.9562 O   0  0  0  0  0  0  0  0  0  0  0  0
    6.5545   -0.6148    0.5229 C   0  0  0  0  0  0  0  0  0  0  0  0
    5.2172   -0.5114    0.8006 C   0  0  0  0  0  0  0  0  0  0  0  0
    2.3934   -2.2423    0.3410 C   0  0  0  0  0  0  0  0  0  0  0  0
    3.5485   -2.8439   -0.1059 O   0  0  0  0  0  0  0  0  0  0  0  0
    1.6753   -2.8690    1.1747 O   0  0  0  0  0  0  0  0  0  0  0  0
   -0.9071    0.7494    2.1112 H   0  0  0  0  0  0  0  0  0  0  0  0
   -1.2985   -0.9598    2.0743 H   0  0  0  0  0  0  0  0  0  0  0  0
   -2.4385   -0.7531    0.1066 H   0  0  0  0  0  0  0  0  0  0  0  0
   -1.7200    2.1721    0.5797 H   0  0  0  0  0  0  0  0  0  0  0  0
   -3.5038    1.3701    1.8096 H   0  0  0  0  0  0  0  0  0  0  0  0
   -4.0721    2.5524    0.5916 H   0  0  0  0  0  0  0  0  0  0  0  0
   -4.3690   -0.8807    1.8986 H   0  0  0  0  0  0  0  0  0  0  0  0
   -6.0267   -2.4617    1.1162 H   0  0  0  0  0  0  0  0  0  0  0  0
   -7.3573   -1.9917   -0.9398 H   0  0  0  0  0  0  0  0  0  0  0  0
   -6.9910    0.0603   -2.1875 H   0  0  0  0  0  0  0  0  0  0  0  0
   -5.3058    1.6958   -1.4335 H   0  0  0  0  0  0  0  0  0  0  0  0
   -2.9684    3.8608   -0.6070 H   0  0  0  0  0  0  0  0  0  0  0  0
    0.5871   -0.4798    1.4752 H   0  0  0  0  0  0  0  0  0  0  0  0
    1.8895   -0.9192   -1.2267 H   0  0  0  0  0  0  0  0  0  0  0  0
    2.8000    0.3460    1.4331 H   0  0  0  0  0  0  0  0  0  0  0  0
    2.5155    1.1253   -0.1200 H   0  0  0  0  0  0  0  0  0  0  0  0
    4.0529    1.0361   -1.9285 H   0  0  0  0  0  0  0  0  0  0  0  0
    6.4663    0.8835   -2.4968 H   0  0  0  0  0  0  0  0  0  0  0  0
    8.9613    0.5394   -0.6647 H   0  0  0  0  0  0  0  0  0  0  0  0
    7.2519   -1.0775    1.2111 H   0  0  0  0  0  0  0  0  0  0  0  0
    4.8964   -0.9250    1.7612 H   0  0  0  0  0  0  0  0  0  0  0  0
    3.7317   -2.9196   -1.1014 H   0  0  0  0  0  0  0  0  0  0  0  0
  1  2  1  0
  2  3  1  0
  3  4  1  0
  4  5  1  0
  5  6  2  0
  6  7  1  0
  7  8  2  0
  8  9  1  0
  9 10  2  0
  3 11  1  0
 11 12  1  0
 11 13  2  0
  2 14  1  0
 14 15  2  0
 14 16  1  0
 16 17  1  0
 17 18  1  0
 18 19  1  0
 19 20  2  0
 20 21  1  0
 21 22  2  0
 22 23  1  0
 22 24  1  0
 24 25  2  0
 17 26  1  0
 26 27  1  0
 26 28  2  0
 10  5  1  0
 25 19  1  0
  1 29  1  0
  1 30  1  0
  2 31  1  6
  3 32  1  1
  4 33  1  0
  4 34  1  0
  6 35  1  0
  7 36  1  0
  8 37  1  0
  9 38  1  0
 10 39  1  0
 12 40  1  0
 16 41  1  0
 17 42  1  6
 18 43  1  0
 18 44  1  0
 20 45  1  0
 21 46  1  0
 23 47  1  0
 24 48  1  0
 25 49  1  0
 27 50  1  0
M  END
$$$$
[H]OC(=O)[C@@]([H])(N([H])C(=O)c1c([H])c([H])c2c(c1[H])c(C([H])([H])[H])c(C([H])([H])[H])n2C([H])([H])[H])C([H])([H])C([H])(C([H])([H])[H])C([H])([H])[H]
     RDKit          3D

 47 48  0  0  0  0  0  0  0  0999 V2000
   -5.4812    1.7190    1.1376 C   0  0  0  0  0  0  0  0  0  0  0  0
   -5.1790    0.6640    0.0619 C   0  0  0  0  0  0  0  0  0  0  0  0
   -6.1646   -0.4748    0.2563 C   0  0  0  0  0  0  0  0  0  0  0  0
   -3.7686    0.2405    0.2379 C   0  0  0  0  0  0  0  0  0  0  0  0
   -3.2260   -0.7807   -0.6751 C   0  0  2  0  0  0  0  0  0  0  0  0
   -1.8537   -1.0461   -0.2823 N   0  0  0  0  0  0  0  0  0  0  0  0
   -0.8161   -0.2115   -0.6708 C   0  0  0  0  0  0  0  0  0  0  0  0
   -1.0279    0.8242   -1.3760 O   0  0  0  0  0  0  0  0  0  0  0  0
    0.5725   -0.5234   -0.2584 C   0  0  0  0  0  0  0  0  0  0  0  0
    0.9465   -1.7042    0.3184 C   0  0  0  0  0  0  0  0  0  0  0  0
    2.2811   -1.9184    0.6899 C   0  0  0  0  0  0  0  0  0  0  0  0
    3.2490   -0.9771    0.4965 C   0  0  0  0  0  0  0  0  0  0  0  0
    4.5765   -0.9775    0.7787 N   0  0  0  0  0  0  0  0  0  0  0  0
    5.3586   -2.0393    1.3913 C   0  0  0  0  0  0  0  0  0  0  0  0
    5.0444    0.2192    0.3732 C   0  0  0  0  0  0  0  0  0  0  0  0
    6.4553    0.6497    0.4969 C   0  0  0  0  0  0  0  0  0  0  0  0
    4.0337    0.9769   -0.1613 C   0  0  0  0  0  0  0  0  0  0  0  0
    4.1213    2.3468   -0.7234 C   0  0  0  0  0  0  0  0  0  0  0  0
    2.8821    0.2209   -0.0865 C   0  0  0  0  0  0  0  0  0  0  0  0
    1.5694    0.4357   -0.4536 C   0  0  0  0  0  0  0  0  0  0  0  0
   -3.2227   -0.4246   -2.1289 C   0  0  0  0  0  0  0  0  0  0  0  0
   -4.0191    0.4892   -2.7436 O   0  0  0  0  0  0  0  0  0  0  0  0
   -2.3875   -1.0332   -2.8949 O   0  0  0  0  0  0  0  0  0  0  0  0
   -4.8191    1.4944    1.9965 H   0  0  0  0  0  0  0  0  0  0  0  0
   -5.1853    2.7002    0.7190 H   0  0  0  0  0  0  0  0  0  0  0  0
   -6.5467    1.6754    1.4560 H   0  0  0  0  0  0  0  0  0  0  0  0
   -5.3543    1.1171   -0.9112 H   0  0  0  0  0  0  0  0  0  0  0  0
   -7.1600    0.0008    0.4559 H   0  0  0  0  0  0  0  0  0  0  0  0
   -6.2421   -1.0087   -0.6900 H   0  0  0  0  0  0  0  0  0  0  0  0
   -5.9262   -1.0974    1.1255 H   0  0  0  0  0  0  0  0  0  0  0  0
   -3.6290   -0.0857    1.3152 H   0  0  0  0  0  0  0  0  0  0  0  0
   -3.1434    1.1754    0.1860 H   0  0  0  0  0  0  0  0  0  0  0  0
   -3.7518   -1.7773   -0.6525 H   0  0  0  0  0  0  0  0  0  0  0  0
   -1.6770   -1.8811    0.3053 H   0  0  0  0  0  0  0  0  0  0  0  0
    0.2012   -2.4656    0.4805 H   0  0  0  0  0  0  0  0  0  0  0  0
    2.5812   -2.8488    1.1464 H   0  0  0  0  0  0  0  0  0  0  0  0
    6.4006   -2.0079    1.0779 H   0  0  0  0  0  0  0  0  0  0  0  0
    5.2221   -1.9079    2.4941 H   0  0  0  0  0  0  0  0  0  0  0  0
    4.8368   -2.9930    1.1518 H   0  0  0  0  0  0  0  0  0  0  0  0
    6.4898    1.7253    0.7403 H   0  0  0  0  0  0  0  0  0  0  0  0
    6.9700    0.0434    1.2824 H   0  0  0  0  0  0  0  0  0  0  0  0
    6.9748    0.4830   -0.4680 H   0  0  0  0  0  0  0  0  0  0  0  0
    3.9807    3.1180    0.0900 H   0  0  0  0  0  0  0  0  0  0  0  0
    5.1077    2.5642   -1.1560 H   0  0  0  0  0  0  0  0  0  0  0  0
    3.2931    2.4978   -1.4330 H   0  0  0  0  0  0  0  0  0  0  0  0
    1.2541    1.3674   -0.9136 H   0  0  0  0  0  0  0  0  0  0  0  0
   -3.8213    1.4357   -2.9911 H   0  0  0  0  0  0  0  0  0  0  0  0
  1  2  1  0
  2  3  1  0
  2  4  1  0
  4  5  1  0
  5  6  1  0
  6  7  1  0
  7  8  2  0
  7  9  1  0
  9 10  2  0
 10 11  1  0
 11 12  2  0
 12 13  1  0
 13 14  1  0
 13 15  1  0
 15 16  1  0
 15 17  2  0
 17 18  1  0
 17 19  1  0
 19 20  2  0
  5 21  1  0
 21 22  1  0
 21 23  2  0
 20  9  1  0
 19 12  1  0
  1 24  1  0
  1 25  1  0
  1 26  1  0
  2 27  1  0
  3 28  1  0
  3 29  1  0
  3 30  1  0
  4 31  1  0
  4 32  1  0
  5 33  1  6
  6 34  1  0
 10 35  1  0
 11 36  1  0
 14 37  1  0
 14 38  1  0
 14 39  1  0
 16 40  1  0
 16 41  1  0
 16 42  1  0
 18 43  1  0
 18 44  1  0
 18 45  1  0
 20 46  1  0
 22 47  1  0
M  END
$$$$
[H]c1c([H])c([H])c(C([H])([H])N([H])C(=O)C(=O)[C@@]([H])(N([H])C(=O)[C@@]2([H])N(C(=O)C3(c4c([H])c([H])c(Cl)c([H])c4[H])C([H])([H])C3([H])[H])C([H])([H])[C@]([H])(S(=O)(=O)c3c([H])c([H])c([H])c([H])c3Cl)C2([H])[H])C([H])([H])C([H])([H])C([H])([H])[H])c(Cl)c1[H]
     RDKit          3D

 81 85  0  0  0  0  0  0  0  0999 V2000
    2.7751    1.6850   -3.8376 C   0  0  0  0  0  0  0  0  0  0  0  0
    2.2834    0.2996   -4.0666 C   0  0  0  0  0  0  0  0  0  0  0  0
    2.4939   -0.6691   -2.9567 C   0  0  0  0  0  0  0  0  0  0  0  0
    1.8624   -0.3856   -1.6616 C   0  0  2  0  0  0  0  0  0  0  0  0
    0.3945   -0.3055   -1.7493 N   0  0  0  0  0  0  0  0  0  0  0  0
   -0.4289   -0.7991   -0.7250 C   0  0  0  0  0  0  0  0  0  0  0  0
    0.1146   -1.3039    0.2850 O   0  0  0  0  0  0  0  0  0  0  0  0
   -1.9259   -0.7750   -0.7256 C   0  0  2  0  0  0  0  0  0  0  0  0
   -2.4787    0.5992   -1.0396 C   0  0  0  0  0  0  0  0  0  0  0  0
   -2.3275    1.3426    0.2672 C   0  0  2  0  0  0  0  0  0  0  0  0
   -2.3015    0.2842    1.3050 C   0  0  0  0  0  0  0  0  0  0  0  0
   -2.4384   -1.0253    0.5911 N   0  0  0  0  0  0  0  0  0  0  0  0
   -2.9583   -2.1438    1.2042 C   0  0  0  0  0  0  0  0  0  0  0  0
   -3.2300   -1.9623    2.4910 O   0  0  0  0  0  0  0  0  0  0  0  0
   -3.2777   -3.4955    0.7712 C   0  0  0  0  0  0  0  0  0  0  0  0
   -2.9390   -4.6681    1.6318 C   0  0  0  0  0  0  0  0  0  0  0  0
   -4.3452   -4.2734    1.5534 C   0  0  0  0  0  0  0  0  0  0  0  0
   -3.3575   -3.7874   -0.6699 C   0  0  0  0  0  0  0  0  0  0  0  0
   -2.5038   -4.6346   -1.3264 C   0  0  0  0  0  0  0  0  0  0  0  0
   -2.7107   -4.9482   -2.6587 C   0  0  0  0  0  0  0  0  0  0  0  0
   -3.7769   -4.4164   -3.3472 C   0  0  0  0  0  0  0  0  0  0  0  0
   -4.0832   -4.7876   -5.0427 Cl  0  0  0  0  0  0  0  0  0  0  0  0
   -4.6478   -3.5607   -2.6999 C   0  0  0  0  0  0  0  0  0  0  0  0
   -4.4382   -3.2500   -1.3731 C   0  0  0  0  0  0  0  0  0  0  0  0
   -3.6692    2.4744    0.4209 S   0  0  0  0  0  0  0  0  0  0  0  0
   -3.8232    3.2416   -0.8453 O   0  0  0  0  0  0  0  0  0  0  0  0
   -4.9275    1.6404    0.5954 O   0  0  0  0  0  0  0  0  0  0  0  0
   -3.5255    3.5721    1.7333 C   0  0  0  0  0  0  0  0  0  0  0  0
   -4.4494    3.5733    2.7495 C   0  0  0  0  0  0  0  0  0  0  0  0
   -4.3606    4.4404    3.8289 C   0  0  0  0  0  0  0  0  0  0  0  0
   -3.3241    5.3431    3.9160 C   0  0  0  0  0  0  0  0  0  0  0  0
   -2.3914    5.3514    2.9037 C   0  0  0  0  0  0  0  0  0  0  0  0
   -2.4958    4.4770    1.8325 C   0  0  0  0  0  0  0  0  0  0  0  0
   -1.2628    4.5700    0.5934 Cl  0  0  0  0  0  0  0  0  0  0  0  0
    2.3821    0.7557   -0.8810 C   0  0  0  0  0  0  0  0  0  0  0  0
    1.5696    1.6292   -0.3898 O   0  0  0  0  0  0  0  0  0  0  0  0
    3.7869    0.9541   -0.6221 C   0  0  0  0  0  0  0  0  0  0  0  0
    4.6887    0.2174   -1.0828 O   0  0  0  0  0  0  0  0  0  0  0  0
    4.2393    2.0538    0.2090 N   0  0  0  0  0  0  0  0  0  0  0  0
    5.6187    2.2880    0.4993 C   0  0  0  0  0  0  0  0  0  0  0  0
    6.2780    1.2474    1.3309 C   0  0  0  0  0  0  0  0  0  0  0  0
    5.5931    0.2023    1.8479 C   0  0  0  0  0  0  0  0  0  0  0  0
    6.2656   -0.7358    2.6374 C   0  0  0  0  0  0  0  0  0  0  0  0
    7.6040   -0.6349    2.9094 C   0  0  0  0  0  0  0  0  0  0  0  0
    8.2736    0.4571    2.3604 C   0  0  0  0  0  0  0  0  0  0  0  0
    7.6480    1.3855    1.5892 C   0  0  0  0  0  0  0  0  0  0  0  0
    8.5001    2.7528    0.9085 Cl  0  0  0  0  0  0  0  0  0  0  0  0
    2.2688    2.2677   -3.0730 H   0  0  0  0  0  0  0  0  0  0  0  0
    3.8691    1.7299   -3.6534 H   0  0  0  0  0  0  0  0  0  0  0  0
    2.6220    2.2504   -4.8104 H   0  0  0  0  0  0  0  0  0  0  0  0
    1.2138    0.2636   -4.3701 H   0  0  0  0  0  0  0  0  0  0  0  0
    2.8286   -0.0993   -4.9563 H   0  0  0  0  0  0  0  0  0  0  0  0
    2.0617   -1.6566   -3.3617 H   0  0  0  0  0  0  0  0  0  0  0  0
    3.5676   -0.9263   -2.8307 H   0  0  0  0  0  0  0  0  0  0  0  0
    2.0330   -1.2708   -0.9612 H   0  0  0  0  0  0  0  0  0  0  0  0
   -0.0033    0.1226   -2.5882 H   0  0  0  0  0  0  0  0  0  0  0  0
   -2.2250   -1.4277   -1.5237 H   0  0  0  0  0  0  0  0  0  0  0  0
   -1.8454    1.0241   -1.8535 H   0  0  0  0  0  0  0  0  0  0  0  0
   -3.5111    0.5183   -1.4047 H   0  0  0  0  0  0  0  0  0  0  0  0
   -1.3934    1.9324    0.1542 H   0  0  0  0  0  0  0  0  0  0  0  0
   -1.3065    0.2311    1.8162 H   0  0  0  0  0  0  0  0  0  0  0  0
   -3.0930    0.4310    2.0294 H   0  0  0  0  0  0  0  0  0  0  0  0
   -2.5695   -5.5860    1.1303 H   0  0  0  0  0  0  0  0  0  0  0  0
   -2.3013   -4.4145    2.5218 H   0  0  0  0  0  0  0  0  0  0  0  0
   -5.0245   -4.9530    1.0188 H   0  0  0  0  0  0  0  0  0  0  0  0
   -4.7822   -3.7720    2.4439 H   0  0  0  0  0  0  0  0  0  0  0  0
   -1.6365   -5.0817   -0.8078 H   0  0  0  0  0  0  0  0  0  0  0  0
   -2.0551   -5.6125   -3.2121 H   0  0  0  0  0  0  0  0  0  0  0  0
   -5.4892   -3.1406   -3.2291 H   0  0  0  0  0  0  0  0  0  0  0  0
   -5.1414   -2.5656   -0.8853 H   0  0  0  0  0  0  0  0  0  0  0  0
   -5.3016    2.9001    2.7694 H   0  0  0  0  0  0  0  0  0  0  0  0
   -5.0722    4.4603    4.6428 H   0  0  0  0  0  0  0  0  0  0  0  0
   -3.2313    6.0425    4.7620 H   0  0  0  0  0  0  0  0  0  0  0  0
   -1.5574    6.0538    2.9444 H   0  0  0  0  0  0  0  0  0  0  0  0
    3.5200    2.7107    0.6174 H   0  0  0  0  0  0  0  0  0  0  0  0
    5.7517    3.2705    1.0445 H   0  0  0  0  0  0  0  0  0  0  0  0
    6.1580    2.3824   -0.4820 H   0  0  0  0  0  0  0  0  0  0  0  0
    4.5201    0.0565    1.7043 H   0  0  0  0  0  0  0  0  0  0  0  0
    5.6675   -1.5609    3.0251 H   0  0  0  0  0  0  0  0  0  0  0  0
    8.1401   -1.3693    3.5294 H   0  0  0  0  0  0  0  0  0  0  0  0
    9.3450    0.5137    2.5844 H   0  0  0  0  0  0  0  0  0  0  0  0
  1  2  1  0
  2  3  1  0
  3  4  1  0
  4  5  1  0
  5  6  1  0
  6  7  2  0
  6  8  1  0
  8  9  1  0
  9 10  1  0
 10 11  1  0
 11 12  1  0
 12 13  1  0
 13 14  2  0
 13 15  1  0
 15 16  1  0
 16 17  1  0
 15 18  1  0
 18 19  2  0
 19 20  1  0
 20 21  2  0
 21 22  1  0
 21 23  1  0
 23 24  2  0
 10 25  1  0
 25 26  2  0
 25 27  2  0
 25 28  1  0
 28 29  2  0
 29 30  1  0
 30 31  2  0
 31 32  1  0
 32 33  2  0
 33 34  1  0
  4 35  1  0
 35 36  2  0
 35 37  1  0
 37 38  2  0
 37 39  1  0
 39 40  1  0
 40 41  1  0
 41 42  2  0
 42 43  1  0
 43 44  2  0
 44 45  1  0
 45 46  2  0
 46 47  1  0
 12  8  1  0
 17 15  1  0
 24 18  1  0
 33 28  1  0
 46 41  1  0
  1 48  1  0
  1 49  1  0
  1 50  1  0
  2 51  1  0
  2 52  1  0
  3 53  1  0
  3 54  1  0
  4 55  1  1
  5 56  1  0
  8 57  1  6
  9 58  1  0
  9 59  1  0
 10 60  1  6
 11 61  1  0
 11 62  1  0
 16 63  1  0
 16 64  1  0
 17 65  1  0
 17 66  1  0
 19 67  1  0
 20 68  1  0
 23 69  1  0
 24 70  1  0
 29 71  1  0
 30 72  1  0
 31 73  1  0
 32 74  1  0
 39 75  1  0
 40 76  1  0
 40 77  1  0
 42 78  1  0
 43 79  1  0
 44 80  1  0
 45 81  1  0
M  END
$$$$
[H]C1=C([H])C([H])(F)C([H])([H])C([H])=C1N([H])C(=O)C1(C(=O)N([H])c2c([H])c([H])c(Oc3c([H])c([H])nc4c([H])c(OC([H])([H])C([H])([H])C([H])([H])N5C([H])([H])C([H])([H])C([H])([H])C5([H])[H])c(OC([H])([H])[H])c([H])c34)c(F)c2[H])C([H])([H])C1([H])[H]
     RDKit          3D

 81 86  0  0  0  0  0  0  0  0999 V2000
   -3.5877    0.0230   -2.5605 C   0  0  0  0  0  0  0  0  0  0  0  0
   -4.4433   -0.0435   -1.4508 O   0  0  0  0  0  0  0  0  0  0  0  0
   -3.9880   -0.2494   -0.1491 C   0  0  0  0  0  0  0  0  0  0  0  0
   -2.6478   -0.3994    0.1096 C   0  0  0  0  0  0  0  0  0  0  0  0
   -2.1587   -0.6042    1.3755 C   0  0  0  0  0  0  0  0  0  0  0  0
   -0.7923   -0.7567    1.6112 C   0  0  0  0  0  0  0  0  0  0  0  0
    0.0250   -0.6916    0.5279 O   0  0  0  0  0  0  0  0  0  0  0  0
    1.3913   -0.8525    0.4754 C   0  0  0  0  0  0  0  0  0  0  0  0
    2.2342    0.1729    0.0692 C   0  0  0  0  0  0  0  0  0  0  0  0
    3.5918   -0.0103    0.0220 C   0  0  0  0  0  0  0  0  0  0  0  0
    4.2120   -1.2204    0.3732 C   0  0  0  0  0  0  0  0  0  0  0  0
    5.6358   -1.3113    0.3171 N   0  0  0  0  0  0  0  0  0  0  0  0
    6.4056   -2.4553    0.1478 C   0  0  0  0  0  0  0  0  0  0  0  0
    5.7718   -3.5663    0.0427 O   0  0  0  0  0  0  0  0  0  0  0  0
    7.8601   -2.5227    0.0895 C   0  0  0  0  0  0  0  0  0  0  0  0
    8.4588   -3.8753   -0.2867 C   0  0  0  0  0  0  0  0  0  0  0  0
    8.4428   -3.4847    1.1392 C   0  0  0  0  0  0  0  0  0  0  0  0
    8.7035   -1.3424   -0.2300 C   0  0  0  0  0  0  0  0  0  0  0  0
    9.9255   -1.4864    0.1717 O   0  0  0  0  0  0  0  0  0  0  0  0
    8.2626   -0.2155   -0.8859 N   0  0  0  0  0  0  0  0  0  0  0  0
    8.9663    0.9916   -1.2279 C   0  0  0  0  0  0  0  0  0  0  0  0
   10.2261    1.1961   -0.9431 C   0  0  0  0  0  0  0  0  0  0  0  0
   10.9546    2.4310   -1.2907 C   0  0  0  0  0  0  0  0  0  0  0  0
   10.1946    3.4846   -1.9837 C   0  0  0  0  0  0  0  0  0  0  0  0
   10.2335    4.6437   -1.1848 F   0  0  0  0  0  0  0  0  0  0  0  0
    8.8021    3.1813   -2.2644 C   0  0  0  0  0  0  0  0  0  0  0  0
    8.2359    2.0634   -1.9301 C   0  0  0  0  0  0  0  0  0  0  0  0
    3.3805   -2.2291    0.7736 C   0  0  0  0  0  0  0  0  0  0  0  0
    1.9865   -2.0377    0.8203 C   0  0  0  0  0  0  0  0  0  0  0  0
    1.2365   -3.0982    1.2142 F   0  0  0  0  0  0  0  0  0  0  0  0
   -0.4287   -0.9581    2.9201 C   0  0  0  0  0  0  0  0  0  0  0  0
   -1.3521   -1.0070    3.9339 C   0  0  0  0  0  0  0  0  0  0  0  0
   -2.6377   -0.8567    3.6575 N   0  0  0  0  0  0  0  0  0  0  0  0
   -3.0892   -0.6527    2.3915 C   0  0  0  0  0  0  0  0  0  0  0  0
   -4.4416   -0.5052    2.1646 C   0  0  0  0  0  0  0  0  0  0  0  0
   -4.8811   -0.3029    0.8827 C   0  0  0  0  0  0  0  0  0  0  0  0
   -6.2490   -0.1596    0.6965 O   0  0  0  0  0  0  0  0  0  0  0  0
   -7.1921   -0.2052    1.7204 C   0  0  0  0  0  0  0  0  0  0  0  0
   -8.5663   -0.0150    1.1322 C   0  0  0  0  0  0  0  0  0  0  0  0
   -8.6955    1.3020    0.4220 C   0  0  0  0  0  0  0  0  0  0  0  0
  -10.0037    1.4621   -0.1281 N   0  0  0  0  0  0  0  0  0  0  0  0
  -10.2287    2.6808   -0.8350 C   0  0  0  0  0  0  0  0  0  0  0  0
  -11.1566    2.3511   -2.0081 C   0  0  0  0  0  0  0  0  0  0  0  0
  -11.7165    1.0092   -1.5741 C   0  0  0  0  0  0  0  0  0  0  0  0
  -10.4689    0.3786   -0.9383 C   0  0  0  0  0  0  0  0  0  0  0  0
   -4.1462    0.4826   -3.4058 H   0  0  0  0  0  0  0  0  0  0  0  0
   -2.7486    0.7305   -2.3481 H   0  0  0  0  0  0  0  0  0  0  0  0
   -3.2042   -0.9751   -2.8684 H   0  0  0  0  0  0  0  0  0  0  0  0
   -1.9172   -0.3599   -0.6920 H   0  0  0  0  0  0  0  0  0  0  0  0
    1.7492    1.1006   -0.1989 H   0  0  0  0  0  0  0  0  0  0  0  0
    4.2444    0.7990   -0.2985 H   0  0  0  0  0  0  0  0  0  0  0  0
    6.1068   -0.3582    0.4880 H   0  0  0  0  0  0  0  0  0  0  0  0
    7.7266   -4.6220   -0.6534 H   0  0  0  0  0  0  0  0  0  0  0  0
    9.4183   -3.8918   -0.8472 H   0  0  0  0  0  0  0  0  0  0  0  0
    9.4104   -3.1476    1.6028 H   0  0  0  0  0  0  0  0  0  0  0  0
    7.7630   -3.9592    1.8454 H   0  0  0  0  0  0  0  0  0  0  0  0
    7.2650   -0.2466   -1.2614 H   0  0  0  0  0  0  0  0  0  0  0  0
   10.8241    0.4296   -0.4110 H   0  0  0  0  0  0  0  0  0  0  0  0
   11.8456    2.1794   -1.9484 H   0  0  0  0  0  0  0  0  0  0  0  0
   11.3908    2.8108   -0.3161 H   0  0  0  0  0  0  0  0  0  0  0  0
   10.6645    3.7949   -2.9610 H   0  0  0  0  0  0  0  0  0  0  0  0
    8.2315    3.9729   -2.7929 H   0  0  0  0  0  0  0  0  0  0  0  0
    7.1670    1.8981   -2.1758 H   0  0  0  0  0  0  0  0  0  0  0  0
    3.7856   -3.1876    1.0764 H   0  0  0  0  0  0  0  0  0  0  0  0
    0.6075   -1.0712    3.1537 H   0  0  0  0  0  0  0  0  0  0  0  0
   -1.0717   -1.1659    4.9745 H   0  0  0  0  0  0  0  0  0  0  0  0
   -5.1120   -0.5552    3.0169 H   0  0  0  0  0  0  0  0  0  0  0  0
   -7.1820   -1.2490    2.1462 H   0  0  0  0  0  0  0  0  0  0  0  0
   -6.9796    0.4646    2.5680 H   0  0  0  0  0  0  0  0  0  0  0  0
   -9.3685   -0.0413    1.9143 H   0  0  0  0  0  0  0  0  0  0  0  0
   -8.7385   -0.8568    0.4359 H   0  0  0  0  0  0  0  0  0  0  0  0
   -8.5595    2.1075    1.1881 H   0  0  0  0  0  0  0  0  0  0  0  0
   -7.8715    1.4342   -0.3151 H   0  0  0  0  0  0  0  0  0  0  0  0
  -10.7856    3.4045   -0.1999 H   0  0  0  0  0  0  0  0  0  0  0  0
   -9.3011    3.1863   -1.1756 H   0  0  0  0  0  0  0  0  0  0  0  0
  -11.9700    3.1048   -2.1030 H   0  0  0  0  0  0  0  0  0  0  0  0
  -10.5960    2.2617   -2.9622 H   0  0  0  0  0  0  0  0  0  0  0  0
  -12.4672    1.2054   -0.7918 H   0  0  0  0  0  0  0  0  0  0  0  0
  -12.0978    0.4163   -2.4102 H   0  0  0  0  0  0  0  0  0  0  0  0
  -10.7030   -0.5229   -0.3684 H   0  0  0  0  0  0  0  0  0  0  0  0
   -9.7919    0.1704   -1.8195 H   0  0  0  0  0  0  0  0  0  0  0  0
  1  2  1  0
  2  3  1  0
  3  4  2  0
  4  5  1  0
  5  6  2  0
  6  7  1  0
  7  8  1  0
  8  9  2  0
  9 10  1  0
 10 11  2  0
 11 12  1  0
 12 13  1  0
 13 14  2  0
 13 15  1  0
 15 16  1  0
 16 17  1  0
 15 18  1  0
 18 19  2  0
 18 20  1  0
 20 21  1  0
 21 22  2  0
 22 23  1  0
 23 24  1  0
 24 25  1  0
 24 26  1  0
 26 27  2  0
 11 28  1  0
 28 29  2  0
 29 30  1  0
  6 31  1  0
 31 32  2  0
 32 33  1  0
 33 34  2  0
 34 35  1  0
 35 36  2  0
 36 37  1  0
 37 38  1  0
 38 39  1  0
 39 40  1  0
 40 41  1  0
 41 42  1  0
 42 43  1  0
 43 44  1  0
 44 45  1  0
 36  3  1  0
 45 41  1  0
 34  5  1  0
 29  8  1  0
 17 15  1  0
 27 21  1  0
  1 46  1  0
  1 47  1  0
  1 48  1  0
  4 49  1  0
  9 50  1  0
 10 51  1  0
 12 52  1  0
 16 53  1  0
 16 54  1  0
 17 55  1  0
 17 56  1  0
 20 57  1  0
 22 58  1  0
 23 59  1  0
 23 60  1  0
 24 61  1  0
 26 62  1  0
 27 63  1  0
 28 64  1  0
 31 65  1  0
 32 66  1  0
 35 67  1  0
 38 68  1  0
 38 69  1  0
 39 70  1  0
 39 71  1  0
 40 72  1  0
 40 73  1  0
 42 74  1  0
 42 75  1  0
 43 76  1  0
 43 77  1  0
 44 78  1  0
 44 79  1  0
 45 80  1  0
 45 81  1  0
M  END
$$$$
[H]Oc1c([H])c([H])c([C@@]2([H])Sc3c([H])c(O[H])c([H])c([H])c3O[C@]2([H])c2c([H])c([H])c(OC([H])([H])C([H])([H])N3C([H])([H])C([H])([H])C([H])([H])C3([H])[H])c([H])c2[H])c([H])c1[H]
     RDKit          3D

 59 63  0  0  0  0  0  0  0  0999 V2000
   -1.8946    5.2030    0.2193 O   0  0  0  0  0  0  0  0  0  0  0  0
   -2.2582    3.8517    0.3547 C   0  0  0  0  0  0  0  0  0  0  0  0
   -2.9825    3.2047   -0.6218 C   0  0  0  0  0  0  0  0  0  0  0  0
   -3.3349    1.8687   -0.4753 C   0  0  0  0  0  0  0  0  0  0  0  0
   -2.9819    1.1405    0.6360 C   0  0  0  0  0  0  0  0  0  0  0  0
   -2.2583    1.8011    1.6030 C   0  0  0  0  0  0  0  0  0  0  0  0
   -1.8986    3.1326    1.4728 C   0  0  0  0  0  0  0  0  0  0  0  0
   -3.3319   -0.2634    0.8223 C   0  0  1  0  0  0  0  0  0  0  0  0
   -5.1216   -0.5869    0.7541 S   0  0  0  0  0  0  0  0  0  0  0  0
   -5.2866   -2.3501    0.5093 C   0  0  0  0  0  0  0  0  0  0  0  0
   -6.4839   -2.9912    0.5540 C   0  0  0  0  0  0  0  0  0  0  0  0
   -6.5651   -4.3637    0.3590 C   0  0  0  0  0  0  0  0  0  0  0  0
   -7.7947   -5.0167    0.4061 O   0  0  0  0  0  0  0  0  0  0  0  0
   -5.4349   -5.1328    0.1120 C   0  0  0  0  0  0  0  0  0  0  0  0
   -4.2222   -4.4757    0.0679 C   0  0  0  0  0  0  0  0  0  0  0  0
   -4.1601   -3.1062    0.2647 C   0  0  0  0  0  0  0  0  0  0  0  0
   -2.9126   -2.5087    0.2073 O   0  0  0  0  0  0  0  0  0  0  0  0
   -2.7103   -1.1827   -0.2111 C   0  0  2  0  0  0  0  0  0  0  0  0
   -1.2611   -0.9430   -0.3727 C   0  0  0  0  0  0  0  0  0  0  0  0
   -0.3260   -1.3455    0.5570 C   0  0  0  0  0  0  0  0  0  0  0  0
    1.0176   -1.1006    0.3657 C   0  0  0  0  0  0  0  0  0  0  0  0
    1.4926   -0.4463   -0.7553 C   0  0  0  0  0  0  0  0  0  0  0  0
    2.8566   -0.2072   -0.9318 O   0  0  0  0  0  0  0  0  0  0  0  0
    3.8047   -0.6361    0.0470 C   0  0  0  0  0  0  0  0  0  0  0  0
    5.2007   -0.2779   -0.3432 C   0  0  0  0  0  0  0  0  0  0  0  0
    5.4226    1.1211   -0.5089 N   0  0  0  0  0  0  0  0  0  0  0  0
    5.3600    1.8904    0.6881 C   0  0  0  0  0  0  0  0  0  0  0  0
    6.7207    2.5352    0.8452 C   0  0  0  0  0  0  0  0  0  0  0  0
    7.1483    2.7271   -0.5970 C   0  0  0  0  0  0  0  0  0  0  0  0
    6.5841    1.4782   -1.2581 C   0  0  0  0  0  0  0  0  0  0  0  0
    0.5610   -0.0423   -1.6870 C   0  0  0  0  0  0  0  0  0  0  0  0
   -0.7943   -0.2893   -1.4942 C   0  0  0  0  0  0  0  0  0  0  0  0
   -2.1362    5.7503   -0.5723 H   0  0  0  0  0  0  0  0  0  0  0  0
   -3.2780    3.7466   -1.5108 H   0  0  0  0  0  0  0  0  0  0  0  0
   -3.9079    1.3556   -1.2463 H   0  0  0  0  0  0  0  0  0  0  0  0
   -1.9625    1.2455    2.5013 H   0  0  0  0  0  0  0  0  0  0  0  0
   -1.3268    3.6351    2.2483 H   0  0  0  0  0  0  0  0  0  0  0  0
   -2.9829   -0.6687    1.8128 H   0  0  0  0  0  0  0  0  0  0  0  0
   -7.3805   -2.4142    0.7450 H   0  0  0  0  0  0  0  0  0  0  0  0
   -8.6499   -4.4914    0.5850 H   0  0  0  0  0  0  0  0  0  0  0  0
   -5.5086   -6.2097   -0.0396 H   0  0  0  0  0  0  0  0  0  0  0  0
   -3.3455   -5.0871   -0.1259 H   0  0  0  0  0  0  0  0  0  0  0  0
   -3.2659   -1.0341   -1.1562 H   0  0  0  0  0  0  0  0  0  0  0  0
   -0.6702   -1.8575    1.4387 H   0  0  0  0  0  0  0  0  0  0  0  0
    1.7357   -1.4206    1.1012 H   0  0  0  0  0  0  0  0  0  0  0  0
    3.5257   -0.3215    1.0602 H   0  0  0  0  0  0  0  0  0  0  0  0
    3.7432   -1.7628    0.0388 H   0  0  0  0  0  0  0  0  0  0  0  0
    5.4106   -0.7972   -1.3142 H   0  0  0  0  0  0  0  0  0  0  0  0
    5.8900   -0.7346    0.3923 H   0  0  0  0  0  0  0  0  0  0  0  0
    5.1461    1.1889    1.5344 H   0  0  0  0  0  0  0  0  0  0  0  0
    4.6224    2.7177    0.6554 H   0  0  0  0  0  0  0  0  0  0  0  0
    7.4493    1.8705    1.3560 H   0  0  0  0  0  0  0  0  0  0  0  0
    6.6114    3.5179    1.3587 H   0  0  0  0  0  0  0  0  0  0  0  0
    6.6458    3.6011   -1.0438 H   0  0  0  0  0  0  0  0  0  0  0  0
    8.2368    2.7361   -0.6509 H   0  0  0  0  0  0  0  0  0  0  0  0
    6.4517    1.5695   -2.3360 H   0  0  0  0  0  0  0  0  0  0  0  0
    7.3422    0.6648   -1.0826 H   0  0  0  0  0  0  0  0  0  0  0  0
    0.9355    0.4709   -2.5663 H   0  0  0  0  0  0  0  0  0  0  0  0
   -1.4861    0.0410   -2.2443 H   0  0  0  0  0  0  0  0  0  0  0  0
  1  2  1  0
  2  3  2  0
  3  4  1  0
  4  5  2  0
  5  6  1  0
  6  7  2  0
  5  8  1  0
  8  9  1  0
  9 10  1  0
 10 11  2  0
 11 12  1  0
 12 13  1  0
 12 14  2  0
 14 15  1  0
 15 16  2  0
 16 17  1  0
 17 18  1  0
 18 19  1  0
 19 20  2  0
 20 21  1  0
 21 22  2  0
 22 23  1  0
 23 24  1  0
 24 25  1  0
 25 26  1  0
 26 27  1  0
 27 28  1  0
 28 29  1  0
 29 30  1  0
 22 31  1  0
 31 32  2  0
  7  2  1  0
 18  8  1  0
 32 19  1  0
 16 10  1  0
 30 26  1  0
  1 33  1  0
  3 34  1  0
  4 35  1  0
  6 36  1  0
  7 37  1  0
  8 38  1  1
 11 39  1  0
 13 40  1  0
 14 41  1  0
 15 42  1  0
 18 43  1  6
 20 44  1  0
 21 45  1  0
 24 46  1  0
 24 47  1  0
 25 48  1  0
 25 49  1  0
 27 50  1  0
 27 51  1  0
 28 52  1  0
 28 53  1  0
 29 54  1  0
 29 55  1  0
 30 56  1  0
 30 57  1  0
 31 58  1  0
 32 59  1  0
M  END
$$$$
[H]N=C(N([H])[H])N([H])C([H])([H])C([H])([H])C([H])([H])[C@@]([H])(C(=O)N([H])[H])N([H])C(=O)[C@@]1([H])N(C(=O)[C@@]([H])(N([H])C(=O)[C@@]([H])(N([H])C(=O)[C@@]([H])(N([H])C(=O)[C@@]([H])(N([H])C(=O)[C@]([H])(N([H])C(=O)C([H])([H])[H])C([H])([H])C([H])([H])C(=O)N([H])[H])C([H])([H])C([H])([H])C(=O)N([H])[H])C([H])([H])C([H])([H])C(=O)N([H])[H])C([H])([H])C([H])([H])C(=O)N([H])[H])C([H])([H])C([H])([H])C(=O)N([H])[H])C([H])([H])C([H])([H])C1([H])[H]
     RDKit          3D

131131  0  0  0  0  0  0  0  0999 V2000
   10.1589    4.8066    1.3800 N   0  0  0  0  0  0  0  0  0  0  0  0
   11.0799    4.2709    0.4454 C   0  0  0  0  0  0  0  0  0  0  0  0
   11.3449    5.0185   -0.5968 N   0  0  0  0  0  0  0  0  0  0  0  0
   11.7262    3.0278    0.5873 N   0  0  0  0  0  0  0  0  0  0  0  0
   11.1615    1.7516    0.8814 C   0  0  0  0  0  0  0  0  0  0  0  0
   10.3431    1.0872   -0.1561 C   0  0  0  0  0  0  0  0  0  0  0  0
    9.1255    1.8372   -0.5400 C   0  0  0  0  0  0  0  0  0  0  0  0
    8.3197    1.1487   -1.6218 C   0  0  2  0  0  0  0  0  0  0  0  0
    7.8659   -0.1402   -1.1989 N   0  0  0  0  0  0  0  0  0  0  0  0
    6.5211   -0.5836   -1.3702 C   0  0  0  0  0  0  0  0  0  0  0  0
    5.6262    0.1047   -1.8999 O   0  0  0  0  0  0  0  0  0  0  0  0
    6.1486   -1.9638   -0.8896 C   0  0  2  0  0  0  0  0  0  0  0  0
    7.1155   -2.9957   -1.4874 C   0  0  0  0  0  0  0  0  0  0  0  0
    6.6330   -2.9890   -2.9245 C   0  0  0  0  0  0  0  0  0  0  0  0
    5.2181   -2.5209   -2.9059 C   0  0  0  0  0  0  0  0  0  0  0  0
    4.9121   -2.4121   -1.4612 N   0  0  0  0  0  0  0  0  0  0  0  0
    3.6545   -2.7423   -0.9574 C   0  0  0  0  0  0  0  0  0  0  0  0
    2.7294   -3.0718   -1.7406 O   0  0  0  0  0  0  0  0  0  0  0  0
    3.3014   -2.7317    0.5199 C   0  0  2  0  0  0  0  0  0  0  0  0
    4.0402   -3.8507    1.1996 C   0  0  0  0  0  0  0  0  0  0  0  0
    3.8790   -3.9634    2.6691 C   0  0  0  0  0  0  0  0  0  0  0  0
    2.6047   -4.3026    3.2510 C   0  0  0  0  0  0  0  0  0  0  0  0
    2.2171   -3.8098    4.5504 N   0  0  0  0  0  0  0  0  0  0  0  0
    1.7656   -5.0359    2.6901 O   0  0  0  0  0  0  0  0  0  0  0  0
    1.8269   -2.9422    0.5609 N   0  0  0  0  0  0  0  0  0  0  0  0
    0.9528   -1.9422    1.0139 C   0  0  0  0  0  0  0  0  0  0  0  0
    1.4319   -0.8518    1.3983 O   0  0  0  0  0  0  0  0  0  0  0  0
   -0.5195   -2.1977    1.0156 C   0  0  2  0  0  0  0  0  0  0  0  0
   -0.8516   -3.4763    0.3639 C   0  0  0  0  0  0  0  0  0  0  0  0
   -2.2445   -3.9287    0.2299 C   0  0  0  0  0  0  0  0  0  0  0  0
   -3.1805   -3.2054   -0.6258 C   0  0  0  0  0  0  0  0  0  0  0  0
   -4.5925   -3.3185   -0.3967 N   0  0  0  0  0  0  0  0  0  0  0  0
   -2.8245   -2.4782   -1.5779 O   0  0  0  0  0  0  0  0  0  0  0  0
   -1.2299   -1.0788    0.5317 N   0  0  0  0  0  0  0  0  0  0  0  0
   -2.2281   -0.3082    1.1524 C   0  0  0  0  0  0  0  0  0  0  0  0
   -2.5941   -0.5882    2.3008 O   0  0  0  0  0  0  0  0  0  0  0  0
   -2.8300    0.8336    0.3998 C   0  0  2  0  0  0  0  0  0  0  0  0
   -1.9076    1.6063   -0.4308 C   0  0  0  0  0  0  0  0  0  0  0  0
   -0.7134    2.2799    0.0584 C   0  0  0  0  0  0  0  0  0  0  0  0
   -0.7366    3.3342    1.0327 C   0  0  0  0  0  0  0  0  0  0  0  0
    0.4680    4.1391    1.3011 N   0  0  0  0  0  0  0  0  0  0  0  0
   -1.6888    3.6837    1.7249 O   0  0  0  0  0  0  0  0  0  0  0  0
   -3.9460    1.4554    1.0177 N   0  0  0  0  0  0  0  0  0  0  0  0
   -5.2549    1.0655    0.6548 C   0  0  0  0  0  0  0  0  0  0  0  0
   -5.3880    0.1247   -0.2225 O   0  0  0  0  0  0  0  0  0  0  0  0
   -6.5001    1.6430    1.1903 C   0  0  2  0  0  0  0  0  0  0  0  0
   -6.4136    2.1717    2.5298 C   0  0  0  0  0  0  0  0  0  0  0  0
   -6.0072    1.4102    3.7090 C   0  0  0  0  0  0  0  0  0  0  0  0
   -6.6766    0.2466    4.1906 C   0  0  0  0  0  0  0  0  0  0  0  0
   -6.6005   -0.1234    5.5964 N   0  0  0  0  0  0  0  0  0  0  0  0
   -7.3512   -0.5320    3.5029 O   0  0  0  0  0  0  0  0  0  0  0  0
   -7.6533    1.0098    0.6774 N   0  0  0  0  0  0  0  0  0  0  0  0
   -8.0437    1.0905   -0.7094 C   0  0  0  0  0  0  0  0  0  0  0  0
   -7.3541    1.7492   -1.5256 O   0  0  0  0  0  0  0  0  0  0  0  0
   -9.2476    0.4128   -1.2361 C   0  0  1  0  0  0  0  0  0  0  0  0
  -10.4464    1.0809   -0.5324 C   0  0  0  0  0  0  0  0  0  0  0  0
  -10.4846    2.5585   -0.8350 C   0  0  0  0  0  0  0  0  0  0  0  0
  -11.6631    3.1350   -0.1401 C   0  0  0  0  0  0  0  0  0  0  0  0
  -11.8860    4.5304   -0.1897 N   0  0  0  0  0  0  0  0  0  0  0  0
  -12.4614    2.3689    0.4915 O   0  0  0  0  0  0  0  0  0  0  0  0
   -9.4045    0.5351   -2.6615 N   0  0  0  0  0  0  0  0  0  0  0  0
   -9.7222   -0.6005   -3.4316 C   0  0  0  0  0  0  0  0  0  0  0  0
   -9.8759   -0.4726   -4.9063 C   0  0  0  0  0  0  0  0  0  0  0  0
   -9.8809   -1.7332   -2.9192 O   0  0  0  0  0  0  0  0  0  0  0  0
    9.1441    1.0354   -2.8762 C   0  0  0  0  0  0  0  0  0  0  0  0
    9.6658    2.2270   -3.4242 N   0  0  0  0  0  0  0  0  0  0  0  0
    9.3515   -0.0730   -3.4024 O   0  0  0  0  0  0  0  0  0  0  0  0
   10.4272    4.9305    2.3948 H   0  0  0  0  0  0  0  0  0  0  0  0
    9.1956    5.0753    1.0454 H   0  0  0  0  0  0  0  0  0  0  0  0
   12.0041    4.6809   -1.3049 H   0  0  0  0  0  0  0  0  0  0  0  0
   12.7978    3.0366    0.4544 H   0  0  0  0  0  0  0  0  0  0  0  0
   12.0009    1.0251    1.1374 H   0  0  0  0  0  0  0  0  0  0  0  0
   10.5515    1.8185    1.8313 H   0  0  0  0  0  0  0  0  0  0  0  0
   11.0194    0.8850   -1.0297 H   0  0  0  0  0  0  0  0  0  0  0  0
   10.0194    0.0569    0.1825 H   0  0  0  0  0  0  0  0  0  0  0  0
    8.4473    1.8397    0.3677 H   0  0  0  0  0  0  0  0  0  0  0  0
    9.2576    2.8854   -0.7951 H   0  0  0  0  0  0  0  0  0  0  0  0
    7.4538    1.7801   -1.8735 H   0  0  0  0  0  0  0  0  0  0  0  0
    8.5285   -0.7947   -0.7562 H   0  0  0  0  0  0  0  0  0  0  0  0
    6.1749   -1.9660    0.2125 H   0  0  0  0  0  0  0  0  0  0  0  0
    8.1529   -2.6789   -1.4587 H   0  0  0  0  0  0  0  0  0  0  0  0
    6.9112   -3.9475   -0.9844 H   0  0  0  0  0  0  0  0  0  0  0  0
    6.7333   -4.0337   -3.3119 H   0  0  0  0  0  0  0  0  0  0  0  0
    7.2102   -2.2998   -3.5685 H   0  0  0  0  0  0  0  0  0  0  0  0
    4.5936   -3.3328   -3.3511 H   0  0  0  0  0  0  0  0  0  0  0  0
    5.0002   -1.6220   -3.4642 H   0  0  0  0  0  0  0  0  0  0  0  0
    3.5290   -1.7841    0.9648 H   0  0  0  0  0  0  0  0  0  0  0  0
    3.7166   -4.8450    0.7098 H   0  0  0  0  0  0  0  0  0  0  0  0
    5.1151   -3.7958    0.9813 H   0  0  0  0  0  0  0  0  0  0  0  0
    4.2634   -2.9979    3.1267 H   0  0  0  0  0  0  0  0  0  0  0  0
    4.6856   -4.6990    3.0098 H   0  0  0  0  0  0  0  0  0  0  0  0
    2.4206   -4.4265    5.3560 H   0  0  0  0  0  0  0  0  0  0  0  0
    1.7658   -2.9042    4.6614 H   0  0  0  0  0  0  0  0  0  0  0  0
    1.4634   -3.8467    0.2143 H   0  0  0  0  0  0  0  0  0  0  0  0
   -0.8322   -2.3323    2.1190 H   0  0  0  0  0  0  0  0  0  0  0  0
   -0.4124   -3.4352   -0.6841 H   0  0  0  0  0  0  0  0  0  0  0  0
   -0.2679   -4.3489    0.8474 H   0  0  0  0  0  0  0  0  0  0  0  0
   -2.1938   -4.9814   -0.2201 H   0  0  0  0  0  0  0  0  0  0  0  0
   -2.7195   -4.1551    1.2360 H   0  0  0  0  0  0  0  0  0  0  0  0
   -4.9047   -3.8766    0.4159 H   0  0  0  0  0  0  0  0  0  0  0  0
   -5.2949   -2.8701   -1.0049 H   0  0  0  0  0  0  0  0  0  0  0  0
   -0.9369   -0.7629   -0.4558 H   0  0  0  0  0  0  0  0  0  0  0  0
   -3.3916    0.1779   -0.4480 H   0  0  0  0  0  0  0  0  0  0  0  0
   -1.5776    0.9567   -1.3013 H   0  0  0  0  0  0  0  0  0  0  0  0
   -2.5385    2.3885   -0.9607 H   0  0  0  0  0  0  0  0  0  0  0  0
   -0.2469    2.7585   -0.8914 H   0  0  0  0  0  0  0  0  0  0  0  0
    0.1341    1.5310    0.2875 H   0  0  0  0  0  0  0  0  0  0  0  0
    0.8999    4.0680    2.2355 H   0  0  0  0  0  0  0  0  0  0  0  0
    0.8761    4.7577    0.5876 H   0  0  0  0  0  0  0  0  0  0  0  0
   -3.8676    2.1755    1.7345 H   0  0  0  0  0  0  0  0  0  0  0  0
   -6.5044    2.6554    0.5108 H   0  0  0  0  0  0  0  0  0  0  0  0
   -5.6527    3.0539    2.4822 H   0  0  0  0  0  0  0  0  0  0  0  0
   -7.3411    2.7711    2.8294 H   0  0  0  0  0  0  0  0  0  0  0  0
   -6.0196    2.1644    4.5893 H   0  0  0  0  0  0  0  0  0  0  0  0
   -4.8597    1.2468    3.6566 H   0  0  0  0  0  0  0  0  0  0  0  0
   -6.4181    0.5813    6.3353 H   0  0  0  0  0  0  0  0  0  0  0  0
   -6.7311   -1.1055    5.8835 H   0  0  0  0  0  0  0  0  0  0  0  0
   -8.3044    0.4601    1.2489 H   0  0  0  0  0  0  0  0  0  0  0  0
   -9.3165   -0.6383   -0.9625 H   0  0  0  0  0  0  0  0  0  0  0  0
  -10.3781    0.9429    0.5606 H   0  0  0  0  0  0  0  0  0  0  0  0
  -11.4086    0.5939   -0.8480 H   0  0  0  0  0  0  0  0  0  0  0  0
  -10.5315    2.6691   -1.9453 H   0  0  0  0  0  0  0  0  0  0  0  0
   -9.5444    3.0022   -0.4214 H   0  0  0  0  0  0  0  0  0  0  0  0
  -12.1832    5.0968    0.6311 H   0  0  0  0  0  0  0  0  0  0  0  0
  -11.7505    5.0605   -1.0957 H   0  0  0  0  0  0  0  0  0  0  0  0
   -9.2822    1.4523   -3.1133 H   0  0  0  0  0  0  0  0  0  0  0  0
  -10.2556    0.5493   -5.1008 H   0  0  0  0  0  0  0  0  0  0  0  0
  -10.4978   -1.2744   -5.3054 H   0  0  0  0  0  0  0  0  0  0  0  0
   -8.8430   -0.6090   -5.3234 H   0  0  0  0  0  0  0  0  0  0  0  0
    9.0544    3.0771   -3.6079 H   0  0  0  0  0  0  0  0  0  0  0  0
   10.6739    2.3439   -3.6804 H   0  0  0  0  0  0  0  0  0  0  0  0
  1  2  1  0
  2  3  2  3
  2  4  1  0
  4  5  1  0
  5  6  1  0
  6  7  1  0
  7  8  1  0
  8  9  1  0
  9 10  1  0
 10 11  2  0
 10 12  1  0
 12 13  1  0
 13 14  1  0
 14 15  1  0
 15 16  1  0
 16 17  1  0
 17 18  2  0
 17 19  1  0
 19 20  1  0
 20 21  1  0
 21 22  1  0
 22 23  1  0
 22 24  2  0
 19 25  1  0
 25 26  1  0
 26 27  2  0
 26 28  1  0
 28 29  1  0
 29 30  1  0
 30 31  1  0
 31 32  1  0
 31 33  2  0
 28 34  1  0
 34 35  1  0
 35 36  2  0
 35 37  1  0
 37 38  1  0
 38 39  1  0
 39 40  1  0
 40 41  1  0
 40 42  2  0
 37 43  1  0
 43 44  1  0
 44 45  2  0
 44 46  1  0
 46 47  1  0
 47 48  1  0
 48 49  1  0
 49 50  1  0
 49 51  2  0
 46 52  1  0
 52 53  1  0
 53 54  2  0
 53 55  1  0
 55 56  1  0
 56 57  1  0
 57 58  1  0
 58 59  1  0
 58 60  2  0
 55 61  1  0
 61 62  1  0
 62 63  1  0
 62 64  2  0
  8 65  1  0
 65 66  1  0
 65 67  2  0
 16 12  1  0
  1 68  1  0
  1 69  1  0
  3 70  1  0
  4 71  1  0
  5 72  1  0
  5 73  1  0
  6 74  1  0
  6 75  1  0
  7 76  1  0
  7 77  1  0
  8 78  1  6
  9 79  1  0
 12 80  1  1
 13 81  1  0
 13 82  1  0
 14 83  1  0
 14 84  1  0
 15 85  1  0
 15 86  1  0
 19 87  1  1
 20 88  1  0
 20 89  1  0
 21 90  1  0
 21 91  1  0
 23 92  1  0
 23 93  1  0
 25 94  1  0
 28 95  1  1
 29 96  1  0
 29 97  1  0
 30 98  1  0
 30 99  1  0
 32100  1  0
 32101  1  0
 34102  1  0
 37103  1  6
 38104  1  0
 38105  1  0
 39106  1  0
 39107  1  0
 41108  1  0
 41109  1  0
 43110  1  0
 46111  1  6
 47112  1  0
 47113  1  0
 48114  1  0
 48115  1  0
 50116  1  0
 50117  1  0
 52118  1  0
 55119  1  6
 56120  1  0
 56121  1  0
 57122  1  0
 57123  1  0
 59124  1  0
 59125  1  0
 61126  1  0
 63127  1  0
 63128  1  0
 63129  1  0
 66130  1  0
 66131  1  0
M  END
$$$$
[H]c1nc2c(C([H])([H])[H])c([H])c(-c3c(C([H])(C([H])([H])[H])C([H])([H])[H])c4c([H])c(C5([H])C([H])([H])C([H])([H])N(C([H])([H])C(=O)N([H])C([H])([H])[H])C([H])([H])C5([H])[H])c([H])c([H])c4n3[H])c([H])n2n1
     RDKit          3D

 65 69  0  0  0  0  0  0  0  0999 V2000
    7.2118   -2.7846   -2.5008 C   0  0  0  0  0  0  0  0  0  0  0  0
    6.5052   -1.9048   -1.5444 N   0  0  0  0  0  0  0  0  0  0  0  0
    6.5532   -2.1848   -0.1730 C   0  0  0  0  0  0  0  0  0  0  0  0
    7.2307   -3.2004    0.2098 O   0  0  0  0  0  0  0  0  0  0  0  0
    5.8696   -1.3744    0.8471 C   0  0  0  0  0  0  0  0  0  0  0  0
    5.0918   -0.3059    0.3897 N   0  0  0  0  0  0  0  0  0  0  0  0
    3.8696   -0.5968   -0.2933 C   0  0  0  0  0  0  0  0  0  0  0  0
    3.2356    0.5892   -0.9181 C   0  0  0  0  0  0  0  0  0  0  0  0
    2.9423    1.6336    0.1099 C   0  0  0  0  0  0  0  0  0  0  0  0
    3.5398    1.2678    1.4205 C   0  0  0  0  0  0  0  0  0  0  0  0
    4.9728    0.8452    1.2441 C   0  0  0  0  0  0  0  0  0  0  0  0
    1.4756    1.9106    0.2127 C   0  0  0  0  0  0  0  0  0  0  0  0
    0.9992    3.1906    0.3454 C   0  0  0  0  0  0  0  0  0  0  0  0
   -0.3496    3.4452    0.4258 C   0  0  0  0  0  0  0  0  0  0  0  0
   -1.2086    2.3601    0.3684 C   0  0  0  0  0  0  0  0  0  0  0  0
   -2.5259    2.3137    0.4050 N   0  0  0  0  0  0  0  0  0  0  0  0
   -3.0109    1.0642    0.3055 C   0  0  0  0  0  0  0  0  0  0  0  0
   -1.9281    0.1988    0.1945 C   0  0  0  0  0  0  0  0  0  0  0  0
   -1.9273   -1.2385    0.0275 C   0  0  0  0  0  0  0  0  0  0  0  0
   -0.6084   -1.9242    0.2125 C   0  0  0  0  0  0  0  0  0  0  0  0
   -2.3623   -1.6259   -1.4116 C   0  0  0  0  0  0  0  0  0  0  0  0
   -0.7989    1.0394    0.2359 C   0  0  0  0  0  0  0  0  0  0  0  0
    0.5651    0.8529    0.1596 C   0  0  0  0  0  0  0  0  0  0  0  0
   -4.4387    0.7942    0.2499 C   0  0  0  0  0  0  0  0  0  0  0  0
   -5.0465   -0.4002    0.4324 C   0  0  0  0  0  0  0  0  0  0  0  0
   -6.4291   -0.5299    0.2817 C   0  0  0  0  0  0  0  0  0  0  0  0
   -7.0912   -1.8539    0.4848 C   0  0  0  0  0  0  0  0  0  0  0  0
   -7.2124    0.5427   -0.0526 C   0  0  0  0  0  0  0  0  0  0  0  0
   -8.5316    0.7455   -0.2661 N   0  0  0  0  0  0  0  0  0  0  0  0
   -8.7471    2.0342   -0.5734 C   0  0  0  0  0  0  0  0  0  0  0  0
   -7.5475    2.6279   -0.5474 N   0  0  0  0  0  0  0  0  0  0  0  0
   -6.6034    1.7215   -0.2299 N   0  0  0  0  0  0  0  0  0  0  0  0
   -5.2856    1.8702   -0.0931 C   0  0  0  0  0  0  0  0  0  0  0  0
    6.5611   -2.9188   -3.4139 H   0  0  0  0  0  0  0  0  0  0  0  0
    7.3535   -3.7776   -2.0330 H   0  0  0  0  0  0  0  0  0  0  0  0
    8.1413   -2.3058   -2.8318 H   0  0  0  0  0  0  0  0  0  0  0  0
    6.0205   -1.0981   -1.9927 H   0  0  0  0  0  0  0  0  0  0  0  0
    6.7026   -0.9286    1.4804 H   0  0  0  0  0  0  0  0  0  0  0  0
    5.2967   -2.0399    1.5401 H   0  0  0  0  0  0  0  0  0  0  0  0
    3.1682   -1.0092    0.4925 H   0  0  0  0  0  0  0  0  0  0  0  0
    3.9875   -1.4036   -1.0169 H   0  0  0  0  0  0  0  0  0  0  0  0
    3.9323    1.0023   -1.6973 H   0  0  0  0  0  0  0  0  0  0  0  0
    2.3114    0.3145   -1.4965 H   0  0  0  0  0  0  0  0  0  0  0  0
    3.4390    2.5957   -0.2257 H   0  0  0  0  0  0  0  0  0  0  0  0
    2.9726    0.4351    1.8785 H   0  0  0  0  0  0  0  0  0  0  0  0
    3.5661    2.1409    2.1331 H   0  0  0  0  0  0  0  0  0  0  0  0
    5.3998    0.6247    2.2318 H   0  0  0  0  0  0  0  0  0  0  0  0
    5.5326    1.6757    0.7946 H   0  0  0  0  0  0  0  0  0  0  0  0
    1.7454    3.9984    0.3820 H   0  0  0  0  0  0  0  0  0  0  0  0
   -0.6879    4.4580    0.5284 H   0  0  0  0  0  0  0  0  0  0  0  0
   -3.1056    3.1980    0.5136 H   0  0  0  0  0  0  0  0  0  0  0  0
   -2.6499   -1.7763    0.6922 H   0  0  0  0  0  0  0  0  0  0  0  0
    0.0436   -1.9545   -0.6588 H   0  0  0  0  0  0  0  0  0  0  0  0
   -0.0721   -1.6882    1.1265 H   0  0  0  0  0  0  0  0  0  0  0  0
   -0.8465   -3.0509    0.3656 H   0  0  0  0  0  0  0  0  0  0  0  0
   -1.4648   -1.7999   -2.0465 H   0  0  0  0  0  0  0  0  0  0  0  0
   -2.9879   -2.5280   -1.3805 H   0  0  0  0  0  0  0  0  0  0  0  0
   -2.9187   -0.7734   -1.8244 H   0  0  0  0  0  0  0  0  0  0  0  0
    1.0231   -0.1059    0.0374 H   0  0  0  0  0  0  0  0  0  0  0  0
   -4.5371   -1.2843    0.7236 H   0  0  0  0  0  0  0  0  0  0  0  0
   -8.1420   -1.6750    0.7747 H   0  0  0  0  0  0  0  0  0  0  0  0
   -7.0253   -2.4498   -0.4454 H   0  0  0  0  0  0  0  0  0  0  0  0
   -6.6130   -2.3834    1.3481 H   0  0  0  0  0  0  0  0  0  0  0  0
   -9.7072    2.5119   -0.7998 H   0  0  0  0  0  0  0  0  0  0  0  0
   -4.8485    2.8730   -0.2633 H   0  0  0  0  0  0  0  0  0  0  0  0
  1  2  1  0
  2  3  1  0
  3  4  2  0
  3  5  1  0
  5  6  1  0
  6  7  1  0
  7  8  1  0
  8  9  1  0
  9 10  1  0
 10 11  1  0
  9 12  1  0
 12 13  2  0
 13 14  1  0
 14 15  2  0
 15 16  1  0
 16 17  1  0
 17 18  2  0
 18 19  1  0
 19 20  1  0
 19 21  1  0
 18 22  1  0
 22 23  2  0
 17 24  1  0
 24 25  1  0
 25 26  2  0
 26 27  1  0
 26 28  1  0
 28 29  2  0
 29 30  1  0
 30 31  2  0
 31 32  1  0
 32 33  1  0
 11  6  1  0
 23 12  1  0
 33 24  2  0
 22 15  1  0
 32 28  1  0
  1 34  1  0
  1 35  1  0
  1 36  1  0
  2 37  1  0
  5 38  1  0
  5 39  1  0
  7 40  1  0
  7 41  1  0
  8 42  1  0
  8 43  1  0
  9 44  1  0
 10 45  1  0
 10 46  1  0
 11 47  1  0
 11 48  1  0
 13 49  1  0
 14 50  1  0
 16 51  1  0
 19 52  1  0
 20 53  1  0
 20 54  1  0
 20 55  1  0
 21 56  1  0
 21 57  1  0
 21 58  1  0
 23 59  1  0
 25 60  1  0
 27 61  1  0
 27 62  1  0
 27 63  1  0
 30 64  1  0
 33 65  1  0
M  END
$$$$
[H]O[C@@]1([H])C([H])([H])C([H])([H])[C@]2([H])[C@]1(C([H])([H])[H])C([H])([H])C([H])([H])[C@]1([H])[C@]3(C([H])([H])[H])C(=C([H])C(=O)C([H])([H])C3([H])[H])C([H])([H])C([H])([H])[C@@]21[H]
     RDKit          3D

 49 52  0  0  0  0  0  0  0  0999 V2000
    2.6003    1.3949    0.7370 C   0  0  0  0  0  0  0  0  0  0  0  0
    2.3315    0.4990   -0.4424 C   0  0  2  0  0  0  0  0  0  0  0  0
    1.5103    1.1614   -1.4949 C   0  0  0  0  0  0  0  0  0  0  0  0
    0.1483    1.4556   -0.9170 C   0  0  0  0  0  0  0  0  0  0  0  0
   -0.5369    0.1560   -0.5507 C   0  0  1  0  0  0  0  0  0  0  0  0
    0.2754   -0.6369    0.4710 C   0  0  1  0  0  0  0  0  0  0  0  0
   -0.3169   -2.0384    0.5263 C   0  0  0  0  0  0  0  0  0  0  0  0
   -1.7749   -2.0482    0.8169 C   0  0  0  0  0  0  0  0  0  0  0  0
   -2.5405   -0.9871    0.1457 C   0  0  0  0  0  0  0  0  0  0  0  0
   -3.7658   -1.2727   -0.2625 C   0  0  0  0  0  0  0  0  0  0  0  0
   -4.6079   -0.3042   -0.9341 C   0  0  0  0  0  0  0  0  0  0  0  0
   -5.6066   -0.6232   -1.6118 O   0  0  0  0  0  0  0  0  0  0  0  0
   -4.2087    1.1393   -0.7699 C   0  0  0  0  0  0  0  0  0  0  0  0
   -2.7163    1.1869   -1.0278 C   0  0  0  0  0  0  0  0  0  0  0  0
   -1.9296    0.3620   -0.0560 C   0  0  2  0  0  0  0  0  0  0  0  0
   -1.9459    1.0713    1.2829 C   0  0  0  0  0  0  0  0  0  0  0  0
    1.6457   -0.7900   -0.0472 C   0  0  2  0  0  0  0  0  0  0  0  0
    2.6444   -1.3862    0.8737 C   0  0  0  0  0  0  0  0  0  0  0  0
    3.9631   -1.0731    0.1623 C   0  0  0  0  0  0  0  0  0  0  0  0
    3.6050   -0.1289   -0.9688 C   0  0  2  0  0  0  0  0  0  0  0  0
    4.5812    0.7519   -1.2889 O   0  0  0  0  0  0  0  0  0  0  0  0
    3.6756    1.2716    1.0471 H   0  0  0  0  0  0  0  0  0  0  0  0
    1.9625    1.2047    1.6015 H   0  0  0  0  0  0  0  0  0  0  0  0
    2.4819    2.4492    0.4115 H   0  0  0  0  0  0  0  0  0  0  0  0
    1.9872    2.1545   -1.7263 H   0  0  0  0  0  0  0  0  0  0  0  0
    1.4562    0.5158   -2.3781 H   0  0  0  0  0  0  0  0  0  0  0  0
   -0.4734    1.9510   -1.6671 H   0  0  0  0  0  0  0  0  0  0  0  0
    0.2714    2.1214   -0.0498 H   0  0  0  0  0  0  0  0  0  0  0  0
   -0.5888   -0.4547   -1.4753 H   0  0  0  0  0  0  0  0  0  0  0  0
    0.1940   -0.1895    1.4684 H   0  0  0  0  0  0  0  0  0  0  0  0
   -0.0876   -2.5040   -0.4691 H   0  0  0  0  0  0  0  0  0  0  0  0
    0.2474   -2.5825    1.3004 H   0  0  0  0  0  0  0  0  0  0  0  0
   -2.1698   -3.0559    0.5263 H   0  0  0  0  0  0  0  0  0  0  0  0
   -1.9002   -2.0016    1.9294 H   0  0  0  0  0  0  0  0  0  0  0  0
   -4.1853   -2.2671   -0.1012 H   0  0  0  0  0  0  0  0  0  0  0  0
   -4.4637    1.4087    0.2637 H   0  0  0  0  0  0  0  0  0  0  0  0
   -4.7180    1.7173   -1.5432 H   0  0  0  0  0  0  0  0  0  0  0  0
   -2.5697    0.8169   -2.0700 H   0  0  0  0  0  0  0  0  0  0  0  0
   -2.4147    2.2480   -0.9356 H   0  0  0  0  0  0  0  0  0  0  0  0
   -2.6695    1.9362    1.2729 H   0  0  0  0  0  0  0  0  0  0  0  0
   -2.2828    0.4031    2.1004 H   0  0  0  0  0  0  0  0  0  0  0  0
   -0.9566    1.5164    1.5155 H   0  0  0  0  0  0  0  0  0  0  0  0
    1.6091   -1.4204   -0.9702 H   0  0  0  0  0  0  0  0  0  0  0  0
    2.6340   -0.7940    1.8359 H   0  0  0  0  0  0  0  0  0  0  0  0
    2.5188   -2.4554    1.0564 H   0  0  0  0  0  0  0  0  0  0  0  0
    4.3735   -2.0337   -0.2265 H   0  0  0  0  0  0  0  0  0  0  0  0
    4.6899   -0.6220    0.8558 H   0  0  0  0  0  0  0  0  0  0  0  0
    3.3380   -0.7531   -1.8418 H   0  0  0  0  0  0  0  0  0  0  0  0
    4.6855    1.5297   -0.7163 H   0  0  0  0  0  0  0  0  0  0  0  0
  2  1  1  1
  2  3  1  0
  3  4  1  0
  4  5  1  0
  5  6  1  0
  6  7  1  0
  7  8  1  0
  8  9  1  0
  9 10  2  0
 10 11  1  0
 11 12  2  0
 11 13  1  0
 13 14  1  0
 14 15  1  0
 15 16  1  1
  6 17  1  0
 17 18  1  0
 18 19  1  0
 19 20  1  0
 20 21  1  0
 17  2  1  0
 20  2  1  0
 15  5  1  0
 15  9  1  0
  1 22  1  0
  1 23  1  0
  1 24  1  0
  3 25  1  0
  3 26  1  0
  4 27  1  0
  4 28  1  0
  5 29  1  6
  6 30  1  1
  7 31  1  0
  7 32  1  0
  8 33  1  0
  8 34  1  0
 10 35  1  0
 13 36  1  0
 13 37  1  0
 14 38  1  0
 14 39  1  0
 16 40  1  0
 16 41  1  0
 16 42  1  0
 17 43  1  6
 18 44  1  0
 18 45  1  0
 19 46  1  0
 19 47  1  0
 20 48  1  6
 21 49  1  0
M  END
$$$$
[H]c1nc(C(C#N)(C([H])([H])[H])C([H])([H])[H])c([H])c(C(=O)N([H])c2c([H])nc(C([H])([H])[H])c(-c3c([H])c(N4C([H])([H])C([H])([H])OC([H])([H])C4([H])[H])c4nc([H])c([H])n4c3[H])c2[H])c1[H]
     RDKit          3D

 63 67  0  0  0  0  0  0  0  0999 V2000
   -2.4152   -3.4257    1.4604 C   0  0  0  0  0  0  0  0  0  0  0  0
   -1.0890   -2.8730    1.0961 C   0  0  0  0  0  0  0  0  0  0  0  0
    0.0284   -3.4624    1.4920 N   0  0  0  0  0  0  0  0  0  0  0  0
    1.2117   -2.9164    1.1464 C   0  0  0  0  0  0  0  0  0  0  0  0
    1.2472   -1.7582    0.4000 C   0  0  0  0  0  0  0  0  0  0  0  0
    2.5312   -1.1888    0.0704 N   0  0  0  0  0  0  0  0  0  0  0  0
    3.6373   -1.2522    0.9411 C   0  0  0  0  0  0  0  0  0  0  0  0
    3.4680   -1.8030    2.0967 O   0  0  0  0  0  0  0  0  0  0  0  0
    4.9927   -0.7856    0.7337 C   0  0  0  0  0  0  0  0  0  0  0  0
    6.0147   -1.7294    0.9386 C   0  0  0  0  0  0  0  0  0  0  0  0
    7.3211   -1.3577    0.8051 C   0  0  0  0  0  0  0  0  0  0  0  0
    7.6120   -0.0990    0.4785 N   0  0  0  0  0  0  0  0  0  0  0  0
    6.6894    0.8689    0.2644 C   0  0  0  0  0  0  0  0  0  0  0  0
    5.3738    0.4925    0.3986 C   0  0  0  0  0  0  0  0  0  0  0  0
    7.1652    2.2264   -0.0586 C   0  0  0  0  0  0  0  0  0  0  0  0
    8.6919    2.2633    0.2307 C   0  0  0  0  0  0  0  0  0  0  0  0
    6.9048    2.4915   -1.5268 C   0  0  0  0  0  0  0  0  0  0  0  0
    6.5159    3.2603    0.7634 C   0  0  0  0  0  0  0  0  0  0  0  0
    6.0041    4.0540    1.3939 N   0  0  0  0  0  0  0  0  0  0  0  0
    0.0845   -1.1329   -0.0191 C   0  0  0  0  0  0  0  0  0  0  0  0
   -1.1054   -1.6890    0.3260 C   0  0  0  0  0  0  0  0  0  0  0  0
   -2.4405   -1.2467   -0.1127 C   0  0  0  0  0  0  0  0  0  0  0  0
   -3.1143   -0.1589    0.3477 C   0  0  0  0  0  0  0  0  0  0  0  0
   -4.3882    0.1607   -0.1063 C   0  0  0  0  0  0  0  0  0  0  0  0
   -5.0997    1.2733    0.4141 N   0  0  0  0  0  0  0  0  0  0  0  0
   -4.9876    2.6161   -0.1004 C   0  0  0  0  0  0  0  0  0  0  0  0
   -6.3421    3.2690   -0.2309 C   0  0  0  0  0  0  0  0  0  0  0  0
   -7.3393    2.3236   -0.0500 O   0  0  0  0  0  0  0  0  0  0  0  0
   -7.3018    1.8969    1.2849 C   0  0  0  0  0  0  0  0  0  0  0  0
   -6.0405    1.0897    1.5229 C   0  0  0  0  0  0  0  0  0  0  0  0
   -4.9589   -0.6652   -1.0515 C   0  0  0  0  0  0  0  0  0  0  0  0
   -6.1821   -0.5766   -1.6471 N   0  0  0  0  0  0  0  0  0  0  0  0
   -6.3485   -1.6076   -2.5102 C   0  0  0  0  0  0  0  0  0  0  0  0
   -5.1533   -2.3334   -2.4163 C   0  0  0  0  0  0  0  0  0  0  0  0
   -4.3242   -1.7685   -1.5434 N   0  0  0  0  0  0  0  0  0  0  0  0
   -3.1060   -2.0333   -1.0784 C   0  0  0  0  0  0  0  0  0  0  0  0
   -2.2910   -3.9102    2.4500 H   0  0  0  0  0  0  0  0  0  0  0  0
   -2.8417   -4.0874    0.7157 H   0  0  0  0  0  0  0  0  0  0  0  0
   -3.1379   -2.5805    1.5964 H   0  0  0  0  0  0  0  0  0  0  0  0
    2.1367   -3.4269    1.4253 H   0  0  0  0  0  0  0  0  0  0  0  0
    2.6542   -0.7174   -0.8472 H   0  0  0  0  0  0  0  0  0  0  0  0
    5.7128   -2.7712    1.2080 H   0  0  0  0  0  0  0  0  0  0  0  0
    8.1114   -2.1148    0.9761 H   0  0  0  0  0  0  0  0  0  0  0  0
    4.6227    1.2424    0.2455 H   0  0  0  0  0  0  0  0  0  0  0  0
    9.2663    1.6851   -0.4826 H   0  0  0  0  0  0  0  0  0  0  0  0
    8.8608    1.8651    1.2509 H   0  0  0  0  0  0  0  0  0  0  0  0
    9.0335    3.3298    0.2019 H   0  0  0  0  0  0  0  0  0  0  0  0
    7.5318    3.3520   -1.8718 H   0  0  0  0  0  0  0  0  0  0  0  0
    5.8195    2.6650   -1.6585 H   0  0  0  0  0  0  0  0  0  0  0  0
    7.2700    1.5776   -2.0781 H   0  0  0  0  0  0  0  0  0  0  0  0
    0.0933   -0.2203   -0.6199 H   0  0  0  0  0  0  0  0  0  0  0  0
   -2.6435    0.4713    1.0758 H   0  0  0  0  0  0  0  0  0  0  0  0
   -4.3819    3.2227    0.6459 H   0  0  0  0  0  0  0  0  0  0  0  0
   -4.4638    2.6359   -1.1073 H   0  0  0  0  0  0  0  0  0  0  0  0
   -6.4390    3.8049   -1.2005 H   0  0  0  0  0  0  0  0  0  0  0  0
   -6.4934    4.0370    0.5933 H   0  0  0  0  0  0  0  0  0  0  0  0
   -8.2200    1.2920    1.5023 H   0  0  0  0  0  0  0  0  0  0  0  0
   -7.3357    2.7921    1.9251 H   0  0  0  0  0  0  0  0  0  0  0  0
   -5.5353    1.3634    2.4625 H   0  0  0  0  0  0  0  0  0  0  0  0
   -6.3467    0.0202    1.5780 H   0  0  0  0  0  0  0  0  0  0  0  0
   -7.1855   -1.8378   -3.1341 H   0  0  0  0  0  0  0  0  0  0  0  0
   -4.9831   -3.2193   -3.0076 H   0  0  0  0  0  0  0  0  0  0  0  0
   -2.5718   -2.8934   -1.4435 H   0  0  0  0  0  0  0  0  0  0  0  0
  1  2  1  0
  2  3  2  0
  3  4  1  0
  4  5  2  0
  5  6  1  0
  6  7  1  0
  7  8  2  0
  7  9  1  0
  9 10  2  0
 10 11  1  0
 11 12  2  0
 12 13  1  0
 13 14  2  0
 13 15  1  0
 15 16  1  0
 15 17  1  0
 15 18  1  0
 18 19  3  0
  5 20  1  0
 20 21  2  0
 21 22  1  0
 22 23  1  0
 23 24  2  0
 24 25  1  0
 25 26  1  0
 26 27  1  0
 27 28  1  0
 28 29  1  0
 29 30  1  0
 24 31  1  0
 31 32  2  0
 32 33  1  0
 33 34  2  0
 34 35  1  0
 35 36  1  0
 21  2  1  0
 36 22  2  0
 14  9  1  0
 30 25  1  0
 35 31  1  0
  1 37  1  0
  1 38  1  0
  1 39  1  0
  4 40  1  0
  6 41  1  0
 10 42  1  0
 11 43  1  0
 14 44  1  0
 16 45  1  0
 16 46  1  0
 16 47  1  0
 17 48  1  0
 17 49  1  0
 17 50  1  0
 20 51  1  0
 23 52  1  0
 26 53  1  0
 26 54  1  0
 27 55  1  0
 27 56  1  0
 29 57  1  0
 29 58  1  0
 30 59  1  0
 30 60  1  0
 33 61  1  0
 34 62  1  0
 36 63  1  0
M  END
$$$$
[H]c1nc([H])c(C2([H])C([H])([H])C2([H])[H])c([H])c1C#Cc1nc(C([H])([H])[H])sc1[H]
     RDKit          3D

 29 31  0  0  0  0  0  0  0  0999 V2000
    6.2503   -1.0985    0.6156 C   0  0  0  0  0  0  0  0  0  0  0  0
    5.0858   -0.9307   -0.3290 C   0  0  0  0  0  0  0  0  0  0  0  0
    3.8960   -0.4291   -0.0443 N   0  0  0  0  0  0  0  0  0  0  0  0
    2.9879   -0.3470   -0.9655 C   0  0  0  0  0  0  0  0  0  0  0  0
    3.3251   -0.7996   -2.2212 C   0  0  0  0  0  0  0  0  0  0  0  0
    4.9374   -1.3148   -1.9840 S   0  0  0  0  0  0  0  0  0  0  0  0
    1.6538    0.2057   -0.6832 C   0  0  0  0  0  0  0  0  0  0  0  0
    0.5581    0.6623   -0.4718 C   0  0  0  0  0  0  0  0  0  0  0  0
   -0.7364    1.2195   -0.2017 C   0  0  0  0  0  0  0  0  0  0  0  0
   -0.9946    2.5767   -0.3252 C   0  0  0  0  0  0  0  0  0  0  0  0
   -2.2188    3.0915   -0.0680 N   0  0  0  0  0  0  0  0  0  0  0  0
   -3.1787    2.2487    0.3110 C   0  0  0  0  0  0  0  0  0  0  0  0
   -2.9878    0.8998    0.4515 C   0  0  0  0  0  0  0  0  0  0  0  0
   -1.7456    0.3863    0.1893 C   0  0  0  0  0  0  0  0  0  0  0  0
   -4.0728   -0.0142    0.8744 C   0  0  0  0  0  0  0  0  0  0  0  0
   -4.2264   -1.2715   -0.0150 C   0  0  0  0  0  0  0  0  0  0  0  0
   -3.7865   -1.3385    1.4508 C   0  0  0  0  0  0  0  0  0  0  0  0
    5.8269   -1.4994    1.5479 H   0  0  0  0  0  0  0  0  0  0  0  0
    6.7028   -0.0919    0.7241 H   0  0  0  0  0  0  0  0  0  0  0  0
    6.9398   -1.8232    0.1257 H   0  0  0  0  0  0  0  0  0  0  0  0
    2.6836   -0.8078   -3.1225 H   0  0  0  0  0  0  0  0  0  0  0  0
   -0.1573    3.1918   -0.6387 H   0  0  0  0  0  0  0  0  0  0  0  0
   -4.1708    2.6512    0.5215 H   0  0  0  0  0  0  0  0  0  0  0  0
   -1.5685   -0.6729    0.2923 H   0  0  0  0  0  0  0  0  0  0  0  0
   -5.0482    0.4990    1.0645 H   0  0  0  0  0  0  0  0  0  0  0  0
   -5.2397   -1.6215   -0.2260 H   0  0  0  0  0  0  0  0  0  0  0  0
   -3.4163   -1.4736   -0.7311 H   0  0  0  0  0  0  0  0  0  0  0  0
   -2.7481   -1.6056    1.6768 H   0  0  0  0  0  0  0  0  0  0  0  0
   -4.5512   -1.7234    2.1819 H   0  0  0  0  0  0  0  0  0  0  0  0
  1  2  1  0
  2  3  2  0
  3  4  1  0
  4  5  2  0
  5  6  1  0
  4  7  1  0
  7  8  3  0
  8  9  1  0
  9 10  2  0
 10 11  1  0
 11 12  2  0
 12 13  1  0
 13 14  2  0
 13 15  1  0
 15 16  1  0
 16 17  1  0
  6  2  1  0
 14  9  1  0
 17 15  1  0
  1 18  1  0
  1 19  1  0
  1 20  1  0
  5 21  1  0
 10 22  1  0
 12 23  1  0
 14 24  1  0
 15 25  1  0
 16 26  1  0
 16 27  1  0
 17 28  1  0
 17 29  1  0
M  END
$$$$
[H]c1nc2c(c([H])c1Oc1c([H])c(N3C([H])([H])C([H])([H])N(C([H])([H])C4=C(c5c([H])c([H])c(Cl)c([H])c5[H])C([H])([H])C(C([H])([H])[H])(C([H])([H])[H])C([H])([H])C4([H])[H])C([H])([H])C3([H])[H])c([H])c([H])c1C(=O)N([H])S(=O)(=O)c1c([H])c([H])c(N([H])C([H])([H])C3([H])C([H])([H])C([H])([H])OC([H])([H])C3([H])[H])c([N+](=O)[O-])c1[H])c([H])c([H])n2[H]
     RDKit          3D

111118  0  0  0  0  0  0  0  0999 V2000
    7.1213   -4.5107   -2.3494 O   0  0  0  0  0  0  0  0  0  0  0  0
    7.4197   -3.4341   -1.5068 N   0  0  0  0  0  0  0  0  0  0  0  0
    7.8297   -3.7412   -0.3875 O   0  0  0  0  0  0  0  0  0  0  0  0
    7.2098   -2.1043   -1.9201 C   0  0  0  0  0  0  0  0  0  0  0  0
    6.1058   -1.8615   -2.7742 C   0  0  0  0  0  0  0  0  0  0  0  0
    5.8238   -0.5990   -3.2164 C   0  0  0  0  0  0  0  0  0  0  0  0
    6.6328    0.4314   -2.8169 C   0  0  0  0  0  0  0  0  0  0  0  0
    7.7076    0.1937   -1.9876 C   0  0  0  0  0  0  0  0  0  0  0  0
    8.0298   -1.0811   -1.5147 C   0  0  0  0  0  0  0  0  0  0  0  0
    9.1813   -1.2799   -0.7524 N   0  0  0  0  0  0  0  0  0  0  0  0
    9.9928   -0.2673   -0.1721 C   0  0  0  0  0  0  0  0  0  0  0  0
    9.6391    0.2698    1.1559 C   0  0  0  0  0  0  0  0  0  0  0  0
    8.3248    0.9396    1.3502 C   0  0  0  0  0  0  0  0  0  0  0  0
    8.4312    1.6785    2.7031 C   0  0  0  0  0  0  0  0  0  0  0  0
    9.3517    1.0725    3.5333 O   0  0  0  0  0  0  0  0  0  0  0  0
   10.6734    1.2927    3.1209 C   0  0  0  0  0  0  0  0  0  0  0  0
   10.7070    1.2779    1.6148 C   0  0  0  0  0  0  0  0  0  0  0  0
    4.4852   -0.2662   -4.3051 S   0  0  0  0  0  0  0  0  0  0  0  0
    4.6419    1.1426   -4.8620 O   0  0  0  0  0  0  0  0  0  0  0  0
    4.5060   -1.2121   -5.4354 O   0  0  0  0  0  0  0  0  0  0  0  0
    3.0141   -0.3178   -3.3775 N   0  0  0  0  0  0  0  0  0  0  0  0
    2.6604    0.6671   -2.4772 C   0  0  0  0  0  0  0  0  0  0  0  0
    3.4785    1.6606   -2.3889 O   0  0  0  0  0  0  0  0  0  0  0  0
    1.5094    0.7297   -1.6162 C   0  0  0  0  0  0  0  0  0  0  0  0
    1.1608    1.9957   -1.0609 C   0  0  0  0  0  0  0  0  0  0  0  0
   -0.0093    2.2174   -0.3905 C   0  0  0  0  0  0  0  0  0  0  0  0
   -0.9323    1.2226   -0.2085 C   0  0  0  0  0  0  0  0  0  0  0  0
   -0.6188   -0.0170   -0.7334 C   0  0  0  0  0  0  0  0  0  0  0  0
    0.5771   -0.2538   -1.4169 C   0  0  0  0  0  0  0  0  0  0  0  0
    0.7699   -1.5471   -1.8761 O   0  0  0  0  0  0  0  0  0  0  0  0
    1.7348   -2.3509   -1.2103 C   0  0  0  0  0  0  0  0  0  0  0  0
    2.3951   -1.9370   -0.0773 C   0  0  0  0  0  0  0  0  0  0  0  0
    3.3109   -2.7109    0.5437 N   0  0  0  0  0  0  0  0  0  0  0  0
    3.6337   -3.9539    0.0788 C   0  0  0  0  0  0  0  0  0  0  0  0
    4.4990   -4.9191    0.4980 N   0  0  0  0  0  0  0  0  0  0  0  0
    4.3855   -5.9509   -0.3757 C   0  0  0  0  0  0  0  0  0  0  0  0
    3.4648   -5.6550   -1.3378 C   0  0  0  0  0  0  0  0  0  0  0  0
    2.9816   -4.3844   -1.0550 C   0  0  0  0  0  0  0  0  0  0  0  0
    2.0368   -3.6011   -1.7063 C   0  0  0  0  0  0  0  0  0  0  0  0
   -2.1645    1.3856    0.4462 N   0  0  0  0  0  0  0  0  0  0  0  0
   -2.7975    2.6889    0.5067 C   0  0  0  0  0  0  0  0  0  0  0  0
   -4.1356    2.5182   -0.1383 C   0  0  0  0  0  0  0  0  0  0  0  0
   -4.9118    1.4895    0.5110 N   0  0  0  0  0  0  0  0  0  0  0  0
   -6.2275    1.5640   -0.0239 C   0  0  0  0  0  0  0  0  0  0  0  0
   -7.2533    0.6456    0.4502 C   0  0  0  0  0  0  0  0  0  0  0  0
   -8.3464    1.0920    1.0704 C   0  0  0  0  0  0  0  0  0  0  0  0
   -9.3937    0.1258    1.5481 C   0  0  0  0  0  0  0  0  0  0  0  0
   -9.5993   -1.0487    0.6666 C   0  0  0  0  0  0  0  0  0  0  0  0
  -10.8589   -0.7892   -0.1779 C   0  0  0  0  0  0  0  0  0  0  0  0
   -9.8575   -2.3072    1.4979 C   0  0  0  0  0  0  0  0  0  0  0  0
   -8.4984   -1.3540   -0.2920 C   0  0  0  0  0  0  0  0  0  0  0  0
   -7.1567   -0.8312    0.2146 C   0  0  0  0  0  0  0  0  0  0  0  0
   -8.5826    2.4729    1.3643 C   0  0  0  0  0  0  0  0  0  0  0  0
   -9.7977    3.0825    0.9993 C   0  0  0  0  0  0  0  0  0  0  0  0
  -10.0579    4.3892    1.3270 C   0  0  0  0  0  0  0  0  0  0  0  0
   -9.1467    5.1501    2.0214 C   0  0  0  0  0  0  0  0  0  0  0  0
   -9.4441    6.8211    2.4625 Cl  0  0  0  0  0  0  0  0  0  0  0  0
   -7.9647    4.5770    2.3839 C   0  0  0  0  0  0  0  0  0  0  0  0
   -7.7116    3.2577    2.0484 C   0  0  0  0  0  0  0  0  0  0  0  0
   -4.2995    0.2325    0.6341 C   0  0  0  0  0  0  0  0  0  0  0  0
   -2.8483    0.2904    1.0733 C   0  0  0  0  0  0  0  0  0  0  0  0
    5.4909   -2.7014   -3.0665 H   0  0  0  0  0  0  0  0  0  0  0  0
    6.4022    1.4466   -3.1750 H   0  0  0  0  0  0  0  0  0  0  0  0
    8.3271    1.0334   -1.7080 H   0  0  0  0  0  0  0  0  0  0  0  0
    9.5237   -2.2764   -0.5864 H   0  0  0  0  0  0  0  0  0  0  0  0
   10.0867    0.6380   -0.8648 H   0  0  0  0  0  0  0  0  0  0  0  0
   11.0692   -0.6296   -0.1181 H   0  0  0  0  0  0  0  0  0  0  0  0
    9.7369   -0.5746    1.8965 H   0  0  0  0  0  0  0  0  0  0  0  0
    8.1098    1.7505    0.6086 H   0  0  0  0  0  0  0  0  0  0  0  0
    7.4855    0.2089    1.4020 H   0  0  0  0  0  0  0  0  0  0  0  0
    8.7276    2.7343    2.5267 H   0  0  0  0  0  0  0  0  0  0  0  0
    7.4523    1.6781    3.1924 H   0  0  0  0  0  0  0  0  0  0  0  0
   11.3499    0.5085    3.5178 H   0  0  0  0  0  0  0  0  0  0  0  0
   11.0011    2.2871    3.4674 H   0  0  0  0  0  0  0  0  0  0  0  0
   11.6976    0.8791    1.2940 H   0  0  0  0  0  0  0  0  0  0  0  0
   10.5138    2.2819    1.2271 H   0  0  0  0  0  0  0  0  0  0  0  0
    2.4038   -1.1215   -3.6035 H   0  0  0  0  0  0  0  0  0  0  0  0
    1.8605    2.7887   -1.1891 H   0  0  0  0  0  0  0  0  0  0  0  0
   -0.2112    3.2149    0.0132 H   0  0  0  0  0  0  0  0  0  0  0  0
   -1.2871   -0.8613   -0.6461 H   0  0  0  0  0  0  0  0  0  0  0  0
    2.1787   -0.9666    0.3310 H   0  0  0  0  0  0  0  0  0  0  0  0
    5.1204   -4.8615    1.3272 H   0  0  0  0  0  0  0  0  0  0  0  0
    4.9366   -6.8824   -0.3327 H   0  0  0  0  0  0  0  0  0  0  0  0
    3.1051   -6.2246   -2.1974 H   0  0  0  0  0  0  0  0  0  0  0  0
    1.5229   -3.9267   -2.5945 H   0  0  0  0  0  0  0  0  0  0  0  0
   -2.1966    3.4844    0.0197 H   0  0  0  0  0  0  0  0  0  0  0  0
   -2.9202    2.9923    1.5555 H   0  0  0  0  0  0  0  0  0  0  0  0
   -4.0709    2.2695   -1.2005 H   0  0  0  0  0  0  0  0  0  0  0  0
   -4.6889    3.4863    0.0220 H   0  0  0  0  0  0  0  0  0  0  0  0
   -6.5696    2.6172   -0.1448 H   0  0  0  0  0  0  0  0  0  0  0  0
   -6.0818    1.2462   -1.1380 H   0  0  0  0  0  0  0  0  0  0  0  0
  -10.3392    0.6918    1.6649 H   0  0  0  0  0  0  0  0  0  0  0  0
   -9.1238   -0.2245    2.5708 H   0  0  0  0  0  0  0  0  0  0  0  0
  -10.6434    0.1108   -0.7869 H   0  0  0  0  0  0  0  0  0  0  0  0
  -11.6510   -0.5369    0.5549 H   0  0  0  0  0  0  0  0  0  0  0  0
  -11.0769   -1.6845   -0.7785 H   0  0  0  0  0  0  0  0  0  0  0  0
   -9.4899   -3.1922    0.9301 H   0  0  0  0  0  0  0  0  0  0  0  0
  -10.9290   -2.4578    1.6844 H   0  0  0  0  0  0  0  0  0  0  0  0
   -9.2643   -2.2038    2.4244 H   0  0  0  0  0  0  0  0  0  0  0  0
   -8.3937   -2.4507   -0.3886 H   0  0  0  0  0  0  0  0  0  0  0  0
   -8.6974   -0.9679   -1.3370 H   0  0  0  0  0  0  0  0  0  0  0  0
   -6.4324   -1.0880   -0.5659 H   0  0  0  0  0  0  0  0  0  0  0  0
   -6.9655   -1.3773    1.1522 H   0  0  0  0  0  0  0  0  0  0  0  0
  -10.5262    2.4772    0.4438 H   0  0  0  0  0  0  0  0  0  0  0  0
  -11.0075    4.8435    1.0364 H   0  0  0  0  0  0  0  0  0  0  0  0
   -7.2352    5.1667    2.9323 H   0  0  0  0  0  0  0  0  0  0  0  0
   -6.7619    2.8698    2.3773 H   0  0  0  0  0  0  0  0  0  0  0  0
   -4.8532   -0.4123    1.3269 H   0  0  0  0  0  0  0  0  0  0  0  0
   -4.2799   -0.2595   -0.3565 H   0  0  0  0  0  0  0  0  0  0  0  0
   -2.8840    0.5460    2.1753 H   0  0  0  0  0  0  0  0  0  0  0  0
   -2.3339   -0.6581    0.9912 H   0  0  0  0  0  0  0  0  0  0  0  0
  1  2  1  0
  2  3  2  0
  2  4  1  0
  4  5  2  0
  5  6  1  0
  6  7  2  0
  7  8  1  0
  8  9  2  0
  9 10  1  0
 10 11  1  0
 11 12  1  0
 12 13  1  0
 13 14  1  0
 14 15  1  0
 15 16  1  0
 16 17  1  0
  6 18  1  0
 18 19  2  0
 18 20  2  0
 18 21  1  0
 21 22  1  0
 22 23  2  0
 22 24  1  0
 24 25  2  0
 25 26  1  0
 26 27  2  0
 27 28  1  0
 28 29  2  0
 29 30  1  0
 30 31  1  0
 31 32  2  0
 32 33  1  0
 33 34  2  0
 34 35  1  0
 35 36  1  0
 36 37  2  0
 37 38  1  0
 38 39  2  0
 27 40  1  0
 40 41  1  0
 41 42  1  0
 42 43  1  0
 43 44  1  0
 44 45  1  0
 45 46  2  0
 46 47  1  0
 47 48  1  0
 48 49  1  0
 48 50  1  0
 48 51  1  0
 51 52  1  0
 46 53  1  0
 53 54  2  0
 54 55  1  0
 55 56  2  0
 56 57  1  0
 56 58  1  0
 58 59  2  0
 43 60  1  0
 60 61  1  0
  9  4  1  0
 17 12  1  0
 29 24  1  0
 39 31  1  0
 61 40  1  0
 38 34  1  0
 52 45  1  0
 59 53  1  0
  5 62  1  0
  7 63  1  0
  8 64  1  0
 10 65  1  0
 11 66  1  0
 11 67  1  0
 12 68  1  0
 13 69  1  0
 13 70  1  0
 14 71  1  0
 14 72  1  0
 16 73  1  0
 16 74  1  0
 17 75  1  0
 17 76  1  0
 21 77  1  0
 25 78  1  0
 26 79  1  0
 28 80  1  0
 32 81  1  0
 35 82  1  0
 36 83  1  0
 37 84  1  0
 39 85  1  0
 41 86  1  0
 41 87  1  0
 42 88  1  0
 42 89  1  0
 44 90  1  0
 44 91  1  0
 47 92  1  0
 47 93  1  0
 49 94  1  0
 49 95  1  0
 49 96  1  0
 50 97  1  0
 50 98  1  0
 50 99  1  0
 51100  1  0
 51101  1  0
 52102  1  0
 52103  1  0
 54104  1  0
 55105  1  0
 58106  1  0
 59107  1  0
 60108  1  0
 60109  1  0
 61110  1  0
 61111  1  0
M  CHG  2   1  -1   2   1
M  END
$$$$
[H]C1=C([H])C([H])(F)C([H])([H])C([H])=C1N([H])C(=O)C1(C(=O)N([H])c2c([H])c([H])c(Oc3c([H])c([H])nc4c([H])nc(OC([H])([H])[H])c([H])c34)c(F)c2[H])C([H])([H])C1([H])[H]
     RDKit          3D

 58 62  0  0  0  0  0  0  0  0999 V2000
    9.0417    3.2277   -1.3840 C   0  0  0  0  0  0  0  0  0  0  0  0
    7.9885    2.3947   -1.1547 O   0  0  0  0  0  0  0  0  0  0  0  0
    7.8152    1.1478   -0.6761 C   0  0  0  0  0  0  0  0  0  0  0  0
    6.5724    0.5644   -0.5724 C   0  0  0  0  0  0  0  0  0  0  0  0
    6.3609   -0.6907   -0.0982 C   0  0  0  0  0  0  0  0  0  0  0  0
    5.0943   -1.2957    0.0103 C   0  0  0  0  0  0  0  0  0  0  0  0
    4.0200   -0.5432   -0.3932 O   0  0  0  0  0  0  0  0  0  0  0  0
    2.7061   -0.7989   -0.5430 C   0  0  0  0  0  0  0  0  0  0  0  0
    2.0649   -1.9891   -0.6666 C   0  0  0  0  0  0  0  0  0  0  0  0
    0.6862   -2.1287   -0.7745 C   0  0  0  0  0  0  0  0  0  0  0  0
   -0.0901   -1.0041   -0.7624 C   0  0  0  0  0  0  0  0  0  0  0  0
   -1.5338   -1.2485   -0.6329 N   0  0  0  0  0  0  0  0  0  0  0  0
   -2.1419   -0.5871    0.4650 C   0  0  0  0  0  0  0  0  0  0  0  0
   -1.3887    0.1766    1.1877 O   0  0  0  0  0  0  0  0  0  0  0  0
   -3.5696   -0.7024    0.8954 C   0  0  0  0  0  0  0  0  0  0  0  0
   -3.7309   -0.8582    2.3843 C   0  0  0  0  0  0  0  0  0  0  0  0
   -3.6464   -2.1172    1.5646 C   0  0  0  0  0  0  0  0  0  0  0  0
   -4.6747   -0.3757    0.0637 C   0  0  0  0  0  0  0  0  0  0  0  0
   -5.3626    0.5596    1.0917 O   0  0  0  0  0  0  0  0  0  0  0  0
   -5.5650   -0.2650   -0.9289 N   0  0  0  0  0  0  0  0  0  0  0  0
   -6.7479    0.6228   -0.8043 C   0  0  0  0  0  0  0  0  0  0  0  0
   -6.8799    1.6363   -1.6521 C   0  0  0  0  0  0  0  0  0  0  0  0
   -8.0300    2.5419   -1.6028 C   0  0  0  0  0  0  0  0  0  0  0  0
   -8.4858    2.8271   -0.2060 C   0  0  0  0  0  0  0  0  0  0  0  0
   -9.6403    3.5311   -0.0819 F   0  0  0  0  0  0  0  0  0  0  0  0
   -8.4108    1.6655    0.6716 C   0  0  0  0  0  0  0  0  0  0  0  0
   -7.5787    0.6521    0.3776 C   0  0  0  0  0  0  0  0  0  0  0  0
    0.5147    0.1933   -0.6569 C   0  0  0  0  0  0  0  0  0  0  0  0
    1.8754    0.3519   -0.5461 C   0  0  0  0  0  0  0  0  0  0  0  0
    2.4382    1.5704   -0.4431 F   0  0  0  0  0  0  0  0  0  0  0  0
    4.9780   -2.5472    0.4940 C   0  0  0  0  0  0  0  0  0  0  0  0
    6.1227   -3.2638    0.8853 C   0  0  0  0  0  0  0  0  0  0  0  0
    7.2999   -2.6882    0.7787 N   0  0  0  0  0  0  0  0  0  0  0  0
    7.4558   -1.4175    0.3005 C   0  0  0  0  0  0  0  0  0  0  0  0
    8.7051   -0.8423    0.1993 C   0  0  0  0  0  0  0  0  0  0  0  0
    8.8539    0.4171   -0.2809 N   0  0  0  0  0  0  0  0  0  0  0  0
    9.2677    3.3932   -2.4973 H   0  0  0  0  0  0  0  0  0  0  0  0
    8.7099    4.2767   -1.0642 H   0  0  0  0  0  0  0  0  0  0  0  0
    9.9806    3.0741   -0.8429 H   0  0  0  0  0  0  0  0  0  0  0  0
    5.7456    1.1803   -0.8710 H   0  0  0  0  0  0  0  0  0  0  0  0
    2.6331   -2.8800   -0.7502 H   0  0  0  0  0  0  0  0  0  0  0  0
    0.2460   -3.1575   -0.8776 H   0  0  0  0  0  0  0  0  0  0  0  0
   -2.0254   -1.8610   -1.2804 H   0  0  0  0  0  0  0  0  0  0  0  0
   -2.8401   -0.6219    3.0352 H   0  0  0  0  0  0  0  0  0  0  0  0
   -4.6660   -0.6749    2.9070 H   0  0  0  0  0  0  0  0  0  0  0  0
   -2.7009   -2.7070    1.6416 H   0  0  0  0  0  0  0  0  0  0  0  0
   -4.5471   -2.6607    1.2685 H   0  0  0  0  0  0  0  0  0  0  0  0
   -5.5437   -0.8041   -1.8506 H   0  0  0  0  0  0  0  0  0  0  0  0
   -6.1083    1.7588   -2.4003 H   0  0  0  0  0  0  0  0  0  0  0  0
   -7.6697    3.5236   -2.0316 H   0  0  0  0  0  0  0  0  0  0  0  0
   -8.9378    2.1574   -2.1429 H   0  0  0  0  0  0  0  0  0  0  0  0
   -7.6013    3.5335    0.2085 H   0  0  0  0  0  0  0  0  0  0  0  0
   -9.0084    1.6189    1.5943 H   0  0  0  0  0  0  0  0  0  0  0  0
   -7.5331   -0.1576    1.0493 H   0  0  0  0  0  0  0  0  0  0  0  0
   -0.1265    1.0868   -0.6608 H   0  0  0  0  0  0  0  0  0  0  0  0
    4.0418   -3.1082    0.6546 H   0  0  0  0  0  0  0  0  0  0  0  0
    5.9975   -4.2616    1.2373 H   0  0  0  0  0  0  0  0  0  0  0  0
    9.5694   -1.4251    0.5233 H   0  0  0  0  0  0  0  0  0  0  0  0
  1  2  1  0
  2  3  1  0
  3  4  2  0
  4  5  1  0
  5  6  2  0
  6  7  1  0
  7  8  1  0
  8  9  2  0
  9 10  1  0
 10 11  2  0
 11 12  1  0
 12 13  1  0
 13 14  2  0
 13 15  1  0
 15 16  1  0
 16 17  1  0
 15 18  1  0
 18 19  2  0
 18 20  1  0
 20 21  1  0
 21 22  2  0
 22 23  1  0
 23 24  1  0
 24 25  1  0
 24 26  1  0
 26 27  2  0
 11 28  1  0
 28 29  2  0
 29 30  1  0
  6 31  1  0
 31 32  2  0
 32 33  1  0
 33 34  2  0
 34 35  1  0
 35 36  2  0
 36  3  1  0
 34  5  1  0
 29  8  1  0
 17 15  1  0
 27 21  1  0
  1 37  1  0
  1 38  1  0
  1 39  1  0
  4 40  1  0
  9 41  1  0
 10 42  1  0
 12 43  1  0
 16 44  1  0
 16 45  1  0
 17 46  1  0
 17 47  1  0
 20 48  1  0
 22 49  1  0
 23 50  1  0
 23 51  1  0
 24 52  1  0
 26 53  1  0
 27 54  1  0
 28 55  1  0
 31 56  1  0
 32 57  1  0
 35 58  1  0
M  END
$$$$
[H]N=C(N([H])[H])N([H])C([H])([H])C([H])([H])C([H])([H])[C@@]([H])(C(=O)N1C([H])([H])C([H])([H])C([H])([H])[C@@]1([H])C(=O)N([H])[C@]([H])(C(=O)N([H])[C@]([H])(C(=O)N([H])[C@]([H])(C(=O)O[H])C([H])([H])c1c([H])n([H])c2c([H])c([H])c([H])c([H])c12)C([H])([H])C([H])(C([H])([H])[H])C([H])([H])[H])C([H])([H])c1c([H])n([H])c2c([H])c([H])c([H])c([H])c12)N([H])[H]
     RDKit          3D

107111  0  0  0  0  0  0  0  0999 V2000
   -3.4651   -2.0206   -5.4681 C   0  0  0  0  0  0  0  0  0  0  0  0
   -3.3270   -1.0887   -4.2096 C   0  0  0  0  0  0  0  0  0  0  0  0
   -4.7263   -1.2318   -3.5896 C   0  0  0  0  0  0  0  0  0  0  0  0
   -2.3333   -1.7000   -3.3143 C   0  0  0  0  0  0  0  0  0  0  0  0
   -1.8693   -1.1073   -2.0740 C   0  0  2  0  0  0  0  0  0  0  0  0
   -0.8957   -2.0764   -1.5109 N   0  0  0  0  0  0  0  0  0  0  0  0
    0.0881   -1.6611   -0.6112 C   0  0  0  0  0  0  0  0  0  0  0  0
    0.0110   -0.3788   -0.3263 O   0  0  0  0  0  0  0  0  0  0  0  0
    1.1382   -2.4350    0.0131 C   0  0  2  0  0  0  0  0  0  0  0  0
    0.9718   -3.7671    0.5777 C   0  0  0  0  0  0  0  0  0  0  0  0
    0.0296   -4.0220    1.6460 C   0  0  0  0  0  0  0  0  0  0  0  0
    0.3173   -3.7906    3.0025 C   0  0  0  0  0  0  0  0  0  0  0  0
   -0.7920   -4.0709    3.6817 N   0  0  0  0  0  0  0  0  0  0  0  0
   -1.7988   -4.4737    2.8791 C   0  0  0  0  0  0  0  0  0  0  0  0
   -3.0825   -4.8778    3.1510 C   0  0  0  0  0  0  0  0  0  0  0  0
   -3.9274   -5.2834    2.1230 C   0  0  0  0  0  0  0  0  0  0  0  0
   -3.4184   -5.2588    0.8419 C   0  0  0  0  0  0  0  0  0  0  0  0
   -2.1304   -4.8512    0.5758 C   0  0  0  0  0  0  0  0  0  0  0  0
   -1.2700   -4.4407    1.5882 C   0  0  0  0  0  0  0  0  0  0  0  0
    1.8766   -1.6060    0.9960 N   0  0  0  0  0  0  0  0  0  0  0  0
    3.0302   -0.9153    0.5538 C   0  0  0  0  0  0  0  0  0  0  0  0
    3.3758   -1.0005   -0.6272 O   0  0  0  0  0  0  0  0  0  0  0  0
    3.7393   -0.1226    1.6088 C   0  0  2  0  0  0  0  0  0  0  0  0
    2.8819    1.0219    2.0292 C   0  0  0  0  0  0  0  0  0  0  0  0
    3.7970    2.1567    2.2942 C   0  0  0  0  0  0  0  0  0  0  0  0
    4.9282    1.8894    1.3303 C   0  0  0  0  0  0  0  0  0  0  0  0
    4.9341    0.4480    1.0601 N   0  0  0  0  0  0  0  0  0  0  0  0
    5.9779   -0.2208    0.4059 C   0  0  0  0  0  0  0  0  0  0  0  0
    5.8362   -1.5281    0.3553 O   0  0  0  0  0  0  0  0  0  0  0  0
    7.1865    0.2941   -0.2266 C   0  0  1  0  0  0  0  0  0  0  0  0
    7.7855   -0.7114   -1.1211 N   0  0  0  0  0  0  0  0  0  0  0  0
    7.1551    1.6577   -0.8044 C   0  0  0  0  0  0  0  0  0  0  0  0
    8.4922    1.9984   -1.4849 C   0  0  0  0  0  0  0  0  0  0  0  0
    8.4887    3.3936   -2.0024 C   0  0  0  0  0  0  0  0  0  0  0  0
    7.4390    3.6420   -2.9626 N   0  0  0  0  0  0  0  0  0  0  0  0
    7.2837    4.9249   -3.5357 C   0  0  0  0  0  0  0  0  0  0  0  0
    7.4301    6.0595   -2.7091 N   0  0  0  0  0  0  0  0  0  0  0  0
    7.0170    5.0771   -4.7754 N   0  0  0  0  0  0  0  0  0  0  0  0
   -2.7508   -0.7126   -0.9867 C   0  0  0  0  0  0  0  0  0  0  0  0
   -2.6728   -1.4019    0.1126 O   0  0  0  0  0  0  0  0  0  0  0  0
   -3.6905    0.3240   -0.9195 N   0  0  0  0  0  0  0  0  0  0  0  0
   -4.4564    0.5277    0.3229 C   0  0  1  0  0  0  0  0  0  0  0  0
   -4.2654    1.9138    0.8213 C   0  0  0  0  0  0  0  0  0  0  0  0
   -5.0111    2.1727    2.0603 C   0  0  0  0  0  0  0  0  0  0  0  0
   -4.4895    1.9340    3.3432 C   0  0  0  0  0  0  0  0  0  0  0  0
   -5.3956    2.2023    4.2814 N   0  0  0  0  0  0  0  0  0  0  0  0
   -6.5206    2.6192    3.6747 C   0  0  0  0  0  0  0  0  0  0  0  0
   -7.7361    3.0381    4.1859 C   0  0  0  0  0  0  0  0  0  0  0  0
   -8.7309    3.4484    3.3248 C   0  0  0  0  0  0  0  0  0  0  0  0
   -8.4956    3.4330    1.9789 C   0  0  0  0  0  0  0  0  0  0  0  0
   -7.2968    3.0205    1.4422 C   0  0  0  0  0  0  0  0  0  0  0  0
   -6.2813    2.6014    2.2961 C   0  0  0  0  0  0  0  0  0  0  0  0
   -5.8706    0.2154    0.0878 C   0  0  0  0  0  0  0  0  0  0  0  0
   -6.5527   -0.4402    1.1273 O   0  0  0  0  0  0  0  0  0  0  0  0
   -6.4845    0.4877   -0.9543 O   0  0  0  0  0  0  0  0  0  0  0  0
   -4.2666   -1.5973   -6.1135 H   0  0  0  0  0  0  0  0  0  0  0  0
   -3.7751   -2.9904   -5.0815 H   0  0  0  0  0  0  0  0  0  0  0  0
   -2.4893   -2.1129   -5.9660 H   0  0  0  0  0  0  0  0  0  0  0  0
   -3.1175   -0.1115   -4.6121 H   0  0  0  0  0  0  0  0  0  0  0  0
   -4.7262   -1.8551   -2.6822 H   0  0  0  0  0  0  0  0  0  0  0  0
   -5.4415   -1.7316   -4.2875 H   0  0  0  0  0  0  0  0  0  0  0  0
   -5.1570   -0.2288   -3.4153 H   0  0  0  0  0  0  0  0  0  0  0  0
   -1.3941   -1.8836   -3.9553 H   0  0  0  0  0  0  0  0  0  0  0  0
   -2.6134   -2.7966   -3.0808 H   0  0  0  0  0  0  0  0  0  0  0  0
   -1.1619   -0.2114   -2.2931 H   0  0  0  0  0  0  0  0  0  0  0  0
   -0.9709   -3.0521   -1.8065 H   0  0  0  0  0  0  0  0  0  0  0  0
    1.9004   -2.5811   -0.8657 H   0  0  0  0  0  0  0  0  0  0  0  0
    0.8475   -4.5222   -0.2789 H   0  0  0  0  0  0  0  0  0  0  0  0
    2.0133   -4.0721    0.9686 H   0  0  0  0  0  0  0  0  0  0  0  0
    1.2436   -3.4514    3.4497 H   0  0  0  0  0  0  0  0  0  0  0  0
   -0.8881   -3.9923    4.7365 H   0  0  0  0  0  0  0  0  0  0  0  0
   -3.5044   -4.9035    4.1490 H   0  0  0  0  0  0  0  0  0  0  0  0
   -4.9464   -5.6076    2.2992 H   0  0  0  0  0  0  0  0  0  0  0  0
   -4.0237   -5.5647   -0.0070 H   0  0  0  0  0  0  0  0  0  0  0  0
   -1.7335   -4.8348   -0.4387 H   0  0  0  0  0  0  0  0  0  0  0  0
    1.5462   -1.5512    1.9596 H   0  0  0  0  0  0  0  0  0  0  0  0
    3.9775   -0.7765    2.4790 H   0  0  0  0  0  0  0  0  0  0  0  0
    2.1328    1.2348    1.2352 H   0  0  0  0  0  0  0  0  0  0  0  0
    2.3510    0.6873    2.9688 H   0  0  0  0  0  0  0  0  0  0  0  0
    4.1907    2.1378    3.3278 H   0  0  0  0  0  0  0  0  0  0  0  0
    3.3181    3.1319    2.0556 H   0  0  0  0  0  0  0  0  0  0  0  0
    4.7906    2.4599    0.4160 H   0  0  0  0  0  0  0  0  0  0  0  0
    5.8779    2.0946    1.8772 H   0  0  0  0  0  0  0  0  0  0  0  0
    7.9520    0.3819    0.6496 H   0  0  0  0  0  0  0  0  0  0  0  0
    7.1257   -0.7807   -1.9535 H   0  0  0  0  0  0  0  0  0  0  0  0
    7.6839   -1.6368   -0.6077 H   0  0  0  0  0  0  0  0  0  0  0  0
    6.3376    1.7887   -1.5038 H   0  0  0  0  0  0  0  0  0  0  0  0
    7.0830    2.4605   -0.0255 H   0  0  0  0  0  0  0  0  0  0  0  0
    8.6563    1.2795   -2.3092 H   0  0  0  0  0  0  0  0  0  0  0  0
    9.2872    1.8354   -0.7296 H   0  0  0  0  0  0  0  0  0  0  0  0
    8.4772    4.1281   -1.1540 H   0  0  0  0  0  0  0  0  0  0  0  0
    9.4563    3.5625   -2.5634 H   0  0  0  0  0  0  0  0  0  0  0  0
    6.7739    2.9066   -3.2598 H   0  0  0  0  0  0  0  0  0  0  0  0
    8.1228    6.7897   -2.9544 H   0  0  0  0  0  0  0  0  0  0  0  0
    6.8274    6.1530   -1.8399 H   0  0  0  0  0  0  0  0  0  0  0  0
    6.9008    4.2762   -5.4227 H   0  0  0  0  0  0  0  0  0  0  0  0
   -3.8652    0.9650   -1.6896 H   0  0  0  0  0  0  0  0  0  0  0  0
   -4.0223   -0.2070    1.0732 H   0  0  0  0  0  0  0  0  0  0  0  0
   -3.1994    2.2009    0.9565 H   0  0  0  0  0  0  0  0  0  0  0  0
   -4.7351    2.6016    0.0369 H   0  0  0  0  0  0  0  0  0  0  0  0
   -3.4776    1.5798    3.5321 H   0  0  0  0  0  0  0  0  0  0  0  0
   -5.2648    2.1077    5.3040 H   0  0  0  0  0  0  0  0  0  0  0  0
   -7.9045    3.0415    5.2745 H   0  0  0  0  0  0  0  0  0  0  0  0
   -9.6791    3.7737    3.7515 H   0  0  0  0  0  0  0  0  0  0  0  0
   -9.3066    3.7672    1.3247 H   0  0  0  0  0  0  0  0  0  0  0  0
   -7.1379    3.0248    0.3955 H   0  0  0  0  0  0  0  0  0  0  0  0
   -7.5453   -0.6233    1.1178 H   0  0  0  0  0  0  0  0  0  0  0  0
  1  2  1  0
  2  3  1  0
  2  4  1  0
  4  5  1  0
  5  6  1  0
  6  7  1  0
  7  8  2  0
  7  9  1  0
  9 10  1  0
 10 11  1  0
 11 12  2  0
 12 13  1  0
 13 14  1  0
 14 15  2  0
 15 16  1  0
 16 17  2  0
 17 18  1  0
 18 19  2  0
  9 20  1  0
 20 21  1  0
 21 22  2  0
 21 23  1  0
 23 24  1  0
 24 25  1  0
 25 26  1  0
 26 27  1  0
 27 28  1  0
 28 29  2  0
 28 30  1  0
 30 31  1  0
 30 32  1  0
 32 33  1  0
 33 34  1  0
 34 35  1  0
 35 36  1  0
 36 37  1  0
 36 38  2  3
  5 39  1  0
 39 40  2  0
 39 41  1  0
 41 42  1  0
 42 43  1  0
 43 44  1  0
 44 45  2  0
 45 46  1  0
 46 47  1  0
 47 48  2  0
 48 49  1  0
 49 50  2  0
 50 51  1  0
 51 52  2  0
 42 53  1  0
 53 54  1  0
 53 55  2  0
 19 11  1  0
 27 23  1  0
 52 44  1  0
 19 14  1  0
 52 47  1  0
  1 56  1  0
  1 57  1  0
  1 58  1  0
  2 59  1  0
  3 60  1  0
  3 61  1  0
  3 62  1  0
  4 63  1  0
  4 64  1  0
  5 65  1  6
  6 66  1  0
  9 67  1  6
 10 68  1  0
 10 69  1  0
 12 70  1  0
 13 71  1  0
 15 72  1  0
 16 73  1  0
 17 74  1  0
 18 75  1  0
 20 76  1  0
 23 77  1  1
 24 78  1  0
 24 79  1  0
 25 80  1  0
 25 81  1  0
 26 82  1  0
 26 83  1  0
 30 84  1  1
 31 85  1  0
 31 86  1  0
 32 87  1  0
 32 88  1  0
 33 89  1  0
 33 90  1  0
 34 91  1  0
 34 92  1  0
 35 93  1  0
 37 94  1  0
 37 95  1  0
 38 96  1  0
 41 97  1  0
 42 98  1  1
 43 99  1  0
 43100  1  0
 45101  1  0
 46102  1  0
 48103  1  0
 49104  1  0
 50105  1  0
 51106  1  0
 54107  1  0
M  END
$$$$
[H]OC([H])([H])[C@@]1([H])[C@@]([H])(O[H])[C@]([H])(O[H])[C@]([H])(O[H])[C@]1([H])O[H]
     RDKit          3D

 23 23  0  0  0  0  0  0  0  0999 V2000
    3.0195   -0.4682    0.1606 O   0  0  0  0  0  0  0  0  0  0  0  0
    1.8527   -0.4573    0.9216 C   0  0  0  0  0  0  0  0  0  0  0  0
    0.8256    0.4118    0.2248 C   0  0  2  0  0  0  0  0  0  0  0  0
   -0.4674    0.4600    1.0107 C   0  0  1  0  0  0  0  0  0  0  0  0
   -0.9643    1.7715    1.0378 O   0  0  0  0  0  0  0  0  0  0  0  0
   -1.3743   -0.4550    0.2400 C   0  0  1  0  0  0  0  0  0  0  0  0
   -2.7053   -0.2851    0.5046 O   0  0  0  0  0  0  0  0  0  0  0  0
   -1.0141   -0.0677   -1.1965 C   0  0  1  0  0  0  0  0  0  0  0  0
   -1.4090    1.2443   -1.3901 O   0  0  0  0  0  0  0  0  0  0  0  0
    0.4971   -0.1871   -1.1179 C   0  0  2  0  0  0  0  0  0  0  0  0
    0.7816   -1.5596   -1.1516 O   0  0  0  0  0  0  0  0  0  0  0  0
    3.6550    0.1779    0.5138 H   0  0  0  0  0  0  0  0  0  0  0  0
    2.1059   -0.0941    1.9202 H   0  0  0  0  0  0  0  0  0  0  0  0
    1.4884   -1.4963    1.0261 H   0  0  0  0  0  0  0  0  0  0  0  0
    1.2026    1.4384    0.1050 H   0  0  0  0  0  0  0  0  0  0  0  0
   -0.3121    0.1174    2.0522 H   0  0  0  0  0  0  0  0  0  0  0  0
   -1.9662    1.7508    1.0181 H   0  0  0  0  0  0  0  0  0  0  0  0
   -1.0108   -1.4993    0.4278 H   0  0  0  0  0  0  0  0  0  0  0  0
   -2.8642   -0.0414    1.4479 H   0  0  0  0  0  0  0  0  0  0  0  0
   -1.4616   -0.7843   -1.8935 H   0  0  0  0  0  0  0  0  0  0  0  0
   -0.9920    1.6749   -2.1756 H   0  0  0  0  0  0  0  0  0  0  0  0
    0.9987    0.3313   -1.9590 H   0  0  0  0  0  0  0  0  0  0  0  0
    0.1141   -1.9829   -1.7270 H   0  0  0  0  0  0  0  0  0  0  0  0
  1  2  1  0
  2  3  1  0
  3  4  1  0
  4  5  1  0
  4  6  1  0
  6  7  1  0
  6  8  1  0
  8  9  1  0
  8 10  1  0
 10 11  1  0
 10  3  1  0
  1 12  1  0
  2 13  1  0
  2 14  1  0
  3 15  1  6
  4 16  1  1
  5 17  1  0
  6 18  1  6
  7 19  1  0
  8 20  1  6
  9 21  1  0
 10 22  1  6
 11 23  1  0
M  END
$$$$
[H]N=C(c1c([H])c([H])c([H])c(C([H])([H])[C@@]([H])(C(=O)N2C([H])([H])C([H])([H])N(C(=O)C([H])([H])[H])C([H])([H])C2([H])[H])N([H])S(=O)(=O)c2c([H])c([H])c3c([H])c([H])c([H])c([H])c3c2[H])c1[H])N([H])[H]
     RDKit          3D

 65 68  0  0  0  0  0  0  0  0999 V2000
   -5.2518   -4.2226   -0.5448 C   0  0  0  0  0  0  0  0  0  0  0  0
   -4.4553   -3.7314    0.6166 C   0  0  0  0  0  0  0  0  0  0  0  0
   -5.1259   -3.5162    1.6854 O   0  0  0  0  0  0  0  0  0  0  0  0
   -3.0839   -3.5270    0.5317 N   0  0  0  0  0  0  0  0  0  0  0  0
   -2.3545   -3.7730   -0.6888 C   0  0  0  0  0  0  0  0  0  0  0  0
   -0.9920   -3.1019   -0.6189 C   0  0  0  0  0  0  0  0  0  0  0  0
   -1.0665   -1.7776    0.0256 N   0  0  0  0  0  0  0  0  0  0  0  0
   -1.7612   -1.6891    1.2672 C   0  0  0  0  0  0  0  0  0  0  0  0
   -2.3068   -3.0623    1.6603 C   0  0  0  0  0  0  0  0  0  0  0  0
   -0.4680   -0.7115   -0.6579 C   0  0  0  0  0  0  0  0  0  0  0  0
    0.0040   -1.0570   -1.8384 O   0  0  0  0  0  0  0  0  0  0  0  0
   -0.2789    0.7017   -0.2871 C   0  0  2  0  0  0  0  0  0  0  0  0
   -1.4914    1.3300    0.2547 C   0  0  0  0  0  0  0  0  0  0  0  0
   -1.2931    2.7921    0.5929 C   0  0  0  0  0  0  0  0  0  0  0  0
   -0.9095    3.1852    1.8499 C   0  0  0  0  0  0  0  0  0  0  0  0
   -0.7468    4.5454    2.0566 C   0  0  0  0  0  0  0  0  0  0  0  0
   -0.9676    5.4651    1.0181 C   0  0  0  0  0  0  0  0  0  0  0  0
   -1.3514    5.0636   -0.2366 C   0  0  0  0  0  0  0  0  0  0  0  0
   -1.5100    3.6839   -0.4222 C   0  0  0  0  0  0  0  0  0  0  0  0
   -1.5768    5.9976   -1.3199 C   0  0  0  0  0  0  0  0  0  0  0  0
   -1.9946    5.4680   -2.5821 N   0  0  0  0  0  0  0  0  0  0  0  0
   -1.4362    7.2419   -1.2321 N   0  0  0  0  0  0  0  0  0  0  0  0
    0.3016    1.4516   -1.4139 N   0  0  0  0  0  0  0  0  0  0  0  0
    1.9315    1.8545   -1.2228 S   0  0  0  0  0  0  0  0  0  0  0  0
    2.1057    2.6891    0.0139 O   0  0  0  0  0  0  0  0  0  0  0  0
    2.4474    2.6758   -2.3798 O   0  0  0  0  0  0  0  0  0  0  0  0
    2.9994    0.4799   -1.0817 C   0  0  0  0  0  0  0  0  0  0  0  0
    3.5532   -0.1633   -2.1403 C   0  0  0  0  0  0  0  0  0  0  0  0
    4.3920   -1.2497   -1.9079 C   0  0  0  0  0  0  0  0  0  0  0  0
    4.6878   -1.7045   -0.6410 C   0  0  0  0  0  0  0  0  0  0  0  0
    5.5152   -2.7681   -0.4110 C   0  0  0  0  0  0  0  0  0  0  0  0
    5.8023   -3.2056    0.8801 C   0  0  0  0  0  0  0  0  0  0  0  0
    5.2429   -2.5572    1.9673 C   0  0  0  0  0  0  0  0  0  0  0  0
    4.4088   -1.4846    1.7235 C   0  0  0  0  0  0  0  0  0  0  0  0
    4.1206   -1.0456    0.4373 C   0  0  0  0  0  0  0  0  0  0  0  0
    3.2982    0.0219    0.1813 C   0  0  0  0  0  0  0  0  0  0  0  0
   -5.8213   -3.3828   -0.9724 H   0  0  0  0  0  0  0  0  0  0  0  0
   -6.0038   -4.9851   -0.1993 H   0  0  0  0  0  0  0  0  0  0  0  0
   -4.5980   -4.6188   -1.3531 H   0  0  0  0  0  0  0  0  0  0  0  0
   -2.1432   -4.8899   -0.6977 H   0  0  0  0  0  0  0  0  0  0  0  0
   -2.9208   -3.4972   -1.5815 H   0  0  0  0  0  0  0  0  0  0  0  0
   -0.3254   -3.7651   -0.0200 H   0  0  0  0  0  0  0  0  0  0  0  0
   -0.5950   -2.9903   -1.6189 H   0  0  0  0  0  0  0  0  0  0  0  0
   -2.6986   -1.0717    1.0933 H   0  0  0  0  0  0  0  0  0  0  0  0
   -1.1679   -1.2539    2.0942 H   0  0  0  0  0  0  0  0  0  0  0  0
   -1.4973   -3.7835    1.8562 H   0  0  0  0  0  0  0  0  0  0  0  0
   -2.9230   -2.9867    2.5836 H   0  0  0  0  0  0  0  0  0  0  0  0
    0.5818    0.6719    0.4539 H   0  0  0  0  0  0  0  0  0  0  0  0
   -2.3447    1.1853   -0.4289 H   0  0  0  0  0  0  0  0  0  0  0  0
   -1.6937    0.9117    1.2949 H   0  0  0  0  0  0  0  0  0  0  0  0
   -0.7361    2.4837    2.6611 H   0  0  0  0  0  0  0  0  0  0  0  0
   -0.4426    4.8907    3.0363 H   0  0  0  0  0  0  0  0  0  0  0  0
   -0.8284    6.5277    1.2235 H   0  0  0  0  0  0  0  0  0  0  0  0
   -1.8166    3.3829   -1.4241 H   0  0  0  0  0  0  0  0  0  0  0  0
   -3.0198    5.4522   -2.8403 H   0  0  0  0  0  0  0  0  0  0  0  0
   -1.3372    5.0824   -3.2922 H   0  0  0  0  0  0  0  0  0  0  0  0
   -1.1425    7.6954   -0.3559 H   0  0  0  0  0  0  0  0  0  0  0  0
    0.1682    0.9390   -2.3072 H   0  0  0  0  0  0  0  0  0  0  0  0
    3.3167    0.2036   -3.1310 H   0  0  0  0  0  0  0  0  0  0  0  0
    4.8430   -1.7736   -2.7528 H   0  0  0  0  0  0  0  0  0  0  0  0
    5.9605   -3.2842   -1.2441 H   0  0  0  0  0  0  0  0  0  0  0  0
    6.4709   -4.0592    1.0522 H   0  0  0  0  0  0  0  0  0  0  0  0
    5.4811   -2.9136    2.9745 H   0  0  0  0  0  0  0  0  0  0  0  0
    3.9706   -0.9839    2.5621 H   0  0  0  0  0  0  0  0  0  0  0  0
    2.8753    0.5136    1.0739 H   0  0  0  0  0  0  0  0  0  0  0  0
  1  2  1  0
  2  3  2  0
  2  4  1  0
  4  5  1  0
  5  6  1  0
  6  7  1  0
  7  8  1  0
  8  9  1  0
  7 10  1  0
 10 11  2  0
 10 12  1  0
 12 13  1  0
 13 14  1  0
 14 15  2  0
 15 16  1  0
 16 17  2  0
 17 18  1  0
 18 19  2  0
 18 20  1  0
 20 21  1  0
 20 22  2  3
 12 23  1  0
 23 24  1  0
 24 25  2  0
 24 26  2  0
 24 27  1  0
 27 28  2  0
 28 29  1  0
 29 30  2  0
 30 31  1  0
 31 32  2  0
 32 33  1  0
 33 34  2  0
 34 35  1  0
 35 36  2  0
  9  4  1  0
 19 14  1  0
 36 27  1  0
 35 30  1  0
  1 37  1  0
  1 38  1  0
  1 39  1  0
  5 40  1  0
  5 41  1  0
  6 42  1  0
  6 43  1  0
  8 44  1  0
  8 45  1  0
  9 46  1  0
  9 47  1  0
 12 48  1  1
 13 49  1  0
 13 50  1  0
 15 51  1  0
 16 52  1  0
 17 53  1  0
 19 54  1  0
 21 55  1  0
 21 56  1  0
 22 57  1  0
 23 58  1  0
 28 59  1  0
 29 60  1  0
 31 61  1  0
 32 62  1  0
 33 63  1  0
 34 64  1  0
 36 65  1  0
M  END
$$$$
[H]c1nc(Oc2c([H])c([H])c(N([H])C(=O)N([H])c3c([H])c([H])c(C([H])([H])N4C([H])([H])C([H])([H])N(C([H])([H])C([H])([H])[H])C([H])([H])C4([H])[H])c(C(F)(F)F)c3[H])c([H])c2[H])c([H])c(N([H])C([H])([H])[H])n1
     RDKit          3D

 68 71  0  0  0  0  0  0  0  0999 V2000
  -10.2990   -0.3201   -0.2443 C   0  0  0  0  0  0  0  0  0  0  0  0
   -9.0487    0.5002   -0.4280 C   0  0  0  0  0  0  0  0  0  0  0  0
   -8.1793   -0.0359   -1.4572 N   0  0  0  0  0  0  0  0  0  0  0  0
   -7.0305    0.8062   -1.5517 C   0  0  0  0  0  0  0  0  0  0  0  0
   -5.7154    0.1130   -1.2911 C   0  0  0  0  0  0  0  0  0  0  0  0
   -5.7379   -0.8228   -0.2229 N   0  0  0  0  0  0  0  0  0  0  0  0
   -5.1553   -0.4373    1.0060 C   0  0  0  0  0  0  0  0  0  0  0  0
   -3.7153   -0.2169    1.0542 C   0  0  0  0  0  0  0  0  0  0  0  0
   -2.9459   -0.4458   -0.0457 C   0  0  0  0  0  0  0  0  0  0  0  0
   -1.5554   -0.2549    0.0222 C   0  0  0  0  0  0  0  0  0  0  0  0
   -0.9188    0.1543    1.1522 C   0  0  0  0  0  0  0  0  0  0  0  0
    0.4451    0.3547    1.3623 N   0  0  0  0  0  0  0  0  0  0  0  0
    1.4499   -0.2261    0.5465 C   0  0  0  0  0  0  0  0  0  0  0  0
    1.1958   -0.9699   -0.4220 O   0  0  0  0  0  0  0  0  0  0  0  0
    2.8063    0.0526    0.8476 N   0  0  0  0  0  0  0  0  0  0  0  0
    3.8841   -0.4730    0.1219 C   0  0  0  0  0  0  0  0  0  0  0  0
    5.0696    0.2695    0.1595 C   0  0  0  0  0  0  0  0  0  0  0  0
    6.1724   -0.1959   -0.5017 C   0  0  0  0  0  0  0  0  0  0  0  0
    6.1984   -1.3743   -1.2203 C   0  0  0  0  0  0  0  0  0  0  0  0
    7.3559   -1.8175   -1.8874 O   0  0  0  0  0  0  0  0  0  0  0  0
    8.4788   -0.9936   -1.7796 C   0  0  0  0  0  0  0  0  0  0  0  0
    9.3306   -1.0781   -0.6992 C   0  0  0  0  0  0  0  0  0  0  0  0
   10.4383   -0.2312   -0.6411 C   0  0  0  0  0  0  0  0  0  0  0  0
   11.3426   -0.2777    0.4449 N   0  0  0  0  0  0  0  0  0  0  0  0
   12.4721    0.6190    0.4560 C   0  0  0  0  0  0  0  0  0  0  0  0
   10.6148    0.6290   -1.6528 N   0  0  0  0  0  0  0  0  0  0  0  0
    9.7904    0.7181   -2.7086 C   0  0  0  0  0  0  0  0  0  0  0  0
    8.7293   -0.1014   -2.7527 N   0  0  0  0  0  0  0  0  0  0  0  0
    5.0337   -2.0940   -1.2508 C   0  0  0  0  0  0  0  0  0  0  0  0
    3.8935   -1.6380   -0.5818 C   0  0  0  0  0  0  0  0  0  0  0  0
   -1.7503    0.3770    2.2572 C   0  0  0  0  0  0  0  0  0  0  0  0
   -3.1090    0.2069    2.2445 C   0  0  0  0  0  0  0  0  0  0  0  0
   -3.9076    0.4692    3.4596 C   0  0  0  0  0  0  0  0  0  0  0  0
   -3.0267    0.8724    4.4765 F   0  0  0  0  0  0  0  0  0  0  0  0
   -4.5531   -0.6222    3.9660 F   0  0  0  0  0  0  0  0  0  0  0  0
   -4.7451    1.5847    3.3219 F   0  0  0  0  0  0  0  0  0  0  0  0
   -6.9874   -1.4884    0.0062 C   0  0  0  0  0  0  0  0  0  0  0  0
   -7.8513   -1.4181   -1.2341 C   0  0  0  0  0  0  0  0  0  0  0  0
  -10.0056   -1.2236    0.3376 H   0  0  0  0  0  0  0  0  0  0  0  0
  -11.0156    0.2828    0.3494 H   0  0  0  0  0  0  0  0  0  0  0  0
  -10.7451   -0.5533   -1.2099 H   0  0  0  0  0  0  0  0  0  0  0  0
   -9.3902    1.5064   -0.7967 H   0  0  0  0  0  0  0  0  0  0  0  0
   -8.5282    0.6942    0.5188 H   0  0  0  0  0  0  0  0  0  0  0  0
   -6.9427    1.2787   -2.5729 H   0  0  0  0  0  0  0  0  0  0  0  0
   -7.0852    1.6803   -0.8419 H   0  0  0  0  0  0  0  0  0  0  0  0
   -5.3787   -0.3639   -2.2424 H   0  0  0  0  0  0  0  0  0  0  0  0
   -4.9782    0.9378   -1.0987 H   0  0  0  0  0  0  0  0  0  0  0  0
   -5.3596   -1.2873    1.7313 H   0  0  0  0  0  0  0  0  0  0  0  0
   -5.7610    0.3966    1.4141 H   0  0  0  0  0  0  0  0  0  0  0  0
   -3.3300   -0.7898   -1.0118 H   0  0  0  0  0  0  0  0  0  0  0  0
   -0.9627   -0.4277   -0.8741 H   0  0  0  0  0  0  0  0  0  0  0  0
    0.7597    0.9698    2.1611 H   0  0  0  0  0  0  0  0  0  0  0  0
    3.0013    0.6928    1.6707 H   0  0  0  0  0  0  0  0  0  0  0  0
    5.0877    1.2125    0.7209 H   0  0  0  0  0  0  0  0  0  0  0  0
    7.0847    0.3965   -0.4601 H   0  0  0  0  0  0  0  0  0  0  0  0
    9.1416   -1.7902    0.0899 H   0  0  0  0  0  0  0  0  0  0  0  0
   11.2010   -0.9471    1.2284 H   0  0  0  0  0  0  0  0  0  0  0  0
   12.6067    1.1140   -0.5277 H   0  0  0  0  0  0  0  0  0  0  0  0
   13.4237    0.0623    0.6491 H   0  0  0  0  0  0  0  0  0  0  0  0
   12.3043    1.3858    1.2464 H   0  0  0  0  0  0  0  0  0  0  0  0
    9.9776    1.4417   -3.5159 H   0  0  0  0  0  0  0  0  0  0  0  0
    5.0003   -3.0327   -1.8043 H   0  0  0  0  0  0  0  0  0  0  0  0
    3.0130   -2.2945   -0.6480 H   0  0  0  0  0  0  0  0  0  0  0  0
   -1.3081    0.7006    3.1773 H   0  0  0  0  0  0  0  0  0  0  0  0
   -7.5417   -1.0573    0.8567 H   0  0  0  0  0  0  0  0  0  0  0  0
   -6.7530   -2.5420    0.2777 H   0  0  0  0  0  0  0  0  0  0  0  0
   -7.2335   -1.7544   -2.0856 H   0  0  0  0  0  0  0  0  0  0  0  0
   -8.7522   -2.0077   -1.0717 H   0  0  0  0  0  0  0  0  0  0  0  0
  1  2  1  0
  2  3  1  0
  3  4  1  0
  4  5  1  0
  5  6  1  0
  6  7  1  0
  7  8  1  0
  8  9  2  0
  9 10  1  0
 10 11  2  0
 11 12  1  0
 12 13  1  0
 13 14  2  0
 13 15  1  0
 15 16  1  0
 16 17  2  0
 17 18  1  0
 18 19  2  0
 19 20  1  0
 20 21  1  0
 21 22  2  0
 22 23  1  0
 23 24  1  0
 24 25  1  0
 23 26  2  0
 26 27  1  0
 27 28  2  0
 19 29  1  0
 29 30  2  0
 11 31  1  0
 31 32  2  0
 32 33  1  0
 33 34  1  0
 33 35  1  0
 33 36  1  0
  6 37  1  0
 37 38  1  0
 38  3  1  0
 32  8  1  0
 30 16  1  0
 28 21  1  0
  1 39  1  0
  1 40  1  0
  1 41  1  0
  2 42  1  0
  2 43  1  0
  4 44  1  0
  4 45  1  0
  5 46  1  0
  5 47  1  0
  7 48  1  0
  7 49  1  0
  9 50  1  0
 10 51  1  0
 12 52  1  0
 15 53  1  0
 17 54  1  0
 18 55  1  0
 22 56  1  0
 24 57  1  0
 25 58  1  0
 25 59  1  0
 25 60  1  0
 27 61  1  0
 29 62  1  0
 30 63  1  0
 31 64  1  0
 37 65  1  0
 37 66  1  0
 38 67  1  0
 38 68  1  0
M  END
$$$$
[H]C1=C([H])C([H])(F)C([H])([H])C([H])=C1N([H])C(=O)C1(C(=O)N([H])c2c([H])c([H])c(Oc3c([H])c([H])nc4c([H])c(OC([H])([H])C([H])([H])C([H])([H])N5C([H])([H])C([H])([H])C([H])([H])C5([H])[H])c(OC([H])([H])[H])c([H])c34)c(F)c2[H])C([H])([H])C1([H])[H]
     RDKit          3D

 81 86  0  0  0  0  0  0  0  0999 V2000
   -3.5877    0.0230   -2.5605 C   0  0  0  0  0  0  0  0  0  0  0  0
   -4.4433   -0.0435   -1.4508 O   0  0  0  0  0  0  0  0  0  0  0  0
   -3.9880   -0.2494   -0.1491 C   0  0  0  0  0  0  0  0  0  0  0  0
   -2.6478   -0.3994    0.1096 C   0  0  0  0  0  0  0  0  0  0  0  0
   -2.1587   -0.6042    1.3755 C   0  0  0  0  0  0  0  0  0  0  0  0
   -0.7923   -0.7567    1.6112 C   0  0  0  0  0  0  0  0  0  0  0  0
    0.0250   -0.6916    0.5279 O   0  0  0  0  0  0  0  0  0  0  0  0
    1.3913   -0.8525    0.4754 C   0  0  0  0  0  0  0  0  0  0  0  0
    2.2342    0.1729    0.0692 C   0  0  0  0  0  0  0  0  0  0  0  0
    3.5918   -0.0103    0.0220 C   0  0  0  0  0  0  0  0  0  0  0  0
    4.2120   -1.2204    0.3732 C   0  0  0  0  0  0  0  0  0  0  0  0
    5.6358   -1.3113    0.3171 N   0  0  0  0  0  0  0  0  0  0  0  0
    6.4056   -2.4553    0.1478 C   0  0  0  0  0  0  0  0  0  0  0  0
    5.7718   -3.5663    0.0427 O   0  0  0  0  0  0  0  0  0  0  0  0
    7.8601   -2.5227    0.0895 C   0  0  0  0  0  0  0  0  0  0  0  0
    8.4588   -3.8753   -0.2867 C   0  0  0  0  0  0  0  0  0  0  0  0
    8.4428   -3.4847    1.1392 C   0  0  0  0  0  0  0  0  0  0  0  0
    8.7035   -1.3424   -0.2300 C   0  0  0  0  0  0  0  0  0  0  0  0
    9.9255   -1.4864    0.1717 O   0  0  0  0  0  0  0  0  0  0  0  0
    8.2626   -0.2155   -0.8859 N   0  0  0  0  0  0  0  0  0  0  0  0
    8.9663    0.9916   -1.2279 C   0  0  0  0  0  0  0  0  0  0  0  0
   10.2261    1.1961   -0.9431 C   0  0  0  0  0  0  0  0  0  0  0  0
   10.9546    2.4310   -1.2907 C   0  0  0  0  0  0  0  0  0  0  0  0
   10.1946    3.4846   -1.9837 C   0  0  0  0  0  0  0  0  0  0  0  0
   10.2335    4.6437   -1.1848 F   0  0  0  0  0  0  0  0  0  0  0  0
    8.8021    3.1813   -2.2644 C   0  0  0  0  0  0  0  0  0  0  0  0
    8.2359    2.0634   -1.9301 C   0  0  0  0  0  0  0  0  0  0  0  0
    3.3805   -2.2291    0.7736 C   0  0  0  0  0  0  0  0  0  0  0  0
    1.9865   -2.0377    0.8203 C   0  0  0  0  0  0  0  0  0  0  0  0
    1.2365   -3.0982    1.2142 F   0  0  0  0  0  0  0  0  0  0  0  0
   -0.4287   -0.9581    2.9201 C   0  0  0  0  0  0  0  0  0  0  0  0
   -1.3521   -1.0070    3.9339 C   0  0  0  0  0  0  0  0  0  0  0  0
   -2.6377   -0.8567    3.6575 N   0  0  0  0  0  0  0  0  0  0  0  0
   -3.0892   -0.6527    2.3915 C   0  0  0  0  0  0  0  0  0  0  0  0
   -4.4416   -0.5052    2.1646 C   0  0  0  0  0  0  0  0  0  0  0  0
   -4.8811   -0.3029    0.8827 C   0  0  0  0  0  0  0  0  0  0  0  0
   -6.2490   -0.1596    0.6965 O   0  0  0  0  0  0  0  0  0  0  0  0
   -7.1921   -0.2052    1.7204 C   0  0  0  0  0  0  0  0  0  0  0  0
   -8.5663   -0.0150    1.1322 C   0  0  0  0  0  0  0  0  0  0  0  0
   -8.6955    1.3020    0.4220 C   0  0  0  0  0  0  0  0  0  0  0  0
  -10.0037    1.4621   -0.1281 N   0  0  0  0  0  0  0  0  0  0  0  0
  -10.2287    2.6808   -0.8350 C   0  0  0  0  0  0  0  0  0  0  0  0
  -11.1566    2.3511   -2.0081 C   0  0  0  0  0  0  0  0  0  0  0  0
  -11.7165    1.0092   -1.5741 C   0  0  0  0  0  0  0  0  0  0  0  0
  -10.4689    0.3786   -0.9383 C   0  0  0  0  0  0  0  0  0  0  0  0
   -4.1462    0.4826   -3.4058 H   0  0  0  0  0  0  0  0  0  0  0  0
   -2.7486    0.7305   -2.3481 H   0  0  0  0  0  0  0  0  0  0  0  0
   -3.2042   -0.9751   -2.8684 H   0  0  0  0  0  0  0  0  0  0  0  0
   -1.9172   -0.3599   -0.6920 H   0  0  0  0  0  0  0  0  0  0  0  0
    1.7492    1.1006   -0.1989 H   0  0  0  0  0  0  0  0  0  0  0  0
    4.2444    0.7990   -0.2985 H   0  0  0  0  0  0  0  0  0  0  0  0
    6.1068   -0.3582    0.4880 H   0  0  0  0  0  0  0  0  0  0  0  0
    7.7266   -4.6220   -0.6534 H   0  0  0  0  0  0  0  0  0  0  0  0
    9.4183   -3.8918   -0.8472 H   0  0  0  0  0  0  0  0  0  0  0  0
    9.4104   -3.1476    1.6028 H   0  0  0  0  0  0  0  0  0  0  0  0
    7.7630   -3.9592    1.8454 H   0  0  0  0  0  0  0  0  0  0  0  0
    7.2650   -0.2466   -1.2614 H   0  0  0  0  0  0  0  0  0  0  0  0
   10.8241    0.4296   -0.4110 H   0  0  0  0  0  0  0  0  0  0  0  0
   11.8456    2.1794   -1.9484 H   0  0  0  0  0  0  0  0  0  0  0  0
   11.3908    2.8108   -0.3161 H   0  0  0  0  0  0  0  0  0  0  0  0
   10.6645    3.7949   -2.9610 H   0  0  0  0  0  0  0  0  0  0  0  0
    8.2315    3.9729   -2.7929 H   0  0  0  0  0  0  0  0  0  0  0  0
    7.1670    1.8981   -2.1758 H   0  0  0  0  0  0  0  0  0  0  0  0
    3.7856   -3.1876    1.0764 H   0  0  0  0  0  0  0  0  0  0  0  0
    0.6075   -1.0712    3.1537 H   0  0  0  0  0  0  0  0  0  0  0  0
   -1.0717   -1.1659    4.9745 H   0  0  0  0  0  0  0  0  0  0  0  0
   -5.1120   -0.5552    3.0169 H   0  0  0  0  0  0  0  0  0  0  0  0
   -7.1820   -1.2490    2.1462 H   0  0  0  0  0  0  0  0  0  0  0  0
   -6.9796    0.4646    2.5680 H   0  0  0  0  0  0  0  0  0  0  0  0
   -9.3685   -0.0413    1.9143 H   0  0  0  0  0  0  0  0  0  0  0  0
   -8.7385   -0.8568    0.4359 H   0  0  0  0  0  0  0  0  0  0  0  0
   -8.5595    2.1075    1.1881 H   0  0  0  0  0  0  0  0  0  0  0  0
   -7.8715    1.4342   -0.3151 H   0  0  0  0  0  0  0  0  0  0  0  0
  -10.7856    3.4045   -0.1999 H   0  0  0  0  0  0  0  0  0  0  0  0
   -9.3011    3.1863   -1.1756 H   0  0  0  0  0  0  0  0  0  0  0  0
  -11.9700    3.1048   -2.1030 H   0  0  0  0  0  0  0  0  0  0  0  0
  -10.5960    2.2617   -2.9622 H   0  0  0  0  0  0  0  0  0  0  0  0
  -12.4672    1.2054   -0.7918 H   0  0  0  0  0  0  0  0  0  0  0  0
  -12.0978    0.4163   -2.4102 H   0  0  0  0  0  0  0  0  0  0  0  0
  -10.7030   -0.5229   -0.3684 H   0  0  0  0  0  0  0  0  0  0  0  0
   -9.7919    0.1704   -1.8195 H   0  0  0  0  0  0  0  0  0  0  0  0
  1  2  1  0
  2  3  1  0
  3  4  2  0
  4  5  1  0
  5  6  2  0
  6  7  1  0
  7  8  1  0
  8  9  2  0
  9 10  1  0
 10 11  2  0
 11 12  1  0
 12 13  1  0
 13 14  2  0
 13 15  1  0
 15 16  1  0
 16 17  1  0
 15 18  1  0
 18 19  2  0
 18 20  1  0
 20 21  1  0
 21 22  2  0
 22 23  1  0
 23 24  1  0
 24 25  1  0
 24 26  1  0
 26 27  2  0
 11 28  1  0
 28 29  2  0
 29 30  1  0
  6 31  1  0
 31 32  2  0
 32 33  1  0
 33 34  2  0
 34 35  1  0
 35 36  2  0
 36 37  1  0
 37 38  1  0
 38 39  1  0
 39 40  1  0
 40 41  1  0
 41 42  1  0
 42 43  1  0
 43 44  1  0
 44 45  1  0
 36  3  1  0
 45 41  1  0
 34  5  1  0
 29  8  1  0
 17 15  1  0
 27 21  1  0
  1 46  1  0
  1 47  1  0
  1 48  1  0
  4 49  1  0
  9 50  1  0
 10 51  1  0
 12 52  1  0
 16 53  1  0
 16 54  1  0
 17 55  1  0
 17 56  1  0
 20 57  1  0
 22 58  1  0
 23 59  1  0
 23 60  1  0
 24 61  1  0
 26 62  1  0
 27 63  1  0
 28 64  1  0
 31 65  1  0
 32 66  1  0
 35 67  1  0
 38 68  1  0
 38 69  1  0
 39 70  1  0
 39 71  1  0
 40 72  1  0
 40 73  1  0
 42 74  1  0
 42 75  1  0
 43 76  1  0
 43 77  1  0
 44 78  1  0
 44 79  1  0
 45 80  1  0
 45 81  1  0
M  END
$$$$
[H]c1nc(N2C([H])([H])C([H])([H])c3nc(N4C([H])([H])C([H])([H])C([H])([H])C([H])([H])C4([H])[H])nc(N([H])c4nc([H])c(C(F)(F)F)c([H])c4[H])c3C([H])([H])C2([H])[H])c(C(F)(F)F)c([H])c1[H]
     RDKit          3D

 63 67  0  0  0  0  0  0  0  0999 V2000
    2.2779    7.9122    0.7391 F   0  0  0  0  0  0  0  0  0  0  0  0
    2.5542    7.0462   -0.3114 C   0  0  0  0  0  0  0  0  0  0  0  0
    3.8601    7.1367   -0.6464 F   0  0  0  0  0  0  0  0  0  0  0  0
    1.7381    7.4752   -1.3664 F   0  0  0  0  0  0  0  0  0  0  0  0
    2.0907    5.6910    0.0145 C   0  0  0  0  0  0  0  0  0  0  0  0
    2.3585    4.5944   -0.7890 C   0  0  0  0  0  0  0  0  0  0  0  0
    1.8769    3.3431   -0.4719 C   0  0  0  0  0  0  0  0  0  0  0  0
    1.1071    3.1545    0.6550 C   0  0  0  0  0  0  0  0  0  0  0  0
    0.4740    1.9642    0.9939 N   0  0  0  0  0  0  0  0  0  0  0  0
    0.6020    0.6468    0.5568 C   0  0  0  0  0  0  0  0  0  0  0  0
    1.7780    0.0880    0.2880 N   0  0  0  0  0  0  0  0  0  0  0  0
    1.9052   -1.2582    0.1050 C   0  0  0  0  0  0  0  0  0  0  0  0
    0.8428   -2.1028    0.1741 N   0  0  0  0  0  0  0  0  0  0  0  0
   -0.3607   -1.5882    0.4297 C   0  0  0  0  0  0  0  0  0  0  0  0
   -1.4420   -2.6380    0.3833 C   0  0  0  0  0  0  0  0  0  0  0  0
   -2.4079   -2.1800   -0.7082 C   0  0  0  0  0  0  0  0  0  0  0  0
   -3.1237   -1.0055   -0.3171 N   0  0  0  0  0  0  0  0  0  0  0  0
   -2.6815    0.3769   -0.3273 C   0  0  0  0  0  0  0  0  0  0  0  0
   -1.6886    0.5660    0.8612 C   0  0  0  0  0  0  0  0  0  0  0  0
   -0.4797   -0.2435    0.6237 C   0  0  0  0  0  0  0  0  0  0  0  0
   -4.4391   -1.1853    0.1715 C   0  0  0  0  0  0  0  0  0  0  0  0
   -4.5941   -1.5117    1.5133 N   0  0  0  0  0  0  0  0  0  0  0  0
   -5.7816   -1.7152    2.0713 C   0  0  0  0  0  0  0  0  0  0  0  0
   -6.8822   -1.5969    1.2557 C   0  0  0  0  0  0  0  0  0  0  0  0
   -6.7605   -1.2781   -0.0736 C   0  0  0  0  0  0  0  0  0  0  0  0
   -5.5163   -1.0572   -0.6617 C   0  0  0  0  0  0  0  0  0  0  0  0
   -5.4301   -0.6818   -2.0662 C   0  0  0  0  0  0  0  0  0  0  0  0
   -4.6893   -1.4857   -2.8730 F   0  0  0  0  0  0  0  0  0  0  0  0
   -5.1373    0.6488   -2.3215 F   0  0  0  0  0  0  0  0  0  0  0  0
   -6.7518   -0.8043   -2.6048 F   0  0  0  0  0  0  0  0  0  0  0  0
    3.1707   -1.9356   -0.0073 N   0  0  0  0  0  0  0  0  0  0  0  0
    4.2125   -1.4868    0.9160 C   0  0  0  0  0  0  0  0  0  0  0  0
    5.3517   -2.4792    0.9172 C   0  0  0  0  0  0  0  0  0  0  0  0
    5.8789   -2.6875   -0.4944 C   0  0  0  0  0  0  0  0  0  0  0  0
    4.8127   -3.1047   -1.4419 C   0  0  0  0  0  0  0  0  0  0  0  0
    3.4284   -2.9885   -0.9136 C   0  0  0  0  0  0  0  0  0  0  0  0
    0.8719    4.2571    1.4320 N   0  0  0  0  0  0  0  0  0  0  0  0
    1.3312    5.4819    1.1503 C   0  0  0  0  0  0  0  0  0  0  0  0
    2.9653    4.7641   -1.6921 H   0  0  0  0  0  0  0  0  0  0  0  0
    2.0993    2.5104   -1.1162 H   0  0  0  0  0  0  0  0  0  0  0  0
   -0.2382    2.0575    1.8268 H   0  0  0  0  0  0  0  0  0  0  0  0
   -1.0429   -3.6070    0.0823 H   0  0  0  0  0  0  0  0  0  0  0  0
   -1.8964   -2.6658    1.3696 H   0  0  0  0  0  0  0  0  0  0  0  0
   -1.7679   -1.9855   -1.6223 H   0  0  0  0  0  0  0  0  0  0  0  0
   -3.1026   -2.9661   -1.0016 H   0  0  0  0  0  0  0  0  0  0  0  0
   -2.1567    0.5996   -1.2678 H   0  0  0  0  0  0  0  0  0  0  0  0
   -3.4850    1.0713   -0.0710 H   0  0  0  0  0  0  0  0  0  0  0  0
   -1.5536    1.6372    0.8923 H   0  0  0  0  0  0  0  0  0  0  0  0
   -2.2177    0.1828    1.7437 H   0  0  0  0  0  0  0  0  0  0  0  0
   -5.8344   -1.9592    3.1039 H   0  0  0  0  0  0  0  0  0  0  0  0
   -7.8462   -1.7914    1.7293 H   0  0  0  0  0  0  0  0  0  0  0  0
   -7.6530   -1.1914   -0.6952 H   0  0  0  0  0  0  0  0  0  0  0  0
    3.7408   -1.5798    1.9555 H   0  0  0  0  0  0  0  0  0  0  0  0
    4.5111   -0.4551    0.7898 H   0  0  0  0  0  0  0  0  0  0  0  0
    5.0101   -3.4634    1.2861 H   0  0  0  0  0  0  0  0  0  0  0  0
    6.1989   -2.0501    1.5086 H   0  0  0  0  0  0  0  0  0  0  0  0
    6.6719   -3.4639   -0.4300 H   0  0  0  0  0  0  0  0  0  0  0  0
    6.3533   -1.6996   -0.7975 H   0  0  0  0  0  0  0  0  0  0  0  0
    4.9700   -4.1908   -1.7379 H   0  0  0  0  0  0  0  0  0  0  0  0
    4.8992   -2.4682   -2.3556 H   0  0  0  0  0  0  0  0  0  0  0  0
    3.1995   -3.9465   -0.3645 H   0  0  0  0  0  0  0  0  0  0  0  0
    2.6913   -3.0077   -1.7633 H   0  0  0  0  0  0  0  0  0  0  0  0
    1.1267    6.3007    1.7713 H   0  0  0  0  0  0  0  0  0  0  0  0
  1  2  1  0
  2  3  1  0
  2  4  1  0
  2  5  1  0
  5  6  2  0
  6  7  1  0
  7  8  2  0
  8  9  1  0
  9 10  1  0
 10 11  2  0
 11 12  1  0
 12 13  2  0
 13 14  1  0
 14 15  1  0
 15 16  1  0
 16 17  1  0
 17 18  1  0
 18 19  1  0
 19 20  1  0
 17 21  1  0
 21 22  2  0
 22 23  1  0
 23 24  2  0
 24 25  1  0
 25 26  2  0
 26 27  1  0
 27 28  1  0
 27 29  1  0
 27 30  1  0
 12 31  1  0
 31 32  1  0
 32 33  1  0
 33 34  1  0
 34 35  1  0
 35 36  1  0
  8 37  1  0
 37 38  2  0
 38  5  1  0
 20 10  1  0
 26 21  1  0
 36 31  1  0
 20 14  2  0
  6 39  1  0
  7 40  1  0
  9 41  1  0
 15 42  1  0
 15 43  1  0
 16 44  1  0
 16 45  1  0
 18 46  1  0
 18 47  1  0
 19 48  1  0
 19 49  1  0
 23 50  1  0
 24 51  1  0
 25 52  1  0
 32 53  1  0
 32 54  1  0
 33 55  1  0
 33 56  1  0
 34 57  1  0
 34 58  1  0
 35 59  1  0
 35 60  1  0
 36 61  1  0
 36 62  1  0
 38 63  1  0
M  END
$$$$
[H]OP(=O)(O[H])C(F)(F)c1c([H])c([H])c(-c2c([H])c([H])c(-c3c([H])c([H])c(-c4c(C([H])([H])c5c([H])c([H])c([H])c([H])c5[H])sc5c([H])c([H])c([H])c([H])c45)c([H])c3[H])c([H])c2[H])c([H])c1[H]
     RDKit          3D

 66 71  0  0  0  0  0  0  0  0999 V2000
    9.2413    1.8614    0.5787 O   0  0  0  0  0  0  0  0  0  0  0  0
    9.8191    0.2675    0.6608 P   0  0  0  0  0  0  0  0  0  0  0  0
    8.8148   -0.6685    1.6623 O   0  0  0  0  0  0  0  0  0  0  0  0
   11.2128    0.2321    1.1069 O   0  0  0  0  0  0  0  0  0  0  0  0
    9.6255   -0.4417   -1.0449 C   0  0  0  0  0  0  0  0  0  0  0  0
   10.1142   -1.6949   -1.1215 F   0  0  0  0  0  0  0  0  0  0  0  0
   10.1072    0.4752   -1.9146 F   0  0  0  0  0  0  0  0  0  0  0  0
    8.1058   -0.5286   -1.1322 C   0  0  0  0  0  0  0  0  0  0  0  0
    7.5076   -1.6043   -0.5436 C   0  0  0  0  0  0  0  0  0  0  0  0
    6.1061   -1.5576   -0.4361 C   0  0  0  0  0  0  0  0  0  0  0  0
    5.4090   -0.4704   -0.9090 C   0  0  0  0  0  0  0  0  0  0  0  0
    6.0621    0.5877   -1.5044 C   0  0  0  0  0  0  0  0  0  0  0  0
    7.4521    0.5424   -1.6142 C   0  0  0  0  0  0  0  0  0  0  0  0
    3.9736   -0.3890   -0.6970 C   0  0  0  0  0  0  0  0  0  0  0  0
    3.1742    0.3198   -1.5285 C   0  0  0  0  0  0  0  0  0  0  0  0
    1.8279    0.3816   -1.2543 C   0  0  0  0  0  0  0  0  0  0  0  0
    1.3177   -0.2774   -0.1630 C   0  0  0  0  0  0  0  0  0  0  0  0
    2.1096   -1.0035    0.6842 C   0  0  0  0  0  0  0  0  0  0  0  0
    3.4407   -1.0452    0.4022 C   0  0  0  0  0  0  0  0  0  0  0  0
   -0.0931   -0.1421    0.1205 C   0  0  0  0  0  0  0  0  0  0  0  0
   -0.7215   -1.2535    0.6750 C   0  0  0  0  0  0  0  0  0  0  0  0
   -2.0775   -1.1090    0.9843 C   0  0  0  0  0  0  0  0  0  0  0  0
   -2.7602    0.0657    0.7580 C   0  0  0  0  0  0  0  0  0  0  0  0
   -2.1058    1.1187    0.2245 C   0  0  0  0  0  0  0  0  0  0  0  0
   -0.7585    1.0418   -0.1087 C   0  0  0  0  0  0  0  0  0  0  0  0
   -4.1927    0.0908    1.1041 C   0  0  0  0  0  0  0  0  0  0  0  0
   -5.0823   -0.2966    0.1668 C   0  0  0  0  0  0  0  0  0  0  0  0
   -4.8732   -0.8410   -1.2446 C   0  0  0  0  0  0  0  0  0  0  0  0
   -6.1229   -0.4354   -2.0009 C   0  0  0  0  0  0  0  0  0  0  0  0
   -6.1420    0.6776   -2.7798 C   0  0  0  0  0  0  0  0  0  0  0  0
   -7.3395    1.0973   -3.3844 C   0  0  0  0  0  0  0  0  0  0  0  0
   -8.5060    0.4020   -3.2033 C   0  0  0  0  0  0  0  0  0  0  0  0
   -8.4408   -0.7277   -2.4021 C   0  0  0  0  0  0  0  0  0  0  0  0
   -7.2760   -1.1512   -1.8053 C   0  0  0  0  0  0  0  0  0  0  0  0
   -6.5983   -0.0250    0.9094 S   0  0  0  0  0  0  0  0  0  0  0  0
   -6.0462    0.5834    2.4058 C   0  0  0  0  0  0  0  0  0  0  0  0
   -6.7221    1.0044    3.5516 C   0  0  0  0  0  0  0  0  0  0  0  0
   -5.9833    1.4278    4.6727 C   0  0  0  0  0  0  0  0  0  0  0  0
   -4.6458    1.3709    4.5205 C   0  0  0  0  0  0  0  0  0  0  0  0
   -3.9556    0.9801    3.4299 C   0  0  0  0  0  0  0  0  0  0  0  0
   -4.6782    0.5468    2.2712 C   0  0  0  0  0  0  0  0  0  0  0  0
    8.2535    1.8767    0.7263 H   0  0  0  0  0  0  0  0  0  0  0  0
    8.1223   -0.1201    2.1133 H   0  0  0  0  0  0  0  0  0  0  0  0
    8.0208   -2.4573   -0.1637 H   0  0  0  0  0  0  0  0  0  0  0  0
    5.6107   -2.3958    0.0287 H   0  0  0  0  0  0  0  0  0  0  0  0
    5.5504    1.4380   -1.8888 H   0  0  0  0  0  0  0  0  0  0  0  0
    7.9943    1.3686   -2.0935 H   0  0  0  0  0  0  0  0  0  0  0  0
    3.5331    0.8500   -2.3784 H   0  0  0  0  0  0  0  0  0  0  0  0
    1.1840    0.9667   -1.9225 H   0  0  0  0  0  0  0  0  0  0  0  0
    1.6274   -1.4943    1.5241 H   0  0  0  0  0  0  0  0  0  0  0  0
    4.0986   -1.5987    1.0504 H   0  0  0  0  0  0  0  0  0  0  0  0
   -0.2572   -2.1900    0.8795 H   0  0  0  0  0  0  0  0  0  0  0  0
   -2.5778   -1.9787    1.4202 H   0  0  0  0  0  0  0  0  0  0  0  0
   -2.6601    2.0301    0.0674 H   0  0  0  0  0  0  0  0  0  0  0  0
   -0.1980    1.8861   -0.5221 H   0  0  0  0  0  0  0  0  0  0  0  0
   -4.8380   -1.9368   -1.1899 H   0  0  0  0  0  0  0  0  0  0  0  0
   -4.0015   -0.3378   -1.6489 H   0  0  0  0  0  0  0  0  0  0  0  0
   -5.2209    1.2472   -2.9323 H   0  0  0  0  0  0  0  0  0  0  0  0
   -7.3591    1.9924   -4.0155 H   0  0  0  0  0  0  0  0  0  0  0  0
   -9.4344    0.7375   -3.6714 H   0  0  0  0  0  0  0  0  0  0  0  0
   -9.3874   -1.2722   -2.2821 H   0  0  0  0  0  0  0  0  0  0  0  0
   -7.2544   -2.0423   -1.1768 H   0  0  0  0  0  0  0  0  0  0  0  0
   -7.7811    1.0039    3.6007 H   0  0  0  0  0  0  0  0  0  0  0  0
   -6.4552    1.7487    5.5583 H   0  0  0  0  0  0  0  0  0  0  0  0
   -3.9936    1.7015    5.3944 H   0  0  0  0  0  0  0  0  0  0  0  0
   -2.8760    1.0109    3.4257 H   0  0  0  0  0  0  0  0  0  0  0  0
  1  2  1  0
  2  3  1  0
  2  4  2  0
  2  5  1  0
  5  6  1  0
  5  7  1  0
  5  8  1  0
  8  9  2  0
  9 10  1  0
 10 11  2  0
 11 12  1  0
 12 13  2  0
 11 14  1  0
 14 15  2  0
 15 16  1  0
 16 17  2  0
 17 18  1  0
 18 19  2  0
 17 20  1  0
 20 21  2  0
 21 22  1  0
 22 23  2  0
 23 24  1  0
 24 25  2  0
 23 26  1  0
 26 27  2  0
 27 28  1  0
 28 29  1  0
 29 30  2  0
 30 31  1  0
 31 32  2  0
 32 33  1  0
 33 34  2  0
 27 35  1  0
 35 36  1  0
 36 37  2  0
 37 38  1  0
 38 39  2  0
 39 40  1  0
 40 41  2  0
 13  8  1  0
 19 14  1  0
 25 20  1  0
 41 26  1  0
 34 29  1  0
 41 36  1  0
  1 42  1  0
  3 43  1  0
  9 44  1  0
 10 45  1  0
 12 46  1  0
 13 47  1  0
 15 48  1  0
 16 49  1  0
 18 50  1  0
 19 51  1  0
 21 52  1  0
 22 53  1  0
 24 54  1  0
 25 55  1  0
 28 56  1  0
 28 57  1  0
 30 58  1  0
 31 59  1  0
 32 60  1  0
 33 61  1  0
 34 62  1  0
 37 63  1  0
 38 64  1  0
 39 65  1  0
 40 66  1  0
M  END
$$$$
[H]OC(=O)[C@@]([H])(N([H])C(=O)[C@@]([H])(N([H])C(=O)[C@@]([H])(N([H])C(=O)OC([H])([H])c1c([H])c([H])c([H])c([H])c1[H])C([H])([H])C([H])(C([H])([H])[H])C([H])([H])[H])C([H])([H])C([H])(C([H])([H])[H])C([H])([H])[H])C([H])([H])C([H])(C([H])([H])[H])C([H])([H])[H]
     RDKit          3D

 76 76  0  0  0  0  0  0  0  0999 V2000
   -5.0472    2.1480    3.6394 C   0  0  0  0  0  0  0  0  0  0  0  0
   -5.6737    2.2687    2.2658 C   0  0  0  0  0  0  0  0  0  0  0  0
   -7.1397    2.1489    2.3543 C   0  0  0  0  0  0  0  0  0  0  0  0
   -4.9474    1.5531    1.2081 C   0  0  0  0  0  0  0  0  0  0  0  0
   -4.7149    0.0949    1.3067 C   0  0  2  0  0  0  0  0  0  0  0  0
   -3.9516   -0.2473    0.0622 N   0  0  0  0  0  0  0  0  0  0  0  0
   -2.6342   -0.7265    0.1759 C   0  0  0  0  0  0  0  0  0  0  0  0
   -2.1528   -0.8359    1.3758 O   0  0  0  0  0  0  0  0  0  0  0  0
   -1.7377   -1.1146   -0.9118 C   0  0  2  0  0  0  0  0  0  0  0  0
   -2.1328   -2.2870   -1.7341 C   0  0  0  0  0  0  0  0  0  0  0  0
   -3.3900   -2.2422   -2.5019 C   0  0  0  0  0  0  0  0  0  0  0  0
   -3.4530   -1.1400   -3.5404 C   0  0  0  0  0  0  0  0  0  0  0  0
   -3.5533   -3.5739   -3.2655 C   0  0  0  0  0  0  0  0  0  0  0  0
   -0.4165   -1.3522   -0.3101 N   0  0  0  0  0  0  0  0  0  0  0  0
    0.6943   -0.5165   -0.4890 C   0  0  0  0  0  0  0  0  0  0  0  0
    0.6025    0.5088   -1.1957 O   0  0  0  0  0  0  0  0  0  0  0  0
    2.0000   -0.8199    0.1495 C   0  0  2  0  0  0  0  0  0  0  0  0
    1.7845   -0.9926    1.6382 C   0  0  0  0  0  0  0  0  0  0  0  0
    3.0639   -1.3070    2.3622 C   0  0  0  0  0  0  0  0  0  0  0  0
    2.7477   -1.4615    3.8407 C   0  0  0  0  0  0  0  0  0  0  0  0
    3.6178   -2.6149    1.8137 C   0  0  0  0  0  0  0  0  0  0  0  0
    2.9901    0.1749   -0.1195 N   0  0  0  0  0  0  0  0  0  0  0  0
    4.1584   -0.0110   -0.9134 C   0  0  0  0  0  0  0  0  0  0  0  0
    4.4276   -1.1096   -1.4686 O   0  0  0  0  0  0  0  0  0  0  0  0
    5.0656    1.0170   -1.1171 O   0  0  0  0  0  0  0  0  0  0  0  0
    6.2187    0.8166   -1.9119 C   0  0  0  0  0  0  0  0  0  0  0  0
    7.0461    2.0429   -1.9874 C   0  0  0  0  0  0  0  0  0  0  0  0
    8.0410    2.1314   -2.9340 C   0  0  0  0  0  0  0  0  0  0  0  0
    8.8018    3.2677   -2.9901 C   0  0  0  0  0  0  0  0  0  0  0  0
    8.6029    4.3234   -2.1314 C   0  0  0  0  0  0  0  0  0  0  0  0
    7.6116    4.2111   -1.2035 C   0  0  0  0  0  0  0  0  0  0  0  0
    6.8267    3.0712   -1.1252 C   0  0  0  0  0  0  0  0  0  0  0  0
   -5.8789   -0.7912    1.2790 C   0  0  0  0  0  0  0  0  0  0  0  0
   -6.7836   -0.8737    2.3167 O   0  0  0  0  0  0  0  0  0  0  0  0
   -6.1190   -1.5437    0.2871 O   0  0  0  0  0  0  0  0  0  0  0  0
   -5.3563    3.0321    4.2287 H   0  0  0  0  0  0  0  0  0  0  0  0
   -5.4358    1.2621    4.2018 H   0  0  0  0  0  0  0  0  0  0  0  0
   -3.9435    2.1540    3.5979 H   0  0  0  0  0  0  0  0  0  0  0  0
   -5.4844    3.3914    2.0157 H   0  0  0  0  0  0  0  0  0  0  0  0
   -7.5168    1.6904    3.3027 H   0  0  0  0  0  0  0  0  0  0  0  0
   -7.6358    1.7150    1.4422 H   0  0  0  0  0  0  0  0  0  0  0  0
   -7.5884    3.1914    2.3977 H   0  0  0  0  0  0  0  0  0  0  0  0
   -5.4378    1.7362    0.2136 H   0  0  0  0  0  0  0  0  0  0  0  0
   -3.9357    2.0378    1.0963 H   0  0  0  0  0  0  0  0  0  0  0  0
   -4.0357   -0.1747    2.1569 H   0  0  0  0  0  0  0  0  0  0  0  0
   -4.4298   -0.1002   -0.8404 H   0  0  0  0  0  0  0  0  0  0  0  0
   -1.5824   -0.2278   -1.5900 H   0  0  0  0  0  0  0  0  0  0  0  0
   -1.2849   -2.4500   -2.4712 H   0  0  0  0  0  0  0  0  0  0  0  0
   -2.1380   -3.2415   -1.1440 H   0  0  0  0  0  0  0  0  0  0  0  0
   -4.2811   -2.1767   -1.8557 H   0  0  0  0  0  0  0  0  0  0  0  0
   -3.2298   -1.5603   -4.5402 H   0  0  0  0  0  0  0  0  0  0  0  0
   -4.4712   -0.6946   -3.5748 H   0  0  0  0  0  0  0  0  0  0  0  0
   -2.7108   -0.3383   -3.3702 H   0  0  0  0  0  0  0  0  0  0  0  0
   -2.5937   -3.9293   -3.6456 H   0  0  0  0  0  0  0  0  0  0  0  0
   -3.9839   -4.3040   -2.5230 H   0  0  0  0  0  0  0  0  0  0  0  0
   -4.2467   -3.3789   -4.0953 H   0  0  0  0  0  0  0  0  0  0  0  0
   -0.3326   -2.1990    0.2790 H   0  0  0  0  0  0  0  0  0  0  0  0
    2.3201   -1.7968   -0.3172 H   0  0  0  0  0  0  0  0  0  0  0  0
    1.2564   -0.1522    2.0872 H   0  0  0  0  0  0  0  0  0  0  0  0
    1.1033   -1.8827    1.7748 H   0  0  0  0  0  0  0  0  0  0  0  0
    3.7956   -0.4854    2.2338 H   0  0  0  0  0  0  0  0  0  0  0  0
    1.8400   -2.0718    3.9943 H   0  0  0  0  0  0  0  0  0  0  0  0
    2.6153   -0.4797    4.3322 H   0  0  0  0  0  0  0  0  0  0  0  0
    3.6174   -1.9533    4.3596 H   0  0  0  0  0  0  0  0  0  0  0  0
    4.4545   -2.4094    1.1270 H   0  0  0  0  0  0  0  0  0  0  0  0
    2.8016   -3.1803    1.3021 H   0  0  0  0  0  0  0  0  0  0  0  0
    3.9192   -3.2339    2.6877 H   0  0  0  0  0  0  0  0  0  0  0  0
    2.8495    1.1325    0.3043 H   0  0  0  0  0  0  0  0  0  0  0  0
    6.8409    0.0452   -1.3806 H   0  0  0  0  0  0  0  0  0  0  0  0
    5.9939    0.4033   -2.9125 H   0  0  0  0  0  0  0  0  0  0  0  0
    8.2213    1.3269   -3.6184 H   0  0  0  0  0  0  0  0  0  0  0  0
    9.6017    3.3865   -3.7225 H   0  0  0  0  0  0  0  0  0  0  0  0
    9.2058    5.2389   -2.1684 H   0  0  0  0  0  0  0  0  0  0  0  0
    7.4146    5.0205   -0.5000 H   0  0  0  0  0  0  0  0  0  0  0  0
    6.0612    3.0420   -0.3727 H   0  0  0  0  0  0  0  0  0  0  0  0
   -6.8324   -1.6031    2.9979 H   0  0  0  0  0  0  0  0  0  0  0  0
  1  2  1  0
  2  3  1  0
  2  4  1  0
  4  5  1  0
  5  6  1  0
  6  7  1  0
  7  8  2  0
  7  9  1  0
  9 10  1  0
 10 11  1  0
 11 12  1  0
 11 13  1  0
  9 14  1  0
 14 15  1  0
 15 16  2  0
 15 17  1  0
 17 18  1  0
 18 19  1  0
 19 20  1  0
 19 21  1  0
 17 22  1  0
 22 23  1  0
 23 24  2  0
 23 25  1  0
 25 26  1  0
 26 27  1  0
 27 28  2  0
 28 29  1  0
 29 30  2  0
 30 31  1  0
 31 32  2  0
  5 33  1  0
 33 34  1  0
 33 35  2  0
 32 27  1  0
  1 36  1  0
  1 37  1  0
  1 38  1  0
  2 39  1  0
  3 40  1  0
  3 41  1  0
  3 42  1  0
  4 43  1  0
  4 44  1  0
  5 45  1  1
  6 46  1  0
  9 47  1  6
 10 48  1  0
 10 49  1  0
 11 50  1  0
 12 51  1  0
 12 52  1  0
 12 53  1  0
 13 54  1  0
 13 55  1  0
 13 56  1  0
 14 57  1  0
 17 58  1  6
 18 59  1  0
 18 60  1  0
 19 61  1  0
 20 62  1  0
 20 63  1  0
 20 64  1  0
 21 65  1  0
 21 66  1  0
 21 67  1  0
 22 68  1  0
 26 69  1  0
 26 70  1  0
 28 71  1  0
 29 72  1  0
 30 73  1  0
 31 74  1  0
 32 75  1  0
 34 76  1  0
M  END
$$$$
[H]O[C@@]([H])(C([H])([H])[H])[C@]([H])(c1nnc(-c2c([H])c([H])c(C#N)c([H])c2[H])o1)N([H])c1c([H])c([H])c([N+]#[C-])c(Cl)c1C([H])([H])[H]
     RDKit          3D

 44 46  0  0  0  0  0  0  0  0999 V2000
   -1.5064   -2.5025    1.4965 C   0  0  0  0  0  0  0  0  0  0  0  0
   -0.4389   -1.6105    0.9945 C   0  0  2  0  0  0  0  0  0  0  0  0
    0.1226   -0.9268    2.0826 O   0  0  0  0  0  0  0  0  0  0  0  0
   -0.7432   -0.7148   -0.1477 C   0  0  1  0  0  0  0  0  0  0  0  0
   -1.6587    0.3461    0.0763 N   0  0  0  0  0  0  0  0  0  0  0  0
   -3.0496    0.3499    0.0855 C   0  0  0  0  0  0  0  0  0  0  0  0
   -3.7704   -0.7217   -0.3613 C   0  0  0  0  0  0  0  0  0  0  0  0
   -5.1675   -0.7279   -0.3949 C   0  0  0  0  0  0  0  0  0  0  0  0
   -5.8649    0.3654    0.0279 C   0  0  0  0  0  0  0  0  0  0  0  0
   -7.2424    0.4020    0.0119 N   0  0  0  0  0  0  0  0  0  0  0  0
   -8.4090    0.4198   -0.0161 C   0  0  0  0  0  0  0  0  0  0  0  0
   -5.1602    1.4475    0.4775 C   0  0  0  0  0  0  0  0  0  0  0  0
   -6.0725    2.8661    1.0254 Cl  0  0  0  0  0  0  0  0  0  0  0  0
   -3.7779    1.4621    0.5147 C   0  0  0  0  0  0  0  0  0  0  0  0
   -3.1071    2.6677    1.0134 C   0  0  0  0  0  0  0  0  0  0  0  0
    0.5739   -0.1733   -0.6407 C   0  0  0  0  0  0  0  0  0  0  0  0
    0.7131    0.7694   -1.5933 N   0  0  0  0  0  0  0  0  0  0  0  0
    1.9791    1.0220   -1.7947 N   0  0  0  0  0  0  0  0  0  0  0  0
    2.6544    0.2045   -0.9338 C   0  0  0  0  0  0  0  0  0  0  0  0
    1.7774   -0.4789   -0.2772 O   0  0  0  0  0  0  0  0  0  0  0  0
    4.1128    0.1945   -0.8597 C   0  0  0  0  0  0  0  0  0  0  0  0
    4.7600   -0.6444    0.0219 C   0  0  0  0  0  0  0  0  0  0  0  0
    6.1525   -0.6699    0.1090 C   0  0  0  0  0  0  0  0  0  0  0  0
    6.9302    0.1454   -0.6860 C   0  0  0  0  0  0  0  0  0  0  0  0
    6.2843    0.9851   -1.5683 C   0  0  0  0  0  0  0  0  0  0  0  0
    4.9070    1.0007   -1.6447 C   0  0  0  0  0  0  0  0  0  0  0  0
    8.3775    0.1181   -0.5946 C   0  0  0  0  0  0  0  0  0  0  0  0
    9.5282    0.0969   -0.5029 N   0  0  0  0  0  0  0  0  0  0  0  0
   -1.0656   -3.2680    2.1713 H   0  0  0  0  0  0  0  0  0  0  0  0
   -2.2873   -1.9881    2.1114 H   0  0  0  0  0  0  0  0  0  0  0  0
   -1.9450   -3.0767    0.6518 H   0  0  0  0  0  0  0  0  0  0  0  0
    0.4008   -2.2869    0.6428 H   0  0  0  0  0  0  0  0  0  0  0  0
   -0.1023   -1.3984    2.9195 H   0  0  0  0  0  0  0  0  0  0  0  0
   -1.0763   -1.3877   -0.9969 H   0  0  0  0  0  0  0  0  0  0  0  0
   -1.1941    1.3023    0.2715 H   0  0  0  0  0  0  0  0  0  0  0  0
   -3.3305   -1.6456   -0.7469 H   0  0  0  0  0  0  0  0  0  0  0  0
   -5.7287   -1.5910   -0.7535 H   0  0  0  0  0  0  0  0  0  0  0  0
   -2.2853    3.0176    0.3577 H   0  0  0  0  0  0  0  0  0  0  0  0
   -3.8576    3.4690    1.1475 H   0  0  0  0  0  0  0  0  0  0  0  0
   -2.6180    2.4914    2.0162 H   0  0  0  0  0  0  0  0  0  0  0  0
    4.1822   -1.2914    0.6545 H   0  0  0  0  0  0  0  0  0  0  0  0
    6.6727   -1.3297    0.8028 H   0  0  0  0  0  0  0  0  0  0  0  0
    6.9005    1.6203   -2.1872 H   0  0  0  0  0  0  0  0  0  0  0  0
    4.4301    1.6703   -2.3466 H   0  0  0  0  0  0  0  0  0  0  0  0
  1  2  1  0
  2  3  1  0
  2  4  1  0
  4  5  1  0
  5  6  1  0
  6  7  2  0
  7  8  1  0
  8  9  2  0
  9 10  1  0
 10 11  3  0
  9 12  1  0
 12 13  1  0
 12 14  2  0
 14 15  1  0
  4 16  1  0
 16 17  2  0
 17 18  1  0
 18 19  2  0
 19 20  1  0
 19 21  1  0
 21 22  2  0
 22 23  1  0
 23 24  2  0
 24 25  1  0
 25 26  2  0
 24 27  1  0
 27 28  3  0
 14  6  1  0
 20 16  1  0
 26 21  1  0
  1 29  1  0
  1 30  1  0
  1 31  1  0
  2 32  1  6
  3 33  1  0
  4 34  1  6
  5 35  1  0
  7 36  1  0
  8 37  1  0
 15 38  1  0
 15 39  1  0
 15 40  1  0
 22 41  1  0
 23 42  1  0
 25 43  1  0
 26 44  1  0
M  CHG  2  10   1  11  -1
M  END
$$$$
[H]ON([H])C(=O)C([H])([H])[C@]([H])(C(=O)N([H])[C@]([H])(C(=O)N([H])C([H])([H])c1nc([H])c([H])c([H])c1[H])C([H])([H])c1c([H])n([H])c2c([H])c([H])c([H])c([H])c12)C([H])([H])C([H])(C([H])([H])[H])C([H])([H])[H]
     RDKit          3D

 65 67  0  0  0  0  0  0  0  0999 V2000
   -3.4193    2.6306   -2.2580 C   0  0  0  0  0  0  0  0  0  0  0  0
   -2.7931    1.2530   -2.2230 C   0  0  0  0  0  0  0  0  0  0  0  0
   -3.3533    0.4420   -3.3397 C   0  0  0  0  0  0  0  0  0  0  0  0
   -3.0334    0.6480   -0.8605 C   0  0  0  0  0  0  0  0  0  0  0  0
   -2.4528   -0.7203   -0.7194 C   0  0  2  0  0  0  0  0  0  0  0  0
   -2.6868   -1.3356    0.6295 C   0  0  0  0  0  0  0  0  0  0  0  0
   -4.0786   -1.5297    1.0188 C   0  0  0  0  0  0  0  0  0  0  0  0
   -5.0339   -1.2660    0.2372 O   0  0  0  0  0  0  0  0  0  0  0  0
   -4.3827   -2.0311    2.3175 N   0  0  0  0  0  0  0  0  0  0  0  0
   -5.6665   -2.2102    2.6783 O   0  0  0  0  0  0  0  0  0  0  0  0
   -1.0054   -0.7139   -1.0572 C   0  0  0  0  0  0  0  0  0  0  0  0
   -0.6014   -1.3010   -2.0780 O   0  0  0  0  0  0  0  0  0  0  0  0
   -0.0278   -0.0545   -0.2547 N   0  0  0  0  0  0  0  0  0  0  0  0
    1.3723   -0.0564   -0.5912 C   0  0  1  0  0  0  0  0  0  0  0  0
    2.0109    1.2485   -0.8492 C   0  0  0  0  0  0  0  0  0  0  0  0
    2.0243    2.2431    0.2040 C   0  0  0  0  0  0  0  0  0  0  0  0
    3.0634    2.4670    1.0961 C   0  0  0  0  0  0  0  0  0  0  0  0
    2.7325    3.4365    1.9527 N   0  0  0  0  0  0  0  0  0  0  0  0
    1.5049    3.8595    1.6513 C   0  0  0  0  0  0  0  0  0  0  0  0
    0.7626    4.8538    2.2623 C   0  0  0  0  0  0  0  0  0  0  0  0
   -0.4984    5.1533    1.7860 C   0  0  0  0  0  0  0  0  0  0  0  0
   -0.9713    4.4364    0.7032 C   0  0  0  0  0  0  0  0  0  0  0  0
   -0.2173    3.4494    0.1079 C   0  0  0  0  0  0  0  0  0  0  0  0
    1.0420    3.1280    0.5610 C   0  0  0  0  0  0  0  0  0  0  0  0
    2.1462   -0.9259    0.3443 C   0  0  0  0  0  0  0  0  0  0  0  0
    1.5842   -1.5240    1.2946 O   0  0  0  0  0  0  0  0  0  0  0  0
    3.5305   -1.0777    0.1547 N   0  0  0  0  0  0  0  0  0  0  0  0
    4.3021   -1.9228    1.0521 C   0  0  0  0  0  0  0  0  0  0  0  0
    4.0583   -3.3545    0.7016 C   0  0  0  0  0  0  0  0  0  0  0  0
    3.4320   -3.6522   -0.4893 C   0  0  0  0  0  0  0  0  0  0  0  0
    3.1904   -4.9659   -0.8361 C   0  0  0  0  0  0  0  0  0  0  0  0
    3.5721   -5.9864    0.0022 C   0  0  0  0  0  0  0  0  0  0  0  0
    4.1997   -5.6326    1.1905 C   0  0  0  0  0  0  0  0  0  0  0  0
    4.4316   -4.3639    1.5225 N   0  0  0  0  0  0  0  0  0  0  0  0
   -3.3668    3.0940   -1.2595 H   0  0  0  0  0  0  0  0  0  0  0  0
   -4.5097    2.5066   -2.4897 H   0  0  0  0  0  0  0  0  0  0  0  0
   -2.9536    3.2739   -3.0537 H   0  0  0  0  0  0  0  0  0  0  0  0
   -1.6978    1.3923   -2.3854 H   0  0  0  0  0  0  0  0  0  0  0  0
   -2.5239   -0.0560   -3.9126 H   0  0  0  0  0  0  0  0  0  0  0  0
   -4.1257   -0.2840   -3.0096 H   0  0  0  0  0  0  0  0  0  0  0  0
   -3.8332    1.1209   -4.0726 H   0  0  0  0  0  0  0  0  0  0  0  0
   -4.0885    0.7654   -0.6436 H   0  0  0  0  0  0  0  0  0  0  0  0
   -2.4975    1.3041   -0.1209 H   0  0  0  0  0  0  0  0  0  0  0  0
   -2.9536   -1.3908   -1.4501 H   0  0  0  0  0  0  0  0  0  0  0  0
   -2.1593   -2.3071    0.7468 H   0  0  0  0  0  0  0  0  0  0  0  0
   -2.2190   -0.6534    1.3747 H   0  0  0  0  0  0  0  0  0  0  0  0
   -3.6416   -2.2663    3.0057 H   0  0  0  0  0  0  0  0  0  0  0  0
   -5.7527   -2.6798    3.5232 H   0  0  0  0  0  0  0  0  0  0  0  0
   -0.3763    0.4210    0.5994 H   0  0  0  0  0  0  0  0  0  0  0  0
    1.4396   -0.6276   -1.5755 H   0  0  0  0  0  0  0  0  0  0  0  0
    3.0481    1.0276   -1.2513 H   0  0  0  0  0  0  0  0  0  0  0  0
    1.5028    1.6580   -1.7914 H   0  0  0  0  0  0  0  0  0  0  0  0
    3.9926    1.9474    1.1041 H   0  0  0  0  0  0  0  0  0  0  0  0
    3.3384    3.7915    2.7198 H   0  0  0  0  0  0  0  0  0  0  0  0
    1.1541    5.4053    3.1122 H   0  0  0  0  0  0  0  0  0  0  0  0
   -1.0789    5.9319    2.2657 H   0  0  0  0  0  0  0  0  0  0  0  0
   -1.9747    4.6594    0.3069 H   0  0  0  0  0  0  0  0  0  0  0  0
   -0.5665    2.8798   -0.7443 H   0  0  0  0  0  0  0  0  0  0  0  0
    4.0191   -0.5967   -0.6223 H   0  0  0  0  0  0  0  0  0  0  0  0
    5.3934   -1.7473    0.9313 H   0  0  0  0  0  0  0  0  0  0  0  0
    3.9568   -1.6818    2.0795 H   0  0  0  0  0  0  0  0  0  0  0  0
    3.1103   -2.8685   -1.1945 H   0  0  0  0  0  0  0  0  0  0  0  0
    2.6949   -5.2047   -1.7786 H   0  0  0  0  0  0  0  0  0  0  0  0
    3.4063   -7.0282   -0.2224 H   0  0  0  0  0  0  0  0  0  0  0  0
    4.5248   -6.4115    1.8961 H   0  0  0  0  0  0  0  0  0  0  0  0
  1  2  1  0
  2  3  1  0
  2  4  1  0
  4  5  1  0
  5  6  1  0
  6  7  1  0
  7  8  2  0
  7  9  1  0
  9 10  1  0
  5 11  1  0
 11 12  2  0
 11 13  1  0
 13 14  1  0
 14 15  1  0
 15 16  1  0
 16 17  2  0
 17 18  1  0
 18 19  1  0
 19 20  2  0
 20 21  1  0
 21 22  2  0
 22 23  1  0
 23 24  2  0
 14 25  1  0
 25 26  2  0
 25 27  1  0
 27 28  1  0
 28 29  1  0
 29 30  2  0
 30 31  1  0
 31 32  2  0
 32 33  1  0
 33 34  2  0
 24 16  1  0
 34 29  1  0
 24 19  1  0
  1 35  1  0
  1 36  1  0
  1 37  1  0
  2 38  1  0
  3 39  1  0
  3 40  1  0
  3 41  1  0
  4 42  1  0
  4 43  1  0
  5 44  1  6
  6 45  1  0
  6 46  1  0
  9 47  1  0
 10 48  1  0
 13 49  1  0
 14 50  1  6
 15 51  1  0
 15 52  1  0
 17 53  1  0
 18 54  1  0
 20 55  1  0
 21 56  1  0
 22 57  1  0
 23 58  1  0
 27 59  1  0
 28 60  1  0
 28 61  1  0
 30 62  1  0
 31 63  1  0
 32 64  1  0
 33 65  1  0
M  END
$$$$
[H]OC(=O)[C@@]1([H])N(C(=O)[C@@]([H])(N([H])C(=O)[C@@]([H])(N([H])[H])C([H])([H])c2c([H])c([H])c(O[H])c([H])c2[H])C([H])([H])c2c([H])n([H])c3c([H])c([H])c([H])c([H])c23)C([H])([H])C([H])([H])C1([H])[H]
     RDKit          3D

 62 65  0  0  0  0  0  0  0  0999 V2000
    2.4785    0.0761   -1.0089 N   0  0  0  0  0  0  0  0  0  0  0  0
    1.7111    0.9511   -1.8383 C   0  0  1  0  0  0  0  0  0  0  0  0
    1.8035    0.6861   -3.3079 C   0  0  0  0  0  0  0  0  0  0  0  0
    3.2079    0.8046   -3.7987 C   0  0  0  0  0  0  0  0  0  0  0  0
    3.9774   -0.3282   -3.8140 C   0  0  0  0  0  0  0  0  0  0  0  0
    5.2919   -0.2701   -4.2445 C   0  0  0  0  0  0  0  0  0  0  0  0
    5.8376    0.9334   -4.6634 C   0  0  0  0  0  0  0  0  0  0  0  0
    7.1658    1.0249   -5.1044 O   0  0  0  0  0  0  0  0  0  0  0  0
    5.0491    2.0665   -4.6435 C   0  0  0  0  0  0  0  0  0  0  0  0
    3.7353    1.9943   -4.2102 C   0  0  0  0  0  0  0  0  0  0  0  0
    0.2632    0.9384   -1.4638 C   0  0  0  0  0  0  0  0  0  0  0  0
   -0.5214    1.5444   -2.2320 O   0  0  0  0  0  0  0  0  0  0  0  0
   -0.1821    0.2700   -0.2964 N   0  0  0  0  0  0  0  0  0  0  0  0
   -1.5539    0.2216    0.0980 C   0  0  1  0  0  0  0  0  0  0  0  0
   -2.1067   -1.1067    0.4067 C   0  0  0  0  0  0  0  0  0  0  0  0
   -1.4860   -1.9008    1.4614 C   0  0  0  0  0  0  0  0  0  0  0  0
   -1.8048   -1.9039    2.7968 C   0  0  0  0  0  0  0  0  0  0  0  0
   -0.9445   -2.7449    3.3957 N   0  0  0  0  0  0  0  0  0  0  0  0
   -0.0886   -3.2848    2.5167 C   0  0  0  0  0  0  0  0  0  0  0  0
    0.9391   -4.1997    2.6606 C   0  0  0  0  0  0  0  0  0  0  0  0
    1.6687   -4.6206    1.5812 C   0  0  0  0  0  0  0  0  0  0  0  0
    1.3724   -4.1227    0.3261 C   0  0  0  0  0  0  0  0  0  0  0  0
    0.3339   -3.2015    0.1990 C   0  0  0  0  0  0  0  0  0  0  0  0
   -0.4124   -2.7668    1.2941 C   0  0  0  0  0  0  0  0  0  0  0  0
   -1.8361    1.2225    1.1451 C   0  0  0  0  0  0  0  0  0  0  0  0
   -0.8293    1.9244    1.5319 O   0  0  0  0  0  0  0  0  0  0  0  0
   -3.0794    1.5083    1.7633 N   0  0  0  0  0  0  0  0  0  0  0  0
   -4.3686    0.8539    1.6645 C   0  0  0  0  0  0  0  0  0  0  0  0
   -5.3997    1.7086    2.3500 C   0  0  0  0  0  0  0  0  0  0  0  0
   -4.7174    3.0472    2.5066 C   0  0  0  0  0  0  0  0  0  0  0  0
   -3.2444    2.7159    2.6086 C   0  0  1  0  0  0  0  0  0  0  0  0
   -2.8917    2.4827    4.0080 C   0  0  0  0  0  0  0  0  0  0  0  0
   -2.4648    1.2633    4.4739 O   0  0  0  0  0  0  0  0  0  0  0  0
   -2.9696    3.4158    4.8641 O   0  0  0  0  0  0  0  0  0  0  0  0
    3.3415    0.4509   -0.6045 H   0  0  0  0  0  0  0  0  0  0  0  0
    2.5252   -0.9153   -1.3320 H   0  0  0  0  0  0  0  0  0  0  0  0
    2.0478    2.0054   -1.5957 H   0  0  0  0  0  0  0  0  0  0  0  0
    1.3441   -0.2675   -3.5493 H   0  0  0  0  0  0  0  0  0  0  0  0
    1.2199    1.5021   -3.8139 H   0  0  0  0  0  0  0  0  0  0  0  0
    3.5810   -1.3023   -3.4920 H   0  0  0  0  0  0  0  0  0  0  0  0
    5.9195   -1.1404   -4.2669 H   0  0  0  0  0  0  0  0  0  0  0  0
    7.4440    0.9079   -6.0574 H   0  0  0  0  0  0  0  0  0  0  0  0
    5.4271    3.0434   -4.9610 H   0  0  0  0  0  0  0  0  0  0  0  0
    3.0846    2.8774   -4.1809 H   0  0  0  0  0  0  0  0  0  0  0  0
    0.5352   -0.1867    0.2914 H   0  0  0  0  0  0  0  0  0  0  0  0
   -2.1191    0.6458   -0.8234 H   0  0  0  0  0  0  0  0  0  0  0  0
   -3.2047   -1.1705    0.4933 H   0  0  0  0  0  0  0  0  0  0  0  0
   -1.9558   -1.7028   -0.5958 H   0  0  0  0  0  0  0  0  0  0  0  0
   -2.6080   -1.3346    3.2981 H   0  0  0  0  0  0  0  0  0  0  0  0
   -0.9423   -2.9512    4.4185 H   0  0  0  0  0  0  0  0  0  0  0  0
    1.1360   -4.5609    3.6658 H   0  0  0  0  0  0  0  0  0  0  0  0
    2.4601   -5.3375    1.7546 H   0  0  0  0  0  0  0  0  0  0  0  0
    1.9551   -4.4648   -0.4996 H   0  0  0  0  0  0  0  0  0  0  0  0
    0.0967   -2.8141   -0.7734 H   0  0  0  0  0  0  0  0  0  0  0  0
   -4.3366   -0.1642    2.1604 H   0  0  0  0  0  0  0  0  0  0  0  0
   -4.6923    0.7755    0.5929 H   0  0  0  0  0  0  0  0  0  0  0  0
   -5.6757    1.2795    3.3406 H   0  0  0  0  0  0  0  0  0  0  0  0
   -6.3277    1.8594    1.7759 H   0  0  0  0  0  0  0  0  0  0  0  0
   -4.8705    3.6974    1.6134 H   0  0  0  0  0  0  0  0  0  0  0  0
   -5.1250    3.5517    3.3797 H   0  0  0  0  0  0  0  0  0  0  0  0
   -2.6698    3.5602    2.1648 H   0  0  0  0  0  0  0  0  0  0  0  0
   -1.5245    0.9528    4.5700 H   0  0  0  0  0  0  0  0  0  0  0  0
  1  2  1  0
  2  3  1  0
  3  4  1  0
  4  5  2  0
  5  6  1  0
  6  7  2  0
  7  8  1  0
  7  9  1  0
  9 10  2  0
  2 11  1  0
 11 12  2  0
 11 13  1  0
 13 14  1  0
 14 15  1  0
 15 16  1  0
 16 17  2  0
 17 18  1  0
 18 19  1  0
 19 20  2  0
 20 21  1  0
 21 22  2  0
 22 23  1  0
 23 24  2  0
 14 25  1  0
 25 26  2  0
 25 27  1  0
 27 28  1  0
 28 29  1  0
 29 30  1  0
 30 31  1  0
 31 32  1  0
 32 33  1  0
 32 34  2  0
 10  4  1  0
 24 16  1  0
 31 27  1  0
 24 19  1  0
  1 35  1  0
  1 36  1  0
  2 37  1  6
  3 38  1  0
  3 39  1  0
  5 40  1  0
  6 41  1  0
  8 42  1  0
  9 43  1  0
 10 44  1  0
 13 45  1  0
 14 46  1  6
 15 47  1  0
 15 48  1  0
 17 49  1  0
 18 50  1  0
 20 51  1  0
 21 52  1  0
 22 53  1  0
 23 54  1  0
 28 55  1  0
 28 56  1  0
 29 57  1  0
 29 58  1  0
 30 59  1  0
 30 60  1  0
 31 61  1  6
 33 62  1  0
M  END
$$$$
[H]ON([H])C(=O)C([H])([H])N(C([H])([H])c1c([H])c([H])c([N+](=O)[O-])c([H])c1[H])S(=O)(=O)c1c([H])c([H])c([H])c2c([H])c([H])c([H])c([H])c12
     RDKit          3D

 46 48  0  0  0  0  0  0  0  0999 V2000
    1.1916   -4.2677    2.3970 O   0  0  0  0  0  0  0  0  0  0  0  0
    0.6051   -3.9213    1.2235 N   0  0  0  0  0  0  0  0  0  0  0  0
    0.2158   -2.5800    0.9249 C   0  0  0  0  0  0  0  0  0  0  0  0
    0.4457   -1.7328    1.8095 O   0  0  0  0  0  0  0  0  0  0  0  0
   -0.4145   -2.2848   -0.3696 C   0  0  0  0  0  0  0  0  0  0  0  0
   -0.7348   -0.8920   -0.5777 N   0  0  0  0  0  0  0  0  0  0  0  0
   -2.1192   -0.7815   -0.9251 C   0  0  0  0  0  0  0  0  0  0  0  0
   -2.8281    0.4009   -0.4602 C   0  0  0  0  0  0  0  0  0  0  0  0
   -2.3964    1.1591    0.5970 C   0  0  0  0  0  0  0  0  0  0  0  0
   -3.0880    2.2911    1.0304 C   0  0  0  0  0  0  0  0  0  0  0  0
   -4.2429    2.6657    0.3800 C   0  0  0  0  0  0  0  0  0  0  0  0
   -4.6994    1.9199   -0.6874 C   0  0  0  0  0  0  0  0  0  0  0  0
   -3.9875    0.8058   -1.0871 C   0  0  0  0  0  0  0  0  0  0  0  0
   -4.9720    3.8039    0.7867 N   0  0  0  0  0  0  0  0  0  0  0  0
   -6.1118    4.1789    0.1497 O   0  0  0  0  0  0  0  0  0  0  0  0
   -4.5633    4.4742    1.7447 O   0  0  0  0  0  0  0  0  0  0  0  0
    0.3207   -0.2719   -1.7551 S   0  0  0  0  0  0  0  0  0  0  0  0
   -0.0680    1.1033   -2.2253 O   0  0  0  0  0  0  0  0  0  0  0  0
    0.1955   -1.1644   -2.9889 O   0  0  0  0  0  0  0  0  0  0  0  0
    1.9764   -0.3566   -1.2291 C   0  0  0  0  0  0  0  0  0  0  0  0
    2.8652   -1.2556   -1.8339 C   0  0  0  0  0  0  0  0  0  0  0  0
    4.1637   -1.3786   -1.4408 C   0  0  0  0  0  0  0  0  0  0  0  0
    4.6735   -0.6164   -0.4174 C   0  0  0  0  0  0  0  0  0  0  0  0
    3.8288    0.2853    0.2069 C   0  0  0  0  0  0  0  0  0  0  0  0
    4.2967    1.0851    1.2341 C   0  0  0  0  0  0  0  0  0  0  0  0
    3.4930    2.0010    1.8700 C   0  0  0  0  0  0  0  0  0  0  0  0
    2.1874    2.0959    1.4429 C   0  0  0  0  0  0  0  0  0  0  0  0
    1.6665    1.3286    0.4292 C   0  0  0  0  0  0  0  0  0  0  0  0
    2.5020    0.4093   -0.1967 C   0  0  0  0  0  0  0  0  0  0  0  0
    0.8841   -5.1352    2.7342 H   0  0  0  0  0  0  0  0  0  0  0  0
    0.4323   -4.6545    0.5169 H   0  0  0  0  0  0  0  0  0  0  0  0
    0.2721   -2.6723   -1.1635 H   0  0  0  0  0  0  0  0  0  0  0  0
   -1.3848   -2.8606   -0.4689 H   0  0  0  0  0  0  0  0  0  0  0  0
   -2.6246   -1.7282   -0.5651 H   0  0  0  0  0  0  0  0  0  0  0  0
   -2.1732   -0.8982   -2.0508 H   0  0  0  0  0  0  0  0  0  0  0  0
   -1.5021    0.9160    1.1433 H   0  0  0  0  0  0  0  0  0  0  0  0
   -2.7219    2.8688    1.8679 H   0  0  0  0  0  0  0  0  0  0  0  0
   -5.6093    2.2429   -1.1745 H   0  0  0  0  0  0  0  0  0  0  0  0
   -4.3848    0.2512   -1.9304 H   0  0  0  0  0  0  0  0  0  0  0  0
    2.4988   -1.8639   -2.6345 H   0  0  0  0  0  0  0  0  0  0  0  0
    4.8345   -2.0961   -1.9387 H   0  0  0  0  0  0  0  0  0  0  0  0
    5.6934   -0.6761   -0.0684 H   0  0  0  0  0  0  0  0  0  0  0  0
    5.3356    0.9732    1.5357 H   0  0  0  0  0  0  0  0  0  0  0  0
    3.8753    2.6339    2.6877 H   0  0  0  0  0  0  0  0  0  0  0  0
    1.5206    2.8045    1.9163 H   0  0  0  0  0  0  0  0  0  0  0  0
    0.6524    1.3904    0.0829 H   0  0  0  0  0  0  0  0  0  0  0  0
  1  2  1  0
  2  3  1  0
  3  4  2  0
  3  5  1  0
  5  6  1  0
  6  7  1  0
  7  8  1  0
  8  9  2  0
  9 10  1  0
 10 11  2  0
 11 12  1  0
 12 13  2  0
 11 14  1  0
 14 15  1  0
 14 16  2  0
  6 17  1  0
 17 18  2  0
 17 19  2  0
 17 20  1  0
 20 21  2  0
 21 22  1  0
 22 23  2  0
 23 24  1  0
 24 25  2  0
 25 26  1  0
 26 27  2  0
 27 28  1  0
 28 29  2  0
 13  8  1  0
 29 20  1  0
 29 24  1  0
  1 30  1  0
  2 31  1  0
  5 32  1  0
  5 33  1  0
  7 34  1  0
  7 35  1  0
  9 36  1  0
 10 37  1  0
 12 38  1  0
 13 39  1  0
 21 40  1  0
 22 41  1  0
 23 42  1  0
 25 43  1  0
 26 44  1  0
 27 45  1  0
 28 46  1  0
M  CHG  2  14   1  15  -1
M  END
$$$$
[H]N=C(N([H])[H])N([H])C([H])([H])C([H])([H])C([H])([H])[C@@]([H])(C(=O)N1C([H])([H])C([H])([H])C([H])([H])[C@@]1([H])C(=O)N([H])[C@@]([H])(C([H])=O)C([H])([H])C([H])([H])C([H])([H])N([H])C(=N[H])N([H])[H])N([H])C(=O)OC(C([H])([H])[H])(C([H])([H])[H])C([H])([H])[H]
     RDKit          3D

 77 77  0  0  0  0  0  0  0  0999 V2000
   -6.3344    3.4943   -1.5447 C   0  0  0  0  0  0  0  0  0  0  0  0
   -4.9917    3.4508   -2.2454 C   0  0  0  0  0  0  0  0  0  0  0  0
   -5.2704    3.3605   -3.7221 C   0  0  0  0  0  0  0  0  0  0  0  0
   -4.2905    4.7875   -1.9402 C   0  0  0  0  0  0  0  0  0  0  0  0
   -4.1780    2.3867   -1.7913 O   0  0  0  0  0  0  0  0  0  0  0  0
   -3.8191    2.3457   -0.4144 C   0  0  0  0  0  0  0  0  0  0  0  0
   -4.2861    3.3305    0.2382 O   0  0  0  0  0  0  0  0  0  0  0  0
   -3.0589    1.3476    0.1120 N   0  0  0  0  0  0  0  0  0  0  0  0
   -2.2907    0.3389    0.6444 C   0  0  1  0  0  0  0  0  0  0  0  0
   -2.2135   -0.7876   -0.3948 C   0  0  0  0  0  0  0  0  0  0  0  0
   -3.6369   -1.2237   -0.6560 C   0  0  0  0  0  0  0  0  0  0  0  0
   -4.3344   -1.8012    0.5361 C   0  0  0  0  0  0  0  0  0  0  0  0
   -3.6986   -3.0053    1.0229 N   0  0  0  0  0  0  0  0  0  0  0  0
   -3.6885   -4.2462    0.3526 C   0  0  0  0  0  0  0  0  0  0  0  0
   -3.2048   -5.4375    0.9929 N   0  0  0  0  0  0  0  0  0  0  0  0
   -4.1095   -4.3427   -0.8477 N   0  0  0  0  0  0  0  0  0  0  0  0
   -0.9090    0.7200    1.0764 C   0  0  0  0  0  0  0  0  0  0  0  0
   -0.3443    1.6633    0.4974 O   0  0  0  0  0  0  0  0  0  0  0  0
   -0.2505    0.0082    2.1455 N   0  0  0  0  0  0  0  0  0  0  0  0
   -0.9800   -1.0364    2.8757 C   0  0  0  0  0  0  0  0  0  0  0  0
   -0.1255   -1.2866    4.1402 C   0  0  0  0  0  0  0  0  0  0  0  0
    1.2523   -1.1010    3.5757 C   0  0  0  0  0  0  0  0  0  0  0  0
    1.0342    0.1444    2.6772 C   0  0  1  0  0  0  0  0  0  0  0  0
    2.2071    0.2570    1.8081 C   0  0  0  0  0  0  0  0  0  0  0  0
    3.2967    0.6843    2.3384 O   0  0  0  0  0  0  0  0  0  0  0  0
    2.2176   -0.0781    0.4413 N   0  0  0  0  0  0  0  0  0  0  0  0
    3.4916    0.0774   -0.3375 C   0  0  2  0  0  0  0  0  0  0  0  0
    4.2766   -1.1413   -0.2462 C   0  0  0  0  0  0  0  0  0  0  0  0
    5.5632   -1.3591   -0.8993 C   0  0  0  0  0  0  0  0  0  0  0  0
    6.7394   -0.5295   -0.5827 C   0  0  0  0  0  0  0  0  0  0  0  0
    7.8746   -1.1073   -1.3498 N   0  0  0  0  0  0  0  0  0  0  0  0
    9.1264   -0.5081   -1.0841 C   0  0  0  0  0  0  0  0  0  0  0  0
    9.2082    0.8913   -0.9435 N   0  0  0  0  0  0  0  0  0  0  0  0
   10.1827   -1.2256   -0.9702 N   0  0  0  0  0  0  0  0  0  0  0  0
    4.1277    1.3531    0.0614 C   0  0  0  0  0  0  0  0  0  0  0  0
    3.3792    2.3590    0.1993 O   0  0  0  0  0  0  0  0  0  0  0  0
   -7.1986    3.3951   -2.2545 H   0  0  0  0  0  0  0  0  0  0  0  0
   -6.4632    2.6271   -0.8326 H   0  0  0  0  0  0  0  0  0  0  0  0
   -6.4942    4.4321   -0.9906 H   0  0  0  0  0  0  0  0  0  0  0  0
   -5.2019    2.3117   -4.0702 H   0  0  0  0  0  0  0  0  0  0  0  0
   -6.2910    3.7084   -4.0033 H   0  0  0  0  0  0  0  0  0  0  0  0
   -4.5349    4.0403   -4.2096 H   0  0  0  0  0  0  0  0  0  0  0  0
   -4.7990    5.3044   -1.1330 H   0  0  0  0  0  0  0  0  0  0  0  0
   -3.2372    4.5871   -1.6774 H   0  0  0  0  0  0  0  0  0  0  0  0
   -4.3989    5.4047   -2.8488 H   0  0  0  0  0  0  0  0  0  0  0  0
   -3.0884    1.9763    1.3256 H   0  0  0  0  0  0  0  0  0  0  0  0
   -2.7314   -0.1107    1.5814 H   0  0  0  0  0  0  0  0  0  0  0  0
   -1.8295   -0.3337   -1.3318 H   0  0  0  0  0  0  0  0  0  0  0  0
   -1.5962   -1.6289   -0.0411 H   0  0  0  0  0  0  0  0  0  0  0  0
   -3.6991   -1.9310   -1.5016 H   0  0  0  0  0  0  0  0  0  0  0  0
   -4.2497   -0.3332   -0.9598 H   0  0  0  0  0  0  0  0  0  0  0  0
   -5.3581   -2.0941    0.1822 H   0  0  0  0  0  0  0  0  0  0  0  0
   -4.5134   -1.0724    1.3553 H   0  0  0  0  0  0  0  0  0  0  0  0
   -3.2110   -2.9548    1.9432 H   0  0  0  0  0  0  0  0  0  0  0  0
   -2.1846   -5.5370    1.1746 H   0  0  0  0  0  0  0  0  0  0  0  0
   -3.8202   -6.2230    1.2835 H   0  0  0  0  0  0  0  0  0  0  0  0
   -4.1621   -5.1736   -1.4567 H   0  0  0  0  0  0  0  0  0  0  0  0
   -1.0468   -1.9856    2.3588 H   0  0  0  0  0  0  0  0  0  0  0  0
   -1.9549   -0.6137    3.1981 H   0  0  0  0  0  0  0  0  0  0  0  0
   -0.3147   -0.4632    4.8631 H   0  0  0  0  0  0  0  0  0  0  0  0
   -0.3488   -2.2731    4.5625 H   0  0  0  0  0  0  0  0  0  0  0  0
    2.0436   -0.9338    4.3157 H   0  0  0  0  0  0  0  0  0  0  0  0
    1.4594   -1.9852    2.9289 H   0  0  0  0  0  0  0  0  0  0  0  0
    1.0122    0.9887    3.4330 H   0  0  0  0  0  0  0  0  0  0  0  0
    1.3649   -0.4401   -0.0084 H   0  0  0  0  0  0  0  0  0  0  0  0
    3.1251    0.2761   -1.3892 H   0  0  0  0  0  0  0  0  0  0  0  0
    4.4526   -1.4233    0.8793 H   0  0  0  0  0  0  0  0  0  0  0  0
    3.6119   -2.0503   -0.5381 H   0  0  0  0  0  0  0  0  0  0  0  0
    5.8902   -2.4430   -0.6598 H   0  0  0  0  0  0  0  0  0  0  0  0
    5.5034   -1.4187   -2.0266 H   0  0  0  0  0  0  0  0  0  0  0  0
    7.0772   -0.5032    0.4656 H   0  0  0  0  0  0  0  0  0  0  0  0
    6.6815    0.5158   -0.9765 H   0  0  0  0  0  0  0  0  0  0  0  0
    7.7879   -1.8697   -2.0160 H   0  0  0  0  0  0  0  0  0  0  0  0
    8.8405    1.3313   -0.0499 H   0  0  0  0  0  0  0  0  0  0  0  0
    9.6181    1.5282   -1.6683 H   0  0  0  0  0  0  0  0  0  0  0  0
   11.1331   -0.8981   -0.7814 H   0  0  0  0  0  0  0  0  0  0  0  0
    5.1640    1.4823    0.2391 H   0  0  0  0  0  0  0  0  0  0  0  0
  1  2  1  0
  2  3  1  0
  2  4  1  0
  2  5  1  0
  5  6  1  0
  6  7  2  0
  6  8  1  0
  8  9  1  0
  9 10  1  0
 10 11  1  0
 11 12  1  0
 12 13  1  0
 13 14  1  0
 14 15  1  0
 14 16  2  3
  9 17  1  0
 17 18  2  0
 17 19  1  0
 19 20  1  0
 20 21  1  0
 21 22  1  0
 22 23  1  0
 23 24  1  0
 24 25  2  0
 24 26  1  0
 26 27  1  0
 27 28  1  0
 28 29  1  0
 29 30  1  0
 30 31  1  0
 31 32  1  0
 32 33  1  0
 32 34  2  3
 27 35  1  0
 35 36  2  0
 23 19  1  0
  1 37  1  0
  1 38  1  0
  1 39  1  0
  3 40  1  0
  3 41  1  0
  3 42  1  0
  4 43  1  0
  4 44  1  0
  4 45  1  0
  8 46  1  0
  9 47  1  1
 10 48  1  0
 10 49  1  0
 11 50  1  0
 11 51  1  0
 12 52  1  0
 12 53  1  0
 13 54  1  0
 15 55  1  0
 15 56  1  0
 16 57  1  0
 20 58  1  0
 20 59  1  0
 21 60  1  0
 21 61  1  0
 22 62  1  0
 22 63  1  0
 23 64  1  1
 26 65  1  0
 27 66  1  6
 28 67  1  0
 28 68  1  0
 29 69  1  0
 29 70  1  0
 30 71  1  0
 30 72  1  0
 31 73  1  0
 33 74  1  0
 33 75  1  0
 34 76  1  0
 35 77  1  0
M  END
$$$$
[H]OC(=O)C([H])([H])[C@@]([H])(C(=O)N([H])[C@]([H])(C(=O)N([H])[H])C([H])([H])c1c([H])c([H])c([H])c([H])c1[H])N([H])C(=O)[C@@]([H])(N([H])C(=O)c1c([H])c(OC([H])([H])[H])c(OC([H])([H])[H])c(OC([H])([H])[H])c1[H])C([H])([H])c1c([H])c([H])c([H])c([H])c1[H]
     RDKit          3D

 81 83  0  0  0  0  0  0  0  0999 V2000
    3.4441    4.9473   -1.0742 C   0  0  0  0  0  0  0  0  0  0  0  0
    4.6021    4.5079   -0.3953 O   0  0  0  0  0  0  0  0  0  0  0  0
    4.7918    3.1418   -0.2499 C   0  0  0  0  0  0  0  0  0  0  0  0
    3.8686    2.2327   -0.7593 C   0  0  0  0  0  0  0  0  0  0  0  0
    4.0586    0.8744   -0.6135 C   0  0  0  0  0  0  0  0  0  0  0  0
    5.2093    0.4687    0.0623 C   0  0  0  0  0  0  0  0  0  0  0  0
    6.1341    1.3566    0.5730 C   0  0  0  0  0  0  0  0  0  0  0  0
    7.2696    0.9133    1.2399 O   0  0  0  0  0  0  0  0  0  0  0  0
    7.4681   -0.4682    1.3889 C   0  0  0  0  0  0  0  0  0  0  0  0
    5.9279    2.7120    0.4180 C   0  0  0  0  0  0  0  0  0  0  0  0
    6.8040    3.6659    0.8999 O   0  0  0  0  0  0  0  0  0  0  0  0
    7.8814    4.1922    0.1740 C   0  0  0  0  0  0  0  0  0  0  0  0
    3.1238   -0.1246   -1.1356 C   0  0  0  0  0  0  0  0  0  0  0  0
    3.1688   -0.3498   -2.3796 O   0  0  0  0  0  0  0  0  0  0  0  0
    2.2511   -0.7639   -0.2542 N   0  0  0  0  0  0  0  0  0  0  0  0
    1.2814   -1.7936   -0.7208 C   0  0  1  0  0  0  0  0  0  0  0  0
    1.6213   -3.0783   -0.0536 C   0  0  0  0  0  0  0  0  0  0  0  0
    0.7598   -4.2025   -0.4207 C   0  0  0  0  0  0  0  0  0  0  0  0
   -0.3107   -4.6225    0.3288 C   0  0  0  0  0  0  0  0  0  0  0  0
   -1.0880   -5.6817   -0.0414 C   0  0  0  0  0  0  0  0  0  0  0  0
   -0.7993   -6.3613   -1.2048 C   0  0  0  0  0  0  0  0  0  0  0  0
    0.2716   -5.9515   -1.9670 C   0  0  0  0  0  0  0  0  0  0  0  0
    1.0524   -4.8867   -1.5936 C   0  0  0  0  0  0  0  0  0  0  0  0
   -0.0482   -1.2218   -0.4380 C   0  0  0  0  0  0  0  0  0  0  0  0
   -0.0682   -0.2959    0.4022 O   0  0  0  0  0  0  0  0  0  0  0  0
   -1.1890   -1.6655   -1.0635 N   0  0  0  0  0  0  0  0  0  0  0  0
   -2.5573   -1.3859   -1.1094 C   0  0  1  0  0  0  0  0  0  0  0  0
   -3.5308   -2.2767   -0.4980 C   0  0  0  0  0  0  0  0  0  0  0  0
   -3.4829   -2.5585    0.9251 C   0  0  0  0  0  0  0  0  0  0  0  0
   -4.4661   -3.3371    1.5215 O   0  0  0  0  0  0  0  0  0  0  0  0
   -2.5834   -2.1352    1.6924 O   0  0  0  0  0  0  0  0  0  0  0  0
   -2.8511    0.0647   -0.9521 C   0  0  0  0  0  0  0  0  0  0  0  0
   -1.9806    0.9416   -0.7789 O   0  0  0  0  0  0  0  0  0  0  0  0
   -4.1962    0.5660   -1.0011 N   0  0  0  0  0  0  0  0  0  0  0  0
   -4.5596    1.9420   -0.8878 C   0  0  1  0  0  0  0  0  0  0  0  0
   -4.1680    2.5665    0.3989 C   0  0  0  0  0  0  0  0  0  0  0  0
   -4.7366    1.9928    1.6127 C   0  0  0  0  0  0  0  0  0  0  0  0
   -4.1587    1.0216    2.3942 C   0  0  0  0  0  0  0  0  0  0  0  0
   -4.7530    0.5121    3.5225 C   0  0  0  0  0  0  0  0  0  0  0  0
   -5.9757    0.9652    3.9217 C   0  0  0  0  0  0  0  0  0  0  0  0
   -6.5988    1.9398    3.1727 C   0  0  0  0  0  0  0  0  0  0  0  0
   -5.9826    2.4416    2.0365 C   0  0  0  0  0  0  0  0  0  0  0  0
   -3.9875    2.6787   -2.0527 C   0  0  0  0  0  0  0  0  0  0  0  0
   -4.1759    4.0782   -2.1397 N   0  0  0  0  0  0  0  0  0  0  0  0
   -3.3510    2.0905   -2.9453 O   0  0  0  0  0  0  0  0  0  0  0  0
    3.3578    6.0527   -1.0866 H   0  0  0  0  0  0  0  0  0  0  0  0
    2.5445    4.4811   -0.5837 H   0  0  0  0  0  0  0  0  0  0  0  0
    3.4808    4.5239   -2.0984 H   0  0  0  0  0  0  0  0  0  0  0  0
    2.9811    2.5843   -1.2821 H   0  0  0  0  0  0  0  0  0  0  0  0
    5.3752   -0.5899    0.1865 H   0  0  0  0  0  0  0  0  0  0  0  0
    6.8403   -0.9574    2.1400 H   0  0  0  0  0  0  0  0  0  0  0  0
    8.5300   -0.5943    1.7376 H   0  0  0  0  0  0  0  0  0  0  0  0
    7.3564   -1.0149    0.4129 H   0  0  0  0  0  0  0  0  0  0  0  0
    7.6272    4.4535   -0.8604 H   0  0  0  0  0  0  0  0  0  0  0  0
    8.6393    3.3579    0.1081 H   0  0  0  0  0  0  0  0  0  0  0  0
    8.4025    4.9966    0.7275 H   0  0  0  0  0  0  0  0  0  0  0  0
    2.2509   -0.5414    0.7542 H   0  0  0  0  0  0  0  0  0  0  0  0
    1.4572   -1.9111   -1.8158 H   0  0  0  0  0  0  0  0  0  0  0  0
    2.6652   -3.3547   -0.4044 H   0  0  0  0  0  0  0  0  0  0  0  0
    1.7157   -2.9705    1.0612 H   0  0  0  0  0  0  0  0  0  0  0  0
   -0.5337   -4.0998    1.2310 H   0  0  0  0  0  0  0  0  0  0  0  0
   -1.9459   -6.0243    0.5523 H   0  0  0  0  0  0  0  0  0  0  0  0
   -1.3987   -7.2166   -1.5351 H   0  0  0  0  0  0  0  0  0  0  0  0
    0.4724   -6.5079   -2.8772 H   0  0  0  0  0  0  0  0  0  0  0  0
    1.8889   -4.5877   -2.2133 H   0  0  0  0  0  0  0  0  0  0  0  0
   -0.9573   -2.5045   -1.7623 H   0  0  0  0  0  0  0  0  0  0  0  0
   -2.7969   -1.4538   -2.2784 H   0  0  0  0  0  0  0  0  0  0  0  0
   -4.5687   -1.9836   -0.7542 H   0  0  0  0  0  0  0  0  0  0  0  0
   -3.4643   -3.3066   -1.0183 H   0  0  0  0  0  0  0  0  0  0  0  0
   -4.6021   -4.3067    1.2708 H   0  0  0  0  0  0  0  0  0  0  0  0
   -4.9489   -0.1410   -1.1365 H   0  0  0  0  0  0  0  0  0  0  0  0
   -5.6949    1.9596   -1.0114 H   0  0  0  0  0  0  0  0  0  0  0  0
   -3.0713    2.6763    0.5308 H   0  0  0  0  0  0  0  0  0  0  0  0
   -4.5270    3.6454    0.3598 H   0  0  0  0  0  0  0  0  0  0  0  0
   -3.1861    0.6334    2.1195 H   0  0  0  0  0  0  0  0  0  0  0  0
   -4.2886   -0.2610    4.1404 H   0  0  0  0  0  0  0  0  0  0  0  0
   -6.4576    0.5663    4.8164 H   0  0  0  0  0  0  0  0  0  0  0  0
   -7.5630    2.2994    3.4837 H   0  0  0  0  0  0  0  0  0  0  0  0
   -6.5392    3.2077    1.5021 H   0  0  0  0  0  0  0  0  0  0  0  0
   -5.0354    4.5863   -1.8448 H   0  0  0  0  0  0  0  0  0  0  0  0
   -3.3964    4.6505   -2.5276 H   0  0  0  0  0  0  0  0  0  0  0  0
  1  2  1  0
  2  3  1  0
  3  4  2  0
  4  5  1  0
  5  6  2  0
  6  7  1  0
  7  8  1  0
  8  9  1  0
  7 10  2  0
 10 11  1  0
 11 12  1  0
  5 13  1  0
 13 14  2  0
 13 15  1  0
 15 16  1  0
 16 17  1  0
 17 18  1  0
 18 19  2  0
 19 20  1  0
 20 21  2  0
 21 22  1  0
 22 23  2  0
 16 24  1  0
 24 25  2  0
 24 26  1  0
 26 27  1  0
 27 28  1  0
 28 29  1  0
 29 30  1  0
 29 31  2  0
 27 32  1  0
 32 33  2  0
 32 34  1  0
 34 35  1  0
 35 36  1  0
 36 37  1  0
 37 38  2  0
 38 39  1  0
 39 40  2  0
 40 41  1  0
 41 42  2  0
 35 43  1  0
 43 44  1  0
 43 45  2  0
 10  3  1  0
 23 18  1  0
 42 37  1  0
  1 46  1  0
  1 47  1  0
  1 48  1  0
  4 49  1  0
  6 50  1  0
  9 51  1  0
  9 52  1  0
  9 53  1  0
 12 54  1  0
 12 55  1  0
 12 56  1  0
 15 57  1  0
 16 58  1  6
 17 59  1  0
 17 60  1  0
 19 61  1  0
 20 62  1  0
 21 63  1  0
 22 64  1  0
 23 65  1  0
 26 66  1  0
 27 67  1  6
 28 68  1  0
 28 69  1  0
 30 70  1  0
 34 71  1  0
 35 72  1  6
 36 73  1  0
 36 74  1  0
 38 75  1  0
 39 76  1  0
 40 77  1  0
 41 78  1  0
 42 79  1  0
 44 80  1  0
 44 81  1  0
M  END
$$$$
[H]c1nc(N2C([H])([H])C([H])([H])N(C(=O)N([H])c3c([H])c([H])c(C(F)(F)F)c([H])c3[H])C([H])([H])C2([H])[H])c(C(F)(F)F)c([H])c1[H]
     RDKit          3D

 45 47  0  0  0  0  0  0  0  0999 V2000
    7.7217    1.7308    1.4282 F   0  0  0  0  0  0  0  0  0  0  0  0
    7.5117    0.7113    0.5465 C   0  0  0  0  0  0  0  0  0  0  0  0
    8.1729   -0.4717    0.9244 F   0  0  0  0  0  0  0  0  0  0  0  0
    7.8954    1.0949   -0.7190 F   0  0  0  0  0  0  0  0  0  0  0  0
    6.0636    0.3785    0.5881 C   0  0  0  0  0  0  0  0  0  0  0  0
    5.5293   -0.4066    1.5757 C   0  0  0  0  0  0  0  0  0  0  0  0
    4.1849   -0.7256    1.5893 C   0  0  0  0  0  0  0  0  0  0  0  0
    3.3587   -0.2491    0.5878 C   0  0  0  0  0  0  0  0  0  0  0  0
    1.9604   -0.5629    0.5700 N   0  0  0  0  0  0  0  0  0  0  0  0
    1.2562   -0.8173   -0.5929 C   0  0  0  0  0  0  0  0  0  0  0  0
    1.8641   -0.7922   -1.7300 O   0  0  0  0  0  0  0  0  0  0  0  0
   -0.1199   -1.1001   -0.6314 N   0  0  0  0  0  0  0  0  0  0  0  0
   -0.8177   -1.2137    0.6321 C   0  0  0  0  0  0  0  0  0  0  0  0
   -2.2900   -1.5830    0.3454 C   0  0  0  0  0  0  0  0  0  0  0  0
   -2.7024   -0.5591   -0.5954 N   0  0  0  0  0  0  0  0  0  0  0  0
   -2.1921   -0.7715   -1.9488 C   0  0  0  0  0  0  0  0  0  0  0  0
   -0.7548   -1.2274   -1.9220 C   0  0  0  0  0  0  0  0  0  0  0  0
   -3.4852    0.5756   -0.3191 C   0  0  0  0  0  0  0  0  0  0  0  0
   -2.8521    1.7929   -0.1537 N   0  0  0  0  0  0  0  0  0  0  0  0
   -3.5035    2.9136    0.1392 C   0  0  0  0  0  0  0  0  0  0  0  0
   -4.8715    2.9296    0.2955 C   0  0  0  0  0  0  0  0  0  0  0  0
   -5.5361    1.7384    0.1409 C   0  0  0  0  0  0  0  0  0  0  0  0
   -4.8405    0.5486   -0.1703 C   0  0  0  0  0  0  0  0  0  0  0  0
   -5.6028   -0.6867   -0.3412 C   0  0  0  0  0  0  0  0  0  0  0  0
   -5.4724   -1.3129   -1.5580 F   0  0  0  0  0  0  0  0  0  0  0  0
   -5.4854   -1.5198    0.7434 F   0  0  0  0  0  0  0  0  0  0  0  0
   -6.9881   -0.3234   -0.3327 F   0  0  0  0  0  0  0  0  0  0  0  0
    3.8868    0.5385   -0.4034 C   0  0  0  0  0  0  0  0  0  0  0  0
    5.2289    0.8392   -0.3869 C   0  0  0  0  0  0  0  0  0  0  0  0
    6.1963   -0.7724    2.3651 H   0  0  0  0  0  0  0  0  0  0  0  0
    3.7639   -1.3450    2.3671 H   0  0  0  0  0  0  0  0  0  0  0  0
    1.4969   -0.5866    1.5402 H   0  0  0  0  0  0  0  0  0  0  0  0
   -0.8769   -0.2547    1.1661 H   0  0  0  0  0  0  0  0  0  0  0  0
   -0.4164   -2.0675    1.2032 H   0  0  0  0  0  0  0  0  0  0  0  0
   -2.7598   -1.5594    1.3180 H   0  0  0  0  0  0  0  0  0  0  0  0
   -2.3453   -2.5742   -0.1910 H   0  0  0  0  0  0  0  0  0  0  0  0
   -2.8081   -1.5588   -2.4154 H   0  0  0  0  0  0  0  0  0  0  0  0
   -2.3226    0.1470   -2.5630 H   0  0  0  0  0  0  0  0  0  0  0  0
   -0.2035   -0.5094   -2.6044 H   0  0  0  0  0  0  0  0  0  0  0  0
   -0.6426   -2.2132   -2.3845 H   0  0  0  0  0  0  0  0  0  0  0  0
   -2.9770    3.8630    0.2596 H   0  0  0  0  0  0  0  0  0  0  0  0
   -5.4435    3.8225    0.5437 H   0  0  0  0  0  0  0  0  0  0  0  0
   -6.6347    1.7207    0.2582 H   0  0  0  0  0  0  0  0  0  0  0  0
    3.2455    0.9524   -1.1933 H   0  0  0  0  0  0  0  0  0  0  0  0
    5.6080    1.4668   -1.1690 H   0  0  0  0  0  0  0  0  0  0  0  0
  1  2  1  0
  2  3  1  0
  2  4  1  0
  2  5  1  0
  5  6  2  0
  6  7  1  0
  7  8  2  0
  8  9  1  0
  9 10  1  0
 10 11  2  0
 10 12  1  0
 12 13  1  0
 13 14  1  0
 14 15  1  0
 15 16  1  0
 16 17  1  0
 15 18  1  0
 18 19  2  0
 19 20  1  0
 20 21  2  0
 21 22  1  0
 22 23  2  0
 23 24  1  0
 24 25  1  0
 24 26  1  0
 24 27  1  0
  8 28  1  0
 28 29  2  0
 29  5  1  0
 17 12  1  0
 23 18  1  0
  6 30  1  0
  7 31  1  0
  9 32  1  0
 13 33  1  0
 13 34  1  0
 14 35  1  0
 14 36  1  0
 16 37  1  0
 16 38  1  0
 17 39  1  0
 17 40  1  0
 20 41  1  0
 21 42  1  0
 22 43  1  0
 28 44  1  0
 29 45  1  0
M  END
$$$$
[H]OC(=O)[C@@]([H])(N([H])C(=O)[C@@]([H])(N([H])C(=O)[C@@]([H])(N([H])C(=O)[C@@]([H])(N([H])C(=O)[C@@]([H])(N([H])C(=O)[C@@]([H])(N([H])C(=O)[C@@]([H])(N([H])C(=O)C([H])([H])[H])C([H])([H])O[H])C([H])(C([H])([H])[H])C([H])([H])[H])C([H])(C([H])([H])[H])C([H])([H])[H])C([H])([H])O[H])C([H])([H])O[H])C([H])([H])O[H])C([H])([H])O[H]
     RDKit          3D

 95 94  0  0  0  0  0  0  0  0999 V2000
  -12.7783    2.0581   -0.0823 C   0  0  0  0  0  0  0  0  0  0  0  0
  -11.8416    0.9393    0.2387 C   0  0  0  0  0  0  0  0  0  0  0  0
  -12.1527    0.0668    1.0862 O   0  0  0  0  0  0  0  0  0  0  0  0
  -10.5847    0.8470   -0.4123 N   0  0  0  0  0  0  0  0  0  0  0  0
   -9.6830   -0.2435   -0.0911 C   0  0  1  0  0  0  0  0  0  0  0  0
   -9.5672   -1.1694   -1.2983 C   0  0  0  0  0  0  0  0  0  0  0  0
  -10.8422   -1.6522   -1.5808 O   0  0  0  0  0  0  0  0  0  0  0  0
   -8.3692    0.3134    0.2849 C   0  0  0  0  0  0  0  0  0  0  0  0
   -8.1937    1.5726    0.2668 O   0  0  0  0  0  0  0  0  0  0  0  0
   -7.2813   -0.5178    0.6707 N   0  0  0  0  0  0  0  0  0  0  0  0
   -5.9946    0.0945    1.0289 C   0  0  1  0  0  0  0  0  0  0  0  0
   -5.6609   -0.2319    2.4760 C   0  0  0  0  0  0  0  0  0  0  0  0
   -5.5636   -1.7213    2.7139 C   0  0  0  0  0  0  0  0  0  0  0  0
   -6.6708    0.4152    3.4129 C   0  0  0  0  0  0  0  0  0  0  0  0
   -4.9352   -0.3607    0.1107 C   0  0  0  0  0  0  0  0  0  0  0  0
   -5.2394   -1.2463   -0.7609 O   0  0  0  0  0  0  0  0  0  0  0  0
   -3.6212    0.1367    0.1539 N   0  0  0  0  0  0  0  0  0  0  0  0
   -2.5468   -0.3099   -0.7525 C   0  0  1  0  0  0  0  0  0  0  0  0
   -2.4696    0.6973   -1.9025 C   0  0  0  0  0  0  0  0  0  0  0  0
   -1.4141    0.3173   -2.9003 C   0  0  0  0  0  0  0  0  0  0  0  0
   -2.1026    2.0775   -1.3811 C   0  0  0  0  0  0  0  0  0  0  0  0
   -1.2722   -0.3819   -0.0417 C   0  0  0  0  0  0  0  0  0  0  0  0
   -1.2792    0.1077    1.1500 O   0  0  0  0  0  0  0  0  0  0  0  0
   -0.0552   -0.9047   -0.4687 N   0  0  0  0  0  0  0  0  0  0  0  0
    1.1078   -0.8547    0.3993 C   0  0  1  0  0  0  0  0  0  0  0  0
    1.3860   -2.2407    0.9819 C   0  0  0  0  0  0  0  0  0  0  0  0
    0.2853   -2.6734    1.7234 O   0  0  0  0  0  0  0  0  0  0  0  0
    2.2589   -0.3709   -0.3816 C   0  0  0  0  0  0  0  0  0  0  0  0
    2.1872   -0.1429   -1.6314 O   0  0  0  0  0  0  0  0  0  0  0  0
    3.4975   -0.1418    0.2556 N   0  0  0  0  0  0  0  0  0  0  0  0
    4.6230    0.3218   -0.5186 C   0  0  1  0  0  0  0  0  0  0  0  0
    4.7580    1.8382   -0.3573 C   0  0  0  0  0  0  0  0  0  0  0  0
    3.5419    2.3716   -0.8406 O   0  0  0  0  0  0  0  0  0  0  0  0
    5.8433   -0.3664   -0.0472 C   0  0  0  0  0  0  0  0  0  0  0  0
    5.7948   -1.1590    0.9152 O   0  0  0  0  0  0  0  0  0  0  0  0
    7.0569   -0.0847   -0.7333 N   0  0  0  0  0  0  0  0  0  0  0  0
    8.2655   -0.7493   -0.2776 C   0  0  1  0  0  0  0  0  0  0  0  0
    8.5501   -1.8223   -1.3444 C   0  0  0  0  0  0  0  0  0  0  0  0
    8.7226   -1.1577   -2.5600 O   0  0  0  0  0  0  0  0  0  0  0  0
    9.3720    0.2201   -0.2644 C   0  0  0  0  0  0  0  0  0  0  0  0
    9.1718    1.4006   -0.6272 O   0  0  0  0  0  0  0  0  0  0  0  0
   10.6586   -0.1701    0.1537 N   0  0  0  0  0  0  0  0  0  0  0  0
   11.7745    0.7716    0.1699 C   0  0  1  0  0  0  0  0  0  0  0  0
   12.3792    0.9152    1.5523 C   0  0  0  0  0  0  0  0  0  0  0  0
   11.4090    1.3693    2.4243 O   0  0  0  0  0  0  0  0  0  0  0  0
   12.8476    0.2367   -0.7381 C   0  0  0  0  0  0  0  0  0  0  0  0
   14.0045    0.9877   -0.8646 O   0  0  0  0  0  0  0  0  0  0  0  0
   12.7347   -0.8242   -1.3589 O   0  0  0  0  0  0  0  0  0  0  0  0
  -13.8214    1.7756    0.2206 H   0  0  0  0  0  0  0  0  0  0  0  0
  -12.5168    2.9806    0.4742 H   0  0  0  0  0  0  0  0  0  0  0  0
  -12.7569    2.2255   -1.1870 H   0  0  0  0  0  0  0  0  0  0  0  0
  -10.2935    1.5651   -1.1298 H   0  0  0  0  0  0  0  0  0  0  0  0
  -10.1389   -0.8455    0.6982 H   0  0  0  0  0  0  0  0  0  0  0  0
   -9.1335   -0.6602   -2.1805 H   0  0  0  0  0  0  0  0  0  0  0  0
   -8.9679   -2.0559   -0.9700 H   0  0  0  0  0  0  0  0  0  0  0  0
  -11.1561   -1.1817   -2.4100 H   0  0  0  0  0  0  0  0  0  0  0  0
   -7.3966   -1.5434    0.6991 H   0  0  0  0  0  0  0  0  0  0  0  0
   -6.1013    1.1778    0.9247 H   0  0  0  0  0  0  0  0  0  0  0  0
   -4.6815    0.2106    2.6973 H   0  0  0  0  0  0  0  0  0  0  0  0
   -5.6158   -2.2846    1.7541 H   0  0  0  0  0  0  0  0  0  0  0  0
   -6.3413   -2.0724    3.4387 H   0  0  0  0  0  0  0  0  0  0  0  0
   -4.5942   -2.0198    3.1885 H   0  0  0  0  0  0  0  0  0  0  0  0
   -6.8024    1.4743    3.1285 H   0  0  0  0  0  0  0  0  0  0  0  0
   -6.3229    0.3998    4.4620 H   0  0  0  0  0  0  0  0  0  0  0  0
   -7.6152   -0.1622    3.3633 H   0  0  0  0  0  0  0  0  0  0  0  0
   -3.3646    0.8547    0.8518 H   0  0  0  0  0  0  0  0  0  0  0  0
   -2.8347   -1.2588   -1.1936 H   0  0  0  0  0  0  0  0  0  0  0  0
   -3.4697    0.8052   -2.3746 H   0  0  0  0  0  0  0  0  0  0  0  0
   -0.4027    0.6267   -2.6074 H   0  0  0  0  0  0  0  0  0  0  0  0
   -1.3975   -0.7638   -3.1470 H   0  0  0  0  0  0  0  0  0  0  0  0
   -1.5983    0.8223   -3.8952 H   0  0  0  0  0  0  0  0  0  0  0  0
   -0.9942    2.1940   -1.2882 H   0  0  0  0  0  0  0  0  0  0  0  0
   -2.6255    2.3271   -0.4596 H   0  0  0  0  0  0  0  0  0  0  0  0
   -2.4331    2.8072   -2.1599 H   0  0  0  0  0  0  0  0  0  0  0  0
    0.0525   -1.3463   -1.3940 H   0  0  0  0  0  0  0  0  0  0  0  0
    0.8615   -0.2206    1.2729 H   0  0  0  0  0  0  0  0  0  0  0  0
    2.2580   -2.2377    1.6405 H   0  0  0  0  0  0  0  0  0  0  0  0
    1.5356   -3.0092    0.1923 H   0  0  0  0  0  0  0  0  0  0  0  0
    0.3887   -3.6706    1.8177 H   0  0  0  0  0  0  0  0  0  0  0  0
    3.6137   -0.3044    1.2628 H   0  0  0  0  0  0  0  0  0  0  0  0
    4.3961    0.1336   -1.6064 H   0  0  0  0  0  0  0  0  0  0  0  0
    4.8313    2.1553    0.6931 H   0  0  0  0  0  0  0  0  0  0  0  0
    5.6282    2.2169   -0.9055 H   0  0  0  0  0  0  0  0  0  0  0  0
    3.6650    2.3984   -1.8431 H   0  0  0  0  0  0  0  0  0  0  0  0
    7.0623    0.5698   -1.5220 H   0  0  0  0  0  0  0  0  0  0  0  0
    8.0857   -1.2851    0.6597 H   0  0  0  0  0  0  0  0  0  0  0  0
    9.4745   -2.3549   -1.0616 H   0  0  0  0  0  0  0  0  0  0  0  0
    7.6577   -2.4626   -1.3815 H   0  0  0  0  0  0  0  0  0  0  0  0
    7.9903   -1.3827   -3.2121 H   0  0  0  0  0  0  0  0  0  0  0  0
   10.8077   -1.1590    0.4570 H   0  0  0  0  0  0  0  0  0  0  0  0
   11.4346    1.7393   -0.2266 H   0  0  0  0  0  0  0  0  0  0  0  0
   13.1952    1.6642    1.4915 H   0  0  0  0  0  0  0  0  0  0  0  0
   12.8263   -0.0385    1.8923 H   0  0  0  0  0  0  0  0  0  0  0  0
   11.4115    0.8698    3.2903 H   0  0  0  0  0  0  0  0  0  0  0  0
   14.0886    1.7476   -1.5171 H   0  0  0  0  0  0  0  0  0  0  0  0
  1  2  1  0
  2  3  2  0
  2  4  1  0
  4  5  1  0
  5  6  1  0
  6  7  1  0
  5  8  1  0
  8  9  2  0
  8 10  1  0
 10 11  1  0
 11 12  1  0
 12 13  1  0
 12 14  1  0
 11 15  1  0
 15 16  2  0
 15 17  1  0
 17 18  1  0
 18 19  1  0
 19 20  1  0
 19 21  1  0
 18 22  1  0
 22 23  2  0
 22 24  1  0
 24 25  1  0
 25 26  1  0
 26 27  1  0
 25 28  1  0
 28 29  2  0
 28 30  1  0
 30 31  1  0
 31 32  1  0
 32 33  1  0
 31 34  1  0
 34 35  2  0
 34 36  1  0
 36 37  1  0
 37 38  1  0
 38 39  1  0
 37 40  1  0
 40 41  2  0
 40 42  1  0
 42 43  1  0
 43 44  1  0
 44 45  1  0
 43 46  1  0
 46 47  1  0
 46 48  2  0
  1 49  1  0
  1 50  1  0
  1 51  1  0
  4 52  1  0
  5 53  1  1
  6 54  1  0
  6 55  1  0
  7 56  1  0
 10 57  1  0
 11 58  1  1
 12 59  1  0
 13 60  1  0
 13 61  1  0
 13 62  1  0
 14 63  1  0
 14 64  1  0
 14 65  1  0
 17 66  1  0
 18 67  1  6
 19 68  1  0
 20 69  1  0
 20 70  1  0
 20 71  1  0
 21 72  1  0
 21 73  1  0
 21 74  1  0
 24 75  1  0
 25 76  1  1
 26 77  1  0
 26 78  1  0
 27 79  1  0
 30 80  1  0
 31 81  1  6
 32 82  1  0
 32 83  1  0
 33 84  1  0
 36 85  1  0
 37 86  1  1
 38 87  1  0
 38 88  1  0
 39 89  1  0
 42 90  1  0
 43 91  1  6
 44 92  1  0
 44 93  1  0
 45 94  1  0
 47 95  1  0
M  END
$$$$
[H]O[C@]1([H])[C@]([H])(n2c([H])c([H])c(=O)n([H])c2=S)O[C@]([H])(C([H])([H])OP(=O)(O[H])OP(=O)(O[H])OP(=O)(O[H])O[H])[C@]1([H])O[H]
     RDKit          3D

 44 45  0  0  0  0  0  0  0  0999 V2000
   -0.1318    2.0311    0.3656 O   0  0  0  0  0  0  0  0  0  0  0  0
   -1.2047    2.0321   -0.5225 C   0  0  2  0  0  0  0  0  0  0  0  0
   -2.5095    1.7611    0.1967 C   0  0  2  0  0  0  0  0  0  0  0  0
   -2.3166    1.0308    1.3677 O   0  0  0  0  0  0  0  0  0  0  0  0
   -3.2549    0.9467   -0.8228 C   0  0  1  0  0  0  0  0  0  0  0  0
   -2.2909    0.2162   -1.5041 O   0  0  0  0  0  0  0  0  0  0  0  0
   -1.1380    0.9526   -1.5391 C   0  0  2  0  0  0  0  0  0  0  0  0
    0.1054    0.1177   -1.3149 C   0  0  0  0  0  0  0  0  0  0  0  0
    1.2039    0.9547   -1.3700 O   0  0  0  0  0  0  0  0  0  0  0  0
    2.6549    0.1485   -1.1354 P   0  0  0  0  0  0  0  0  0  0  0  0
    3.0828   -0.7046   -2.5435 O   0  0  0  0  0  0  0  0  0  0  0  0
    3.7326    1.2058   -0.9405 O   0  0  0  0  0  0  0  0  0  0  0  0
    2.5371   -0.8595    0.1989 O   0  0  0  0  0  0  0  0  0  0  0  0
    4.0553   -1.2100    0.8677 P   0  0  0  0  0  0  0  0  0  0  0  0
    4.8662   -2.2259   -0.2408 O   0  0  0  0  0  0  0  0  0  0  0  0
    3.8214   -1.8974    2.1798 O   0  0  0  0  0  0  0  0  0  0  0  0
    4.9525    0.1878    1.1180 O   0  0  0  0  0  0  0  0  0  0  0  0
    6.5950   -0.1087    0.8201 P   0  0  0  0  0  0  0  0  0  0  0  0
    7.1174   -1.4893    1.6415 O   0  0  0  0  0  0  0  0  0  0  0  0
    7.4910    1.2612    1.2882 O   0  0  0  0  0  0  0  0  0  0  0  0
    6.8468   -0.3207   -0.6540 O   0  0  0  0  0  0  0  0  0  0  0  0
   -4.1714   -0.0044   -0.2229 N   0  0  0  0  0  0  0  0  0  0  0  0
   -3.8267   -1.2712    0.0772 C   0  0  0  0  0  0  0  0  0  0  0  0
   -4.7069   -2.1664    0.6474 C   0  0  0  0  0  0  0  0  0  0  0  0
   -5.9952   -1.7647    0.9280 C   0  0  0  0  0  0  0  0  0  0  0  0
   -6.8411   -2.5593    1.4547 O   0  0  0  0  0  0  0  0  0  0  0  0
   -6.3251   -0.4973    0.6229 N   0  0  0  0  0  0  0  0  0  0  0  0
   -5.4466    0.3424    0.0712 C   0  0  0  0  0  0  0  0  0  0  0  0
   -5.9043    1.8579   -0.2734 S   0  0  0  0  0  0  0  0  0  0  0  0
   -0.0766    2.9370    0.7685 H   0  0  0  0  0  0  0  0  0  0  0  0
   -1.2710    3.0200   -1.0537 H   0  0  0  0  0  0  0  0  0  0  0  0
   -2.9814    2.7428    0.3925 H   0  0  0  0  0  0  0  0  0  0  0  0
   -1.8372    0.2051    1.1382 H   0  0  0  0  0  0  0  0  0  0  0  0
   -3.7592    1.5986   -1.5783 H   0  0  0  0  0  0  0  0  0  0  0  0
   -1.0502    1.3759   -2.5808 H   0  0  0  0  0  0  0  0  0  0  0  0
    0.1633   -0.7462   -1.9843 H   0  0  0  0  0  0  0  0  0  0  0  0
    0.0496   -0.2926   -0.2719 H   0  0  0  0  0  0  0  0  0  0  0  0
    2.7301   -1.6464   -2.5001 H   0  0  0  0  0  0  0  0  0  0  0  0
    4.8612   -1.7454   -1.1055 H   0  0  0  0  0  0  0  0  0  0  0  0
    6.9854   -2.2580    1.0342 H   0  0  0  0  0  0  0  0  0  0  0  0
    7.7280    1.8048    0.5010 H   0  0  0  0  0  0  0  0  0  0  0  0
   -2.8121   -1.5702   -0.1493 H   0  0  0  0  0  0  0  0  0  0  0  0
   -4.4211   -3.1806    0.8846 H   0  0  0  0  0  0  0  0  0  0  0  0
   -7.3075   -0.2120    0.8436 H   0  0  0  0  0  0  0  0  0  0  0  0
  1  2  1  0
  2  3  1  0
  3  4  1  0
  3  5  1  0
  5  6  1  0
  6  7  1  0
  7  8  1  0
  8  9  1  0
  9 10  1  0
 10 11  1  0
 10 12  2  0
 10 13  1  0
 13 14  1  0
 14 15  1  0
 14 16  2  0
 14 17  1  0
 17 18  1  0
 18 19  1  0
 18 20  1  0
 18 21  2  0
  5 22  1  0
 22 23  1  0
 23 24  2  0
 24 25  1  0
 25 26  2  0
 25 27  1  0
 27 28  1  0
 28 29  2  0
  7  2  1  0
 28 22  1  0
  1 30  1  0
  2 31  1  6
  3 32  1  1
  4 33  1  0
  5 34  1  6
  7 35  1  6
  8 36  1  0
  8 37  1  0
 11 38  1  0
 15 39  1  0
 19 40  1  0
 20 41  1  0
 23 42  1  0
 24 43  1  0
 27 44  1  0
M  END
$$$$
[H]OC(=O)[C@@]([H])(N([H])C(=O)[C@@]([H])(N([H])C(=O)c1c([H])c(OC([H])([H])[H])c(OC([H])([H])[H])c(OC([H])([H])[H])c1[H])C([H])([H])c1c([H])c([H])c([H])c([H])c1[H])C([H])([H])c1c([H])c([H])c([H])c([H])c1[H]
     RDKit          3D

 67 69  0  0  0  0  0  0  0  0999 V2000
    5.6001    4.1886   -1.5825 C   0  0  0  0  0  0  0  0  0  0  0  0
    6.0506    3.2777   -0.5963 O   0  0  0  0  0  0  0  0  0  0  0  0
    5.2234    2.2028   -0.3014 C   0  0  0  0  0  0  0  0  0  0  0  0
    4.0193    1.9967   -0.9128 C   0  0  0  0  0  0  0  0  0  0  0  0
    3.2074    0.9079   -0.5977 C   0  0  0  0  0  0  0  0  0  0  0  0
    3.6290    0.0223    0.3499 C   0  0  0  0  0  0  0  0  0  0  0  0
    4.8428    0.2001    0.9894 C   0  0  0  0  0  0  0  0  0  0  0  0
    5.2396   -0.7192    1.9472 O   0  0  0  0  0  0  0  0  0  0  0  0
    4.4176   -1.8163    2.2628 C   0  0  0  0  0  0  0  0  0  0  0  0
    5.6203    1.2860    0.6545 C   0  0  0  0  0  0  0  0  0  0  0  0
    6.8402    1.4359    1.3192 O   0  0  0  0  0  0  0  0  0  0  0  0
    6.9451    2.1665    2.5261 C   0  0  0  0  0  0  0  0  0  0  0  0
    1.9391    0.7194   -1.2716 C   0  0  0  0  0  0  0  0  0  0  0  0
    1.6513    1.4821   -2.2273 O   0  0  0  0  0  0  0  0  0  0  0  0
    1.0323   -0.2755   -0.8963 N   0  0  0  0  0  0  0  0  0  0  0  0
   -0.2428   -0.4666   -1.5760 C   0  0  1  0  0  0  0  0  0  0  0  0
   -0.2767   -1.7646   -2.3277 C   0  0  0  0  0  0  0  0  0  0  0  0
   -0.0683   -2.9496   -1.4832 C   0  0  0  0  0  0  0  0  0  0  0  0
    1.2182   -3.4396   -1.2495 C   0  0  0  0  0  0  0  0  0  0  0  0
    1.4458   -4.5419   -0.4688 C   0  0  0  0  0  0  0  0  0  0  0  0
    0.4026   -5.2208    0.1254 C   0  0  0  0  0  0  0  0  0  0  0  0
   -0.8715   -4.7525   -0.0937 C   0  0  0  0  0  0  0  0  0  0  0  0
   -1.0998   -3.6334   -0.8866 C   0  0  0  0  0  0  0  0  0  0  0  0
   -1.4024   -0.2282   -0.6940 C   0  0  0  0  0  0  0  0  0  0  0  0
   -1.2076    0.0560    0.5248 O   0  0  0  0  0  0  0  0  0  0  0  0
   -2.7164   -0.3054   -1.1720 N   0  0  0  0  0  0  0  0  0  0  0  0
   -3.8532   -0.0503   -0.2443 C   0  0  1  0  0  0  0  0  0  0  0  0
   -4.4497    1.2974   -0.6186 C   0  0  0  0  0  0  0  0  0  0  0  0
   -5.5754    1.6825    0.2139 C   0  0  0  0  0  0  0  0  0  0  0  0
   -6.8791    1.4400   -0.1696 C   0  0  0  0  0  0  0  0  0  0  0  0
   -7.9156    1.8210    0.6497 C   0  0  0  0  0  0  0  0  0  0  0  0
   -7.6318    2.4468    1.8560 C   0  0  0  0  0  0  0  0  0  0  0  0
   -6.3294    2.6896    2.2400 C   0  0  0  0  0  0  0  0  0  0  0  0
   -5.2846    2.3131    1.4290 C   0  0  0  0  0  0  0  0  0  0  0  0
   -4.7954   -1.1704   -0.3509 C   0  0  0  0  0  0  0  0  0  0  0  0
   -5.8709   -1.2608    0.5056 O   0  0  0  0  0  0  0  0  0  0  0  0
   -4.6827   -2.0910   -1.1995 O   0  0  0  0  0  0  0  0  0  0  0  0
    5.2555    3.6769   -2.5016 H   0  0  0  0  0  0  0  0  0  0  0  0
    6.3709    4.9505   -1.8224 H   0  0  0  0  0  0  0  0  0  0  0  0
    4.7070    4.6955   -1.1470 H   0  0  0  0  0  0  0  0  0  0  0  0
    3.6544    2.6956   -1.6808 H   0  0  0  0  0  0  0  0  0  0  0  0
    3.0374   -0.8573    0.6421 H   0  0  0  0  0  0  0  0  0  0  0  0
    4.9511   -2.4924    2.9733 H   0  0  0  0  0  0  0  0  0  0  0  0
    3.4506   -1.4917    2.7087 H   0  0  0  0  0  0  0  0  0  0  0  0
    4.1561   -2.4145    1.3508 H   0  0  0  0  0  0  0  0  0  0  0  0
    7.7507    2.9260    2.3740 H   0  0  0  0  0  0  0  0  0  0  0  0
    5.9889    2.6116    2.8404 H   0  0  0  0  0  0  0  0  0  0  0  0
    7.3118    1.5039    3.3632 H   0  0  0  0  0  0  0  0  0  0  0  0
    1.2476   -0.9137   -0.1066 H   0  0  0  0  0  0  0  0  0  0  0  0
   -0.2915    0.3320   -2.3748 H   0  0  0  0  0  0  0  0  0  0  0  0
   -1.2528   -1.8076   -2.8616 H   0  0  0  0  0  0  0  0  0  0  0  0
    0.4950   -1.7028   -3.1259 H   0  0  0  0  0  0  0  0  0  0  0  0
    2.0574   -2.9338   -1.6976 H   0  0  0  0  0  0  0  0  0  0  0  0
    2.4481   -4.9406   -0.2743 H   0  0  0  0  0  0  0  0  0  0  0  0
    0.6057   -6.0954    0.7431 H   0  0  0  0  0  0  0  0  0  0  0  0
   -1.6764   -5.2945    0.3780 H   0  0  0  0  0  0  0  0  0  0  0  0
   -2.1166   -3.3427   -1.0025 H   0  0  0  0  0  0  0  0  0  0  0  0
   -2.9571   -0.5326   -2.1490 H   0  0  0  0  0  0  0  0  0  0  0  0
   -3.4256    0.0662    0.7620 H   0  0  0  0  0  0  0  0  0  0  0  0
   -4.7614    1.2039   -1.7023 H   0  0  0  0  0  0  0  0  0  0  0  0
   -3.6223    2.0601   -0.6263 H   0  0  0  0  0  0  0  0  0  0  0  0
   -7.1062    0.9438   -1.1256 H   0  0  0  0  0  0  0  0  0  0  0  0
   -8.9268    1.6439    0.3746 H   0  0  0  0  0  0  0  0  0  0  0  0
   -8.4796    2.7312    2.4729 H   0  0  0  0  0  0  0  0  0  0  0  0
   -6.1210    3.1716    3.1699 H   0  0  0  0  0  0  0  0  0  0  0  0
   -4.2552    2.4964    1.7158 H   0  0  0  0  0  0  0  0  0  0  0  0
   -6.6673   -1.8362    0.3495 H   0  0  0  0  0  0  0  0  0  0  0  0
  1  2  1  0
  2  3  1  0
  3  4  2  0
  4  5  1  0
  5  6  2  0
  6  7  1  0
  7  8  1  0
  8  9  1  0
  7 10  2  0
 10 11  1  0
 11 12  1  0
  5 13  1  0
 13 14  2  0
 13 15  1  0
 15 16  1  0
 16 17  1  0
 17 18  1  0
 18 19  2  0
 19 20  1  0
 20 21  2  0
 21 22  1  0
 22 23  2  0
 16 24  1  0
 24 25  2  0
 24 26  1  0
 26 27  1  0
 27 28  1  0
 28 29  1  0
 29 30  2  0
 30 31  1  0
 31 32  2  0
 32 33  1  0
 33 34  2  0
 27 35  1  0
 35 36  1  0
 35 37  2  0
 10  3  1  0
 23 18  1  0
 34 29  1  0
  1 38  1  0
  1 39  1  0
  1 40  1  0
  4 41  1  0
  6 42  1  0
  9 43  1  0
  9 44  1  0
  9 45  1  0
 12 46  1  0
 12 47  1  0
 12 48  1  0
 15 49  1  0
 16 50  1  6
 17 51  1  0
 17 52  1  0
 19 53  1  0
 20 54  1  0
 21 55  1  0
 22 56  1  0
 23 57  1  0
 26 58  1  0
 27 59  1  1
 28 60  1  0
 28 61  1  0
 30 62  1  0
 31 63  1  0
 32 64  1  0
 33 65  1  0
 34 66  1  0
 36 67  1  0
M  END
$$$$
[H]c1c([H])c(N([H])C(=O)c2c(C([H])([H])[H])c(C(=O)C(=O)N([H])C3(C#N)C([H])([H])C3([H])[H])c3n2C([H])([H])C([H])([H])C3([H])[H])c([H])c(C(F)(F)F)c1F
     RDKit          3D

 51 54  0  0  0  0  0  0  0  0999 V2000
   -0.0187    0.6851    1.5199 C   0  0  0  0  0  0  0  0  0  0  0  0
   -0.2834   -0.4861    0.6209 C   0  0  0  0  0  0  0  0  0  0  0  0
   -1.5340   -1.0962    0.4657 C   0  0  0  0  0  0  0  0  0  0  0  0
   -2.7234   -0.6257    1.1581 C   0  0  0  0  0  0  0  0  0  0  0  0
   -2.9511   -1.1425    2.3000 O   0  0  0  0  0  0  0  0  0  0  0  0
   -3.6193    0.3690    0.6148 C   0  0  0  0  0  0  0  0  0  0  0  0
   -3.3664    0.8585   -0.5130 O   0  0  0  0  0  0  0  0  0  0  0  0
   -4.7758    0.8213    1.2966 N   0  0  0  0  0  0  0  0  0  0  0  0
   -5.6596    1.8185    0.7340 C   0  0  0  0  0  0  0  0  0  0  0  0
   -6.3350    1.5261   -0.5835 C   0  0  0  0  0  0  0  0  0  0  0  0
   -7.1669    1.4804    0.7023 C   0  0  0  0  0  0  0  0  0  0  0  0
   -5.3608    3.2236    0.9755 C   0  0  0  0  0  0  0  0  0  0  0  0
   -5.1142    4.3481    1.1549 N   0  0  0  0  0  0  0  0  0  0  0  0
   -1.4185   -2.1466   -0.4051 C   0  0  0  0  0  0  0  0  0  0  0  0
   -2.2054   -3.2493   -1.0752 C   0  0  0  0  0  0  0  0  0  0  0  0
   -1.0747   -4.2437   -1.3146 C   0  0  0  0  0  0  0  0  0  0  0  0
    0.0329   -3.2959   -1.7164 C   0  0  0  0  0  0  0  0  0  0  0  0
   -0.1495   -2.1894   -0.7775 N   0  0  0  0  0  0  0  0  0  0  0  0
    0.5803   -1.1908   -0.1738 C   0  0  0  0  0  0  0  0  0  0  0  0
    2.0049   -0.9545   -0.4174 C   0  0  0  0  0  0  0  0  0  0  0  0
    2.6225   -1.9351   -0.9578 O   0  0  0  0  0  0  0  0  0  0  0  0
    2.7209    0.2023   -0.1268 N   0  0  0  0  0  0  0  0  0  0  0  0
    4.0791    0.4835   -0.3379 C   0  0  0  0  0  0  0  0  0  0  0  0
    4.8812   -0.2389   -1.1626 C   0  0  0  0  0  0  0  0  0  0  0  0
    6.2382    0.0600   -1.3284 C   0  0  0  0  0  0  0  0  0  0  0  0
    6.7869    1.1187   -0.6381 C   0  0  0  0  0  0  0  0  0  0  0  0
    8.1055    1.4163   -0.7932 F   0  0  0  0  0  0  0  0  0  0  0  0
    5.9998    1.8771    0.2103 C   0  0  0  0  0  0  0  0  0  0  0  0
    4.6692    1.5519    0.3473 C   0  0  0  0  0  0  0  0  0  0  0  0
    6.6000    3.0149    0.9486 C   0  0  0  0  0  0  0  0  0  0  0  0
    7.1253    3.9681    0.0913 F   0  0  0  0  0  0  0  0  0  0  0  0
    7.6868    2.5366    1.6874 F   0  0  0  0  0  0  0  0  0  0  0  0
    5.6627    3.5579    1.8055 F   0  0  0  0  0  0  0  0  0  0  0  0
    0.0174    1.6318    0.9756 H   0  0  0  0  0  0  0  0  0  0  0  0
   -0.8824    0.8050    2.2361 H   0  0  0  0  0  0  0  0  0  0  0  0
    0.8628    0.5326    2.1739 H   0  0  0  0  0  0  0  0  0  0  0  0
   -4.9743    0.4076    2.2307 H   0  0  0  0  0  0  0  0  0  0  0  0
   -6.0495    0.5705   -1.0473 H   0  0  0  0  0  0  0  0  0  0  0  0
   -6.5542    2.3846   -1.2520 H   0  0  0  0  0  0  0  0  0  0  0  0
   -7.4061    0.4817    1.0964 H   0  0  0  0  0  0  0  0  0  0  0  0
   -7.8715    2.3209    0.8650 H   0  0  0  0  0  0  0  0  0  0  0  0
   -2.9684   -3.6585   -0.4049 H   0  0  0  0  0  0  0  0  0  0  0  0
   -2.5959   -2.8229   -1.9998 H   0  0  0  0  0  0  0  0  0  0  0  0
   -1.3269   -4.9766   -2.0833 H   0  0  0  0  0  0  0  0  0  0  0  0
   -0.8045   -4.6880   -0.3383 H   0  0  0  0  0  0  0  0  0  0  0  0
    1.0410   -3.7432   -1.6063 H   0  0  0  0  0  0  0  0  0  0  0  0
   -0.1860   -2.9294   -2.7237 H   0  0  0  0  0  0  0  0  0  0  0  0
    2.1748    1.0079    0.2983 H   0  0  0  0  0  0  0  0  0  0  0  0
    4.5545   -1.0775   -1.7593 H   0  0  0  0  0  0  0  0  0  0  0  0
    6.8433   -0.5435   -1.9972 H   0  0  0  0  0  0  0  0  0  0  0  0
    4.0863    2.1739    1.0243 H   0  0  0  0  0  0  0  0  0  0  0  0
  1  2  1  0
  2  3  1  0
  3  4  1  0
  4  5  2  0
  4  6  1  0
  6  7  2  0
  6  8  1  0
  8  9  1  0
  9 10  1  0
 10 11  1  0
  9 12  1  0
 12 13  3  0
  3 14  2  0
 14 15  1  0
 15 16  1  0
 16 17  1  0
 17 18  1  0
 18 19  1  0
 19 20  1  0
 20 21  2  0
 20 22  1  0
 22 23  1  0
 23 24  2  0
 24 25  1  0
 25 26  2  0
 26 27  1  0
 26 28  1  0
 28 29  2  0
 28 30  1  0
 30 31  1  0
 30 32  1  0
 30 33  1  0
 19  2  2  0
 29 23  1  0
 11  9  1  0
 18 14  1  0
  1 34  1  0
  1 35  1  0
  1 36  1  0
  8 37  1  0
 10 38  1  0
 10 39  1  0
 11 40  1  0
 11 41  1  0
 15 42  1  0
 15 43  1  0
 16 44  1  0
 16 45  1  0
 17 46  1  0
 17 47  1  0
 22 48  1  0
 24 49  1  0
 25 50  1  0
 29 51  1  0
M  END
$$$$
[H]c1c([H])c(S(=O)(=O)C([H])([H])[H])c([H])c([H])c1C#Cc1c([H])c(O[C@@]([H])(C([H])([H])[H])C([H])([H])OC([H])([H])[H])c([H])c(C(=O)N([H])c2nn(C([H])([H])[H])c([H])c2[H])c1[H]
     RDKit          3D

 58 60  0  0  0  0  0  0  0  0999 V2000
   -4.6485    5.6868   -0.8980 C   0  0  0  0  0  0  0  0  0  0  0  0
   -4.5527    4.5792   -0.0768 O   0  0  0  0  0  0  0  0  0  0  0  0
   -3.2234    4.1777   -0.0401 C   0  0  0  0  0  0  0  0  0  0  0  0
   -3.0393    2.9551    0.8504 C   0  0  2  0  0  0  0  0  0  0  0  0
   -3.4042    3.3191    2.3006 C   0  0  0  0  0  0  0  0  0  0  0  0
   -1.6975    2.6100    0.8418 O   0  0  0  0  0  0  0  0  0  0  0  0
   -1.1780    1.4034    0.4868 C   0  0  0  0  0  0  0  0  0  0  0  0
    0.2158    1.2439    0.5433 C   0  0  0  0  0  0  0  0  0  0  0  0
    0.7515    0.0441    0.1918 C   0  0  0  0  0  0  0  0  0  0  0  0
   -0.0622   -0.9831   -0.2083 C   0  0  0  0  0  0  0  0  0  0  0  0
   -1.4423   -0.8791   -0.2818 C   0  0  0  0  0  0  0  0  0  0  0  0
   -1.9609    0.3441    0.0785 C   0  0  0  0  0  0  0  0  0  0  0  0
   -2.2408   -2.0122   -0.7210 C   0  0  0  0  0  0  0  0  0  0  0  0
   -1.6345   -2.9823   -1.2308 O   0  0  0  0  0  0  0  0  0  0  0  0
   -3.6345   -2.0347   -0.5862 N   0  0  0  0  0  0  0  0  0  0  0  0
   -4.4819   -3.1000   -0.9894 C   0  0  0  0  0  0  0  0  0  0  0  0
   -4.1222   -4.2833   -1.5729 C   0  0  0  0  0  0  0  0  0  0  0  0
   -5.3226   -4.9857   -1.7719 C   0  0  0  0  0  0  0  0  0  0  0  0
   -6.3185   -4.2132   -1.3116 N   0  0  0  0  0  0  0  0  0  0  0  0
   -7.7320   -4.5598   -1.3241 C   0  0  0  0  0  0  0  0  0  0  0  0
   -5.8491   -3.0964   -0.8452 N   0  0  0  0  0  0  0  0  0  0  0  0
    2.2032   -0.1306    0.2477 C   0  0  0  0  0  0  0  0  0  0  0  0
    3.4005   -0.2583    0.3063 C   0  0  0  0  0  0  0  0  0  0  0  0
    4.8275   -0.3980    0.3895 C   0  0  0  0  0  0  0  0  0  0  0  0
    5.5381    0.3842    1.2485 C   0  0  0  0  0  0  0  0  0  0  0  0
    6.9088    0.2511    1.3294 C   0  0  0  0  0  0  0  0  0  0  0  0
    7.6245   -0.6529    0.5707 C   0  0  0  0  0  0  0  0  0  0  0  0
    6.8987   -1.4449   -0.3000 C   0  0  0  0  0  0  0  0  0  0  0  0
    5.5245   -1.3112   -0.3809 C   0  0  0  0  0  0  0  0  0  0  0  0
    9.3644   -0.7749    0.7185 S   0  0  0  0  0  0  0  0  0  0  0  0
   10.1736    0.3213   -0.4161 C   0  0  0  0  0  0  0  0  0  0  0  0
    9.7767   -2.1974    0.5070 O   0  0  0  0  0  0  0  0  0  0  0  0
    9.7029   -0.4342    2.1549 O   0  0  0  0  0  0  0  0  0  0  0  0
   -5.6889    6.0701   -0.9791 H   0  0  0  0  0  0  0  0  0  0  0  0
   -3.9568    6.4629   -0.5066 H   0  0  0  0  0  0  0  0  0  0  0  0
   -4.3185    5.4784   -1.9422 H   0  0  0  0  0  0  0  0  0  0  0  0
   -2.9429    3.8586   -1.0643 H   0  0  0  0  0  0  0  0  0  0  0  0
   -2.5351    4.9756    0.3020 H   0  0  0  0  0  0  0  0  0  0  0  0
   -3.7472    2.1765    0.5407 H   0  0  0  0  0  0  0  0  0  0  0  0
   -3.7351    2.3773    2.7931 H   0  0  0  0  0  0  0  0  0  0  0  0
   -4.1881    4.0809    2.3425 H   0  0  0  0  0  0  0  0  0  0  0  0
   -2.4718    3.6295    2.8471 H   0  0  0  0  0  0  0  0  0  0  0  0
    0.8578    2.0527    0.8585 H   0  0  0  0  0  0  0  0  0  0  0  0
    0.3676   -1.9370   -0.4872 H   0  0  0  0  0  0  0  0  0  0  0  0
   -3.0309    0.4513    0.0264 H   0  0  0  0  0  0  0  0  0  0  0  0
   -4.1114   -1.1826   -0.1434 H   0  0  0  0  0  0  0  0  0  0  0  0
   -3.1469   -4.6603   -1.8485 H   0  0  0  0  0  0  0  0  0  0  0  0
   -5.3715   -5.9761   -2.2237 H   0  0  0  0  0  0  0  0  0  0  0  0
   -8.2221   -3.8778   -2.0699 H   0  0  0  0  0  0  0  0  0  0  0  0
   -8.1686   -4.4038   -0.3228 H   0  0  0  0  0  0  0  0  0  0  0  0
   -7.8757   -5.5937   -1.6899 H   0  0  0  0  0  0  0  0  0  0  0  0
    4.9915    1.1056    1.8577 H   0  0  0  0  0  0  0  0  0  0  0  0
    7.4669    0.8809    2.0189 H   0  0  0  0  0  0  0  0  0  0  0  0
    7.4395   -2.1656   -0.9095 H   0  0  0  0  0  0  0  0  0  0  0  0
    4.9823   -1.9496   -1.0763 H   0  0  0  0  0  0  0  0  0  0  0  0
    9.4336    0.9579   -0.9277 H   0  0  0  0  0  0  0  0  0  0  0  0
   10.9115    0.9053    0.1718 H   0  0  0  0  0  0  0  0  0  0  0  0
   10.6952   -0.3044   -1.1652 H   0  0  0  0  0  0  0  0  0  0  0  0
  1  2  1  0
  2  3  1  0
  3  4  1  0
  4  5  1  0
  4  6  1  0
  6  7  1  0
  7  8  2  0
  8  9  1  0
  9 10  2  0
 10 11  1  0
 11 12  2  0
 11 13  1  0
 13 14  2  0
 13 15  1  0
 15 16  1  0
 16 17  1  0
 17 18  2  0
 18 19  1  0
 19 20  1  0
 19 21  1  0
  9 22  1  0
 22 23  3  0
 23 24  1  0
 24 25  2  0
 25 26  1  0
 26 27  2  0
 27 28  1  0
 28 29  2  0
 27 30  1  0
 30 31  1  0
 30 32  2  0
 30 33  2  0
 12  7  1  0
 21 16  2  0
 29 24  1  0
  1 34  1  0
  1 35  1  0
  1 36  1  0
  3 37  1  0
  3 38  1  0
  4 39  1  6
  5 40  1  0
  5 41  1  0
  5 42  1  0
  8 43  1  0
 10 44  1  0
 12 45  1  0
 15 46  1  0
 17 47  1  0
 18 48  1  0
 20 49  1  0
 20 50  1  0
 20 51  1  0
 25 52  1  0
 26 53  1  0
 28 54  1  0
 29 55  1  0
 31 56  1  0
 31 57  1  0
 31 58  1  0
M  END
$$$$
[H]C(=O)[C@@]([H])(N([H])C(=O)[C@@]([H])(N([H])C(=O)[C@@]([H])(N([H])C(=O)OC([H])([H])c1c([H])c([H])c([H])c([H])c1[H])C([H])([H])c1c([H])c([H])c([H])c([H])c1[H])C([H])([H])C([H])(C([H])([H])[H])C([H])([H])[H])C([H])([H])C([H])(C([H])([H])[H])C([H])([H])[H]
     RDKit          3D

 76 77  0  0  0  0  0  0  0  0999 V2000
   -5.2007    2.8782   -0.3952 C   0  0  0  0  0  0  0  0  0  0  0  0
   -6.1513    2.4313    0.6534 C   0  0  0  0  0  0  0  0  0  0  0  0
   -6.3463    3.6068    1.6355 C   0  0  0  0  0  0  0  0  0  0  0  0
   -5.7634    1.2676    1.4784 C   0  0  0  0  0  0  0  0  0  0  0  0
   -5.5328   -0.0360    0.8111 C   0  0  2  0  0  0  0  0  0  0  0  0
   -4.4791    0.0073   -0.1676 N   0  0  0  0  0  0  0  0  0  0  0  0
   -3.1919   -0.5257    0.0601 C   0  0  0  0  0  0  0  0  0  0  0  0
   -2.9060   -1.0737    1.1314 O   0  0  0  0  0  0  0  0  0  0  0  0
   -2.1604   -0.4127   -1.0277 C   0  0  2  0  0  0  0  0  0  0  0  0
   -2.7315   -0.8712   -2.3114 C   0  0  0  0  0  0  0  0  0  0  0  0
   -3.2424   -2.2724   -2.3587 C   0  0  0  0  0  0  0  0  0  0  0  0
   -3.8158   -2.5017   -3.7851 C   0  0  0  0  0  0  0  0  0  0  0  0
   -2.2145   -3.3498   -2.1833 C   0  0  0  0  0  0  0  0  0  0  0  0
   -0.8877   -0.9339   -0.6590 N   0  0  0  0  0  0  0  0  0  0  0  0
    0.1562   -0.0474   -0.2321 C   0  0  0  0  0  0  0  0  0  0  0  0
   -0.1549    1.1951   -0.2038 O   0  0  0  0  0  0  0  0  0  0  0  0
    1.5153   -0.4934    0.1646 C   0  0  2  0  0  0  0  0  0  0  0  0
    1.5972   -1.8851    0.6885 C   0  0  0  0  0  0  0  0  0  0  0  0
    2.9802   -2.2586    1.0842 C   0  0  0  0  0  0  0  0  0  0  0  0
    3.8556   -2.8177    0.1824 C   0  0  0  0  0  0  0  0  0  0  0  0
    5.1547   -3.1721    0.5670 C   0  0  0  0  0  0  0  0  0  0  0  0
    5.5649   -2.9605    1.8623 C   0  0  0  0  0  0  0  0  0  0  0  0
    4.6841   -2.3993    2.7628 C   0  0  0  0  0  0  0  0  0  0  0  0
    3.3912   -2.0482    2.3743 C   0  0  0  0  0  0  0  0  0  0  0  0
    2.1754    0.5019    0.9822 N   0  0  0  0  0  0  0  0  0  0  0  0
    3.2093    1.3443    0.4982 C   0  0  0  0  0  0  0  0  0  0  0  0
    3.5943    1.2571   -0.6878 O   0  0  0  0  0  0  0  0  0  0  0  0
    3.8264    2.2856    1.3074 O   0  0  0  0  0  0  0  0  0  0  0  0
    4.8370    3.1662    0.9513 C   0  0  0  0  0  0  0  0  0  0  0  0
    6.0752    2.5574    0.4584 C   0  0  0  0  0  0  0  0  0  0  0  0
    6.9213    1.7707    1.2134 C   0  0  0  0  0  0  0  0  0  0  0  0
    8.0858    1.2243    0.7004 C   0  0  0  0  0  0  0  0  0  0  0  0
    8.4363    1.4591   -0.6101 C   0  0  0  0  0  0  0  0  0  0  0  0
    7.6060    2.2489   -1.4033 C   0  0  0  0  0  0  0  0  0  0  0  0
    6.4579    2.7733   -0.8562 C   0  0  0  0  0  0  0  0  0  0  0  0
   -6.7377   -0.7515    0.3628 C   0  0  0  0  0  0  0  0  0  0  0  0
   -6.8160   -1.2782   -0.7269 O   0  0  0  0  0  0  0  0  0  0  0  0
   -5.1747    4.0081   -0.3864 H   0  0  0  0  0  0  0  0  0  0  0  0
   -4.1415    2.5853   -0.2232 H   0  0  0  0  0  0  0  0  0  0  0  0
   -5.5264    2.6369   -1.4318 H   0  0  0  0  0  0  0  0  0  0  0  0
   -7.1497    2.3236    0.1655 H   0  0  0  0  0  0  0  0  0  0  0  0
   -5.3970    4.1685    1.7844 H   0  0  0  0  0  0  0  0  0  0  0  0
   -6.6336    3.2156    2.6386 H   0  0  0  0  0  0  0  0  0  0  0  0
   -7.1327    4.2854    1.3030 H   0  0  0  0  0  0  0  0  0  0  0  0
   -4.8478    1.5408    2.0546 H   0  0  0  0  0  0  0  0  0  0  0  0
   -6.5611    1.1488    2.2628 H   0  0  0  0  0  0  0  0  0  0  0  0
   -5.0984   -0.7054    1.6495 H   0  0  0  0  0  0  0  0  0  0  0  0
   -4.6485    0.4405   -1.1302 H   0  0  0  0  0  0  0  0  0  0  0  0
   -2.0111    0.7422   -1.1706 H   0  0  0  0  0  0  0  0  0  0  0  0
   -1.8783   -0.8284   -3.0673 H   0  0  0  0  0  0  0  0  0  0  0  0
   -3.4779   -0.1519   -2.7407 H   0  0  0  0  0  0  0  0  0  0  0  0
   -4.0747   -2.4559   -1.6372 H   0  0  0  0  0  0  0  0  0  0  0  0
   -3.1965   -3.1963   -4.3614 H   0  0  0  0  0  0  0  0  0  0  0  0
   -3.8730   -1.5582   -4.3246 H   0  0  0  0  0  0  0  0  0  0  0  0
   -4.8339   -2.9200   -3.6940 H   0  0  0  0  0  0  0  0  0  0  0  0
   -2.0989   -3.6825   -1.1229 H   0  0  0  0  0  0  0  0  0  0  0  0
   -1.2559   -3.0232   -2.6344 H   0  0  0  0  0  0  0  0  0  0  0  0
   -2.5703   -4.2428   -2.7913 H   0  0  0  0  0  0  0  0  0  0  0  0
   -0.6448   -1.9324   -0.6596 H   0  0  0  0  0  0  0  0  0  0  0  0
    2.0824   -0.5133   -0.8329 H   0  0  0  0  0  0  0  0  0  0  0  0
    1.1792   -2.6392   -0.0126 H   0  0  0  0  0  0  0  0  0  0  0  0
    0.9843   -2.0207    1.6288 H   0  0  0  0  0  0  0  0  0  0  0  0
    3.6116   -3.0161   -0.8587 H   0  0  0  0  0  0  0  0  0  0  0  0
    5.8699   -3.6140   -0.1121 H   0  0  0  0  0  0  0  0  0  0  0  0
    6.5513   -3.2163    2.2004 H   0  0  0  0  0  0  0  0  0  0  0  0
    4.9825   -2.2176    3.8091 H   0  0  0  0  0  0  0  0  0  0  0  0
    2.7636   -1.6128    3.1412 H   0  0  0  0  0  0  0  0  0  0  0  0
    1.8948    0.6364    2.0013 H   0  0  0  0  0  0  0  0  0  0  0  0
    5.1057    3.7327    1.8971 H   0  0  0  0  0  0  0  0  0  0  0  0
    4.5167    3.9644    0.2506 H   0  0  0  0  0  0  0  0  0  0  0  0
    6.6784    1.5619    2.2477 H   0  0  0  0  0  0  0  0  0  0  0  0
    8.7609    0.6005    1.2887 H   0  0  0  0  0  0  0  0  0  0  0  0
    9.3175    1.0674   -1.0695 H   0  0  0  0  0  0  0  0  0  0  0  0
    7.8915    2.4320   -2.4436 H   0  0  0  0  0  0  0  0  0  0  0  0
    5.8347    3.3856   -1.5037 H   0  0  0  0  0  0  0  0  0  0  0  0
   -7.5901   -0.8157    1.0236 H   0  0  0  0  0  0  0  0  0  0  0  0
  1  2  1  0
  2  3  1  0
  2  4  1  0
  4  5  1  0
  5  6  1  0
  6  7  1  0
  7  8  2  0
  7  9  1  0
  9 10  1  0
 10 11  1  0
 11 12  1  0
 11 13  1  0
  9 14  1  0
 14 15  1  0
 15 16  2  0
 15 17  1  0
 17 18  1  0
 18 19  1  0
 19 20  2  0
 20 21  1  0
 21 22  2  0
 22 23  1  0
 23 24  2  0
 17 25  1  0
 25 26  1  0
 26 27  2  0
 26 28  1  0
 28 29  1  0
 29 30  1  0
 30 31  2  0
 31 32  1  0
 32 33  2  0
 33 34  1  0
 34 35  2  0
  5 36  1  0
 36 37  2  0
 24 19  1  0
 35 30  1  0
  1 38  1  0
  1 39  1  0
  1 40  1  0
  2 41  1  0
  3 42  1  0
  3 43  1  0
  3 44  1  0
  4 45  1  0
  4 46  1  0
  5 47  1  1
  6 48  1  0
  9 49  1  6
 10 50  1  0
 10 51  1  0
 11 52  1  0
 12 53  1  0
 12 54  1  0
 12 55  1  0
 13 56  1  0
 13 57  1  0
 13 58  1  0
 14 59  1  0
 17 60  1  6
 18 61  1  0
 18 62  1  0
 20 63  1  0
 21 64  1  0
 22 65  1  0
 23 66  1  0
 24 67  1  0
 25 68  1  0
 29 69  1  0
 29 70  1  0
 31 71  1  0
 32 72  1  0
 33 73  1  0
 34 74  1  0
 35 75  1  0
 36 76  1  0
M  END
$$$$
[H]O[C@]([H])(C([H])([H])N([H])C(=O)c1c(C([H])([H])[H])c(/C([H])=C2\C(=O)N([H])c3c([H])c([H])c(F)c([H])c32)n([H])c1C([H])([H])[H])C([H])([H])N1C([H])([H])C([H])([H])C([H])([H])C([H])([H])C1([H])[H]
     RDKit          3D

 61 64  0  0  0  0  0  0  0  0999 V2000
    0.7961    2.8897    1.7221 C   0  0  0  0  0  0  0  0  0  0  0  0
    1.5139    1.5830    1.4994 C   0  0  0  0  0  0  0  0  0  0  0  0
    2.8802    1.5115    1.4139 N   0  0  0  0  0  0  0  0  0  0  0  0
    3.2038    0.2232    1.2560 C   0  0  0  0  0  0  0  0  0  0  0  0
    4.5822   -0.2582    1.0978 C   0  0  0  0  0  0  0  0  0  0  0  0
    5.3698    0.1179    0.1054 C   0  0  0  0  0  0  0  0  0  0  0  0
    5.0828    1.0150   -0.9796 C   0  0  0  0  0  0  0  0  0  0  0  0
    3.9988    1.6056   -1.2105 O   0  0  0  0  0  0  0  0  0  0  0  0
    6.2848    1.1168   -1.7754 N   0  0  0  0  0  0  0  0  0  0  0  0
    7.3028    0.3086   -1.2135 C   0  0  0  0  0  0  0  0  0  0  0  0
    8.5978    0.1020   -1.6347 C   0  0  0  0  0  0  0  0  0  0  0  0
    9.4129   -0.7490   -0.9030 C   0  0  0  0  0  0  0  0  0  0  0  0
    8.9095   -1.3584    0.2140 C   0  0  0  0  0  0  0  0  0  0  0  0
    9.7388   -2.1940    0.9145 F   0  0  0  0  0  0  0  0  0  0  0  0
    7.5950   -1.1332    0.6204 C   0  0  0  0  0  0  0  0  0  0  0  0
    6.7769   -0.2943   -0.0924 C   0  0  0  0  0  0  0  0  0  0  0  0
    2.0748   -0.5480    1.2376 C   0  0  0  0  0  0  0  0  0  0  0  0
    2.0063   -1.9997    1.0867 C   0  0  0  0  0  0  0  0  0  0  0  0
    0.9946    0.3296    1.3920 C   0  0  0  0  0  0  0  0  0  0  0  0
   -0.4057   -0.1127    1.3530 C   0  0  0  0  0  0  0  0  0  0  0  0
   -0.5974   -1.2986    1.7079 O   0  0  0  0  0  0  0  0  0  0  0  0
   -1.4227    0.7279    0.9469 N   0  0  0  0  0  0  0  0  0  0  0  0
   -2.8398    0.4199    0.8533 C   0  0  0  0  0  0  0  0  0  0  0  0
   -3.1219   -0.6132   -0.1660 C   0  0  1  0  0  0  0  0  0  0  0  0
   -2.5996   -1.8567    0.1124 O   0  0  0  0  0  0  0  0  0  0  0  0
   -4.5077   -0.6784   -0.7073 C   0  0  0  0  0  0  0  0  0  0  0  0
   -5.5209   -1.2416    0.1241 N   0  0  0  0  0  0  0  0  0  0  0  0
   -6.7127   -1.5880   -0.7071 C   0  0  0  0  0  0  0  0  0  0  0  0
   -7.0773   -0.4838   -1.6402 C   0  0  0  0  0  0  0  0  0  0  0  0
   -7.3660    0.8138   -0.9264 C   0  0  0  0  0  0  0  0  0  0  0  0
   -6.5261    1.0147    0.2911 C   0  0  0  0  0  0  0  0  0  0  0  0
   -6.1114   -0.2135    1.0171 C   0  0  0  0  0  0  0  0  0  0  0  0
    0.5267    3.2924    0.7473 H   0  0  0  0  0  0  0  0  0  0  0  0
   -0.0391    2.6818    2.4109 H   0  0  0  0  0  0  0  0  0  0  0  0
    1.5453    3.5730    2.2206 H   0  0  0  0  0  0  0  0  0  0  0  0
    3.5325    2.3508    1.4760 H   0  0  0  0  0  0  0  0  0  0  0  0
    4.9604   -0.9500    1.8290 H   0  0  0  0  0  0  0  0  0  0  0  0
    6.3345    1.7198   -2.6322 H   0  0  0  0  0  0  0  0  0  0  0  0
    9.0175    0.5734   -2.5107 H   0  0  0  0  0  0  0  0  0  0  0  0
   10.4361   -0.8989   -1.2551 H   0  0  0  0  0  0  0  0  0  0  0  0
    7.2235   -1.6170    1.4912 H   0  0  0  0  0  0  0  0  0  0  0  0
    3.0153   -2.4172    0.8657 H   0  0  0  0  0  0  0  0  0  0  0  0
    1.3078   -2.2678    0.2525 H   0  0  0  0  0  0  0  0  0  0  0  0
    1.6089   -2.4793    2.0012 H   0  0  0  0  0  0  0  0  0  0  0  0
   -1.2053    1.7470    0.6208 H   0  0  0  0  0  0  0  0  0  0  0  0
   -3.4379    1.3348    0.6979 H   0  0  0  0  0  0  0  0  0  0  0  0
   -3.1398    0.0426    1.8896 H   0  0  0  0  0  0  0  0  0  0  0  0
   -2.4595   -0.2775   -1.0772 H   0  0  0  0  0  0  0  0  0  0  0  0
   -3.1083   -2.3929    0.7431 H   0  0  0  0  0  0  0  0  0  0  0  0
   -4.7480    0.3347   -1.1110 H   0  0  0  0  0  0  0  0  0  0  0  0
   -4.4423   -1.3188   -1.6426 H   0  0  0  0  0  0  0  0  0  0  0  0
   -7.5332   -1.7462    0.0044 H   0  0  0  0  0  0  0  0  0  0  0  0
   -6.5031   -2.4966   -1.3009 H   0  0  0  0  0  0  0  0  0  0  0  0
   -6.3655   -0.3706   -2.4849 H   0  0  0  0  0  0  0  0  0  0  0  0
   -8.0442   -0.7863   -2.1177 H   0  0  0  0  0  0  0  0  0  0  0  0
   -8.4471    0.9409   -0.7275 H   0  0  0  0  0  0  0  0  0  0  0  0
   -7.0961    1.6317   -1.6574 H   0  0  0  0  0  0  0  0  0  0  0  0
   -7.1681    1.6026    1.0181 H   0  0  0  0  0  0  0  0  0  0  0  0
   -5.6675    1.7031    0.0897 H   0  0  0  0  0  0  0  0  0  0  0  0
   -6.9858   -0.7187    1.4907 H   0  0  0  0  0  0  0  0  0  0  0  0
   -5.4302    0.0512    1.8297 H   0  0  0  0  0  0  0  0  0  0  0  0
  1  2  1  0
  2  3  1  0
  3  4  1  0
  4  5  1  0
  5  6  2  0
  6  7  1  0
  7  8  2  0
  7  9  1  0
  9 10  1  0
 10 11  2  0
 11 12  1  0
 12 13  2  0
 13 14  1  0
 13 15  1  0
 15 16  2  0
  4 17  2  0
 17 18  1  0
 17 19  1  0
 19 20  1  0
 20 21  2  0
 20 22  1  0
 22 23  1  0
 23 24  1  0
 24 25  1  0
 24 26  1  0
 26 27  1  0
 27 28  1  0
 28 29  1  0
 29 30  1  0
 30 31  1  0
 31 32  1  0
 19  2  2  0
 32 27  1  0
 16  6  1  0
 16 10  1  0
  1 33  1  0
  1 34  1  0
  1 35  1  0
  3 36  1  0
  5 37  1  0
  9 38  1  0
 11 39  1  0
 12 40  1  0
 15 41  1  0
 18 42  1  0
 18 43  1  0
 18 44  1  0
 22 45  1  0
 23 46  1  0
 23 47  1  0
 24 48  1  6
 25 49  1  0
 26 50  1  0
 26 51  1  0
 28 52  1  0
 28 53  1  0
 29 54  1  0
 29 55  1  0
 30 56  1  0
 30 57  1  0
 31 58  1  0
 31 59  1  0
 32 60  1  0
 32 61  1  0
M  END
$$$$
[H]N=C(N([H])[H])N([H])C([H])([H])C([H])([H])C([H])([H])[C@@]([H])(C([H])=O)N([H])C(=O)[C@@]1([H])N(C(=O)[C@@]([H])(N([H])C(=O)OC(C([H])([H])[H])(C([H])([H])[H])C([H])([H])[H])C([H])([H])C([H])([H])C(=O)O[H])C([H])([H])C([H])([H])C1([H])[H]
     RDKit          3D

 70 70  0  0  0  0  0  0  0  0999 V2000
   -8.4941    0.7645   -0.6658 C   0  0  0  0  0  0  0  0  0  0  0  0
   -7.3278    0.1974    0.1276 C   0  0  0  0  0  0  0  0  0  0  0  0
   -7.3514   -1.3033   -0.0365 C   0  0  0  0  0  0  0  0  0  0  0  0
   -7.5082    0.5280    1.5740 C   0  0  0  0  0  0  0  0  0  0  0  0
   -6.1051    0.6826   -0.3953 O   0  0  0  0  0  0  0  0  0  0  0  0
   -4.8812    0.3488    0.1089 C   0  0  0  0  0  0  0  0  0  0  0  0
   -4.8549   -0.4413    1.1007 O   0  0  0  0  0  0  0  0  0  0  0  0
   -3.6496    0.8350   -0.4137 N   0  0  0  0  0  0  0  0  0  0  0  0
   -2.3454    0.4702    0.1348 C   0  0  1  0  0  0  0  0  0  0  0  0
   -1.5440   -0.3542   -0.8110 C   0  0  0  0  0  0  0  0  0  0  0  0
   -2.3035   -1.6468   -1.1746 C   0  0  0  0  0  0  0  0  0  0  0  0
   -1.4921   -2.4512   -2.1171 C   0  0  0  0  0  0  0  0  0  0  0  0
   -1.9771   -3.6484   -2.5747 O   0  0  0  0  0  0  0  0  0  0  0  0
   -0.3604   -2.0168   -2.4847 O   0  0  0  0  0  0  0  0  0  0  0  0
   -1.6888    1.6287    0.7507 C   0  0  0  0  0  0  0  0  0  0  0  0
   -2.4835    2.4504    1.3966 O   0  0  0  0  0  0  0  0  0  0  0  0
   -0.3459    2.0122    0.7681 N   0  0  0  0  0  0  0  0  0  0  0  0
    0.1101    3.2118    1.5357 C   0  0  0  0  0  0  0  0  0  0  0  0
    0.9520    3.9274    0.5024 C   0  0  0  0  0  0  0  0  0  0  0  0
    1.5439    2.8181   -0.2967 C   0  0  0  0  0  0  0  0  0  0  0  0
    0.8726    1.5436    0.1773 C   0  0  1  0  0  0  0  0  0  0  0  0
    1.7074    0.7765    1.1386 C   0  0  0  0  0  0  0  0  0  0  0  0
    1.2788    0.5258    2.2906 O   0  0  0  0  0  0  0  0  0  0  0  0
    3.0044    0.3005    0.8063 N   0  0  0  0  0  0  0  0  0  0  0  0
    3.8327   -0.4450    1.7202 C   0  0  1  0  0  0  0  0  0  0  0  0
    4.1525   -1.8319    1.3065 C   0  0  0  0  0  0  0  0  0  0  0  0
    4.8628   -2.0438    0.0298 C   0  0  0  0  0  0  0  0  0  0  0  0
    6.2114   -1.4423   -0.1241 C   0  0  0  0  0  0  0  0  0  0  0  0
    6.7382   -1.7874   -1.4293 N   0  0  0  0  0  0  0  0  0  0  0  0
    8.0151   -1.3487   -1.8548 C   0  0  0  0  0  0  0  0  0  0  0  0
    8.4779   -0.0472   -1.4700 N   0  0  0  0  0  0  0  0  0  0  0  0
    8.8082   -2.0569   -2.5830 N   0  0  0  0  0  0  0  0  0  0  0  0
    5.0000    0.3360    2.1515 C   0  0  0  0  0  0  0  0  0  0  0  0
    5.1846    1.5038    1.7928 O   0  0  0  0  0  0  0  0  0  0  0  0
   -9.3341    0.8884    0.0360 H   0  0  0  0  0  0  0  0  0  0  0  0
   -8.2610    1.7496   -1.1010 H   0  0  0  0  0  0  0  0  0  0  0  0
   -8.8060    0.0244   -1.4411 H   0  0  0  0  0  0  0  0  0  0  0  0
   -7.5495   -1.7668    0.9425 H   0  0  0  0  0  0  0  0  0  0  0  0
   -8.1411   -1.6208   -0.7774 H   0  0  0  0  0  0  0  0  0  0  0  0
   -6.3654   -1.6617   -0.4138 H   0  0  0  0  0  0  0  0  0  0  0  0
   -8.5986    0.5890    1.7773 H   0  0  0  0  0  0  0  0  0  0  0  0
   -7.1210   -0.2869    2.2249 H   0  0  0  0  0  0  0  0  0  0  0  0
   -7.1018    1.5304    1.8496 H   0  0  0  0  0  0  0  0  0  0  0  0
   -3.7265    1.4888   -1.2387 H   0  0  0  0  0  0  0  0  0  0  0  0
   -2.6152   -0.2384    0.9885 H   0  0  0  0  0  0  0  0  0  0  0  0
   -0.6299   -0.7732   -0.2853 H   0  0  0  0  0  0  0  0  0  0  0  0
   -1.2666    0.1377   -1.7529 H   0  0  0  0  0  0  0  0  0  0  0  0
   -2.4612   -2.1702   -0.2045 H   0  0  0  0  0  0  0  0  0  0  0  0
   -3.2813   -1.3474   -1.5864 H   0  0  0  0  0  0  0  0  0  0  0  0
   -2.0519   -4.4554   -1.9632 H   0  0  0  0  0  0  0  0  0  0  0  0
    0.7094    2.8986    2.4115 H   0  0  0  0  0  0  0  0  0  0  0  0
   -0.7546    3.8216    1.8534 H   0  0  0  0  0  0  0  0  0  0  0  0
    0.2215    4.5408   -0.1041 H   0  0  0  0  0  0  0  0  0  0  0  0
    1.6859    4.5619    1.0145 H   0  0  0  0  0  0  0  0  0  0  0  0
    1.2726    2.9817   -1.3584 H   0  0  0  0  0  0  0  0  0  0  0  0
    2.6421    2.7610   -0.2602 H   0  0  0  0  0  0  0  0  0  0  0  0
    0.7503    0.9419   -0.7507 H   0  0  0  0  0  0  0  0  0  0  0  0
    3.4019    0.4867   -0.1423 H   0  0  0  0  0  0  0  0  0  0  0  0
    3.1973   -0.5577    2.6643 H   0  0  0  0  0  0  0  0  0  0  0  0
    3.2434   -2.4825    1.3541 H   0  0  0  0  0  0  0  0  0  0  0  0
    4.8148   -2.2552    2.1263 H   0  0  0  0  0  0  0  0  0  0  0  0
    4.9913   -3.1630   -0.0987 H   0  0  0  0  0  0  0  0  0  0  0  0
    4.2730   -1.7542   -0.8711 H   0  0  0  0  0  0  0  0  0  0  0  0
    6.2232   -0.3244   -0.1021 H   0  0  0  0  0  0  0  0  0  0  0  0
    6.9465   -1.8235    0.6327 H   0  0  0  0  0  0  0  0  0  0  0  0
    6.1725   -2.3681   -2.0691 H   0  0  0  0  0  0  0  0  0  0  0  0
    8.2352    0.2481   -0.4818 H   0  0  0  0  0  0  0  0  0  0  0  0
    9.0120    0.5621   -2.1129 H   0  0  0  0  0  0  0  0  0  0  0  0
    8.5025   -3.0252   -2.8892 H   0  0  0  0  0  0  0  0  0  0  0  0
    5.7306   -0.1348    2.8136 H   0  0  0  0  0  0  0  0  0  0  0  0
  1  2  1  0
  2  3  1  0
  2  4  1  0
  2  5  1  0
  5  6  1  0
  6  7  2  0
  6  8  1  0
  8  9  1  0
  9 10  1  0
 10 11  1  0
 11 12  1  0
 12 13  1  0
 12 14  2  0
  9 15  1  0
 15 16  2  0
 15 17  1  0
 17 18  1  0
 18 19  1  0
 19 20  1  0
 20 21  1  0
 21 22  1  0
 22 23  2  0
 22 24  1  0
 24 25  1  0
 25 26  1  0
 26 27  1  0
 27 28  1  0
 28 29  1  0
 29 30  1  0
 30 31  1  0
 30 32  2  3
 25 33  1  0
 33 34  2  0
 21 17  1  0
  1 35  1  0
  1 36  1  0
  1 37  1  0
  3 38  1  0
  3 39  1  0
  3 40  1  0
  4 41  1  0
  4 42  1  0
  4 43  1  0
  8 44  1  0
  9 45  1  1
 10 46  1  0
 10 47  1  0
 11 48  1  0
 11 49  1  0
 13 50  1  0
 18 51  1  0
 18 52  1  0
 19 53  1  0
 19 54  1  0
 20 55  1  0
 20 56  1  0
 21 57  1  6
 24 58  1  0
 25 59  1  1
 26 60  1  0
 26 61  1  0
 27 62  1  0
 27 63  1  0
 28 64  1  0
 28 65  1  0
 29 66  1  0
 31 67  1  0
 31 68  1  0
 32 69  1  0
 33 70  1  0
M  END
$$$$
[H]N=C(N([H])[H])N([H])C([H])([H])C([H])([H])C([H])([H])[C@@]([H])(C(=O)N([H])[C@]([H])(C(=O)O[H])C([H])([H])C(=O)N([H])[H])N([H])C(=O)[C@@]1([H])N([H])C(=O)C([H])([H])C1([H])[H]
     RDKit          3D

 53 53  0  0  0  0  0  0  0  0999 V2000
   -4.0192    5.1755   -0.0207 N   0  0  0  0  0  0  0  0  0  0  0  0
   -3.8831    3.9952   -0.7854 C   0  0  0  0  0  0  0  0  0  0  0  0
   -4.5570    3.8867   -1.8675 N   0  0  0  0  0  0  0  0  0  0  0  0
   -3.0007    2.9735   -0.3244 N   0  0  0  0  0  0  0  0  0  0  0  0
   -1.6678    3.3167    0.1091 C   0  0  0  0  0  0  0  0  0  0  0  0
   -0.9016    2.0833    0.5340 C   0  0  0  0  0  0  0  0  0  0  0  0
   -0.8084    1.1510   -0.6299 C   0  0  0  0  0  0  0  0  0  0  0  0
   -0.0309   -0.1329   -0.2812 C   0  0  2  0  0  0  0  0  0  0  0  0
   -0.7085   -0.8069    0.8019 N   0  0  0  0  0  0  0  0  0  0  0  0
   -1.5644   -1.8867    0.5436 C   0  0  0  0  0  0  0  0  0  0  0  0
   -1.7516   -2.2489   -0.6390 O   0  0  0  0  0  0  0  0  0  0  0  0
   -2.2875   -2.6553    1.5928 C   0  0  2  0  0  0  0  0  0  0  0  0
   -1.4288   -3.8656    2.0114 C   0  0  0  0  0  0  0  0  0  0  0  0
   -2.4623   -4.7148    2.7212 C   0  0  0  0  0  0  0  0  0  0  0  0
   -3.6814   -4.4203    1.9409 C   0  0  0  0  0  0  0  0  0  0  0  0
   -4.7601   -5.0840    2.0716 O   0  0  0  0  0  0  0  0  0  0  0  0
   -3.4535   -3.3250    1.0624 N   0  0  0  0  0  0  0  0  0  0  0  0
    1.3696    0.2197    0.0491 C   0  0  0  0  0  0  0  0  0  0  0  0
    1.6552    0.3861    1.2692 O   0  0  0  0  0  0  0  0  0  0  0  0
    2.4078    0.3832   -0.9011 N   0  0  0  0  0  0  0  0  0  0  0  0
    3.7431    0.7455   -0.5069 C   0  0  1  0  0  0  0  0  0  0  0  0
    4.7069   -0.4215   -0.4744 C   0  0  0  0  0  0  0  0  0  0  0  0
    4.8741   -1.1020   -1.7780 C   0  0  0  0  0  0  0  0  0  0  0  0
    5.7860   -2.2272   -1.8624 N   0  0  0  0  0  0  0  0  0  0  0  0
    4.2415   -0.7064   -2.7761 O   0  0  0  0  0  0  0  0  0  0  0  0
    4.3059    1.7654   -1.4160 C   0  0  0  0  0  0  0  0  0  0  0  0
    5.5492    2.3282   -1.3415 O   0  0  0  0  0  0  0  0  0  0  0  0
    3.5364    2.1514   -2.3702 O   0  0  0  0  0  0  0  0  0  0  0  0
   -3.3908    5.3092    0.8165 H   0  0  0  0  0  0  0  0  0  0  0  0
   -4.7254    5.9093   -0.2745 H   0  0  0  0  0  0  0  0  0  0  0  0
   -4.4618    3.0271   -2.4284 H   0  0  0  0  0  0  0  0  0  0  0  0
   -3.3306    2.0067   -0.3064 H   0  0  0  0  0  0  0  0  0  0  0  0
   -1.1533    3.7611   -0.7947 H   0  0  0  0  0  0  0  0  0  0  0  0
   -1.6939    4.0871    0.9229 H   0  0  0  0  0  0  0  0  0  0  0  0
   -1.4698    1.5939    1.3691 H   0  0  0  0  0  0  0  0  0  0  0  0
    0.1049    2.3753    0.9129 H   0  0  0  0  0  0  0  0  0  0  0  0
   -1.8138    0.8230   -0.9275 H   0  0  0  0  0  0  0  0  0  0  0  0
   -0.2184    1.6299   -1.4408 H   0  0  0  0  0  0  0  0  0  0  0  0
   -0.0597   -0.7122   -1.2236 H   0  0  0  0  0  0  0  0  0  0  0  0
   -0.5604   -0.4805    1.7663 H   0  0  0  0  0  0  0  0  0  0  0  0
   -2.5135   -2.0428    2.4410 H   0  0  0  0  0  0  0  0  0  0  0  0
   -0.5858   -3.5758    2.6422 H   0  0  0  0  0  0  0  0  0  0  0  0
   -1.1556   -4.4299    1.0879 H   0  0  0  0  0  0  0  0  0  0  0  0
   -2.5271   -4.3153    3.7715 H   0  0  0  0  0  0  0  0  0  0  0  0
   -2.1775   -5.7916    2.7228 H   0  0  0  0  0  0  0  0  0  0  0  0
   -4.0550   -3.1166    0.2349 H   0  0  0  0  0  0  0  0  0  0  0  0
    2.1505    0.2271   -1.8959 H   0  0  0  0  0  0  0  0  0  0  0  0
    3.6779    1.1268    0.5620 H   0  0  0  0  0  0  0  0  0  0  0  0
    4.4109   -1.1357    0.3335 H   0  0  0  0  0  0  0  0  0  0  0  0
    5.7169    0.0157   -0.1964 H   0  0  0  0  0  0  0  0  0  0  0  0
    5.4531   -3.1587   -2.1070 H   0  0  0  0  0  0  0  0  0  0  0  0
    6.7816   -2.0194   -1.6522 H   0  0  0  0  0  0  0  0  0  0  0  0
    6.3872    1.9224   -1.7429 H   0  0  0  0  0  0  0  0  0  0  0  0
  1  2  1  0
  2  3  2  3
  2  4  1  0
  4  5  1  0
  5  6  1  0
  6  7  1  0
  7  8  1  0
  8  9  1  0
  9 10  1  0
 10 11  2  0
 10 12  1  0
 12 13  1  0
 13 14  1  0
 14 15  1  0
 15 16  2  0
 15 17  1  0
  8 18  1  0
 18 19  2  0
 18 20  1  0
 20 21  1  0
 21 22  1  0
 22 23  1  0
 23 24  1  0
 23 25  2  0
 21 26  1  0
 26 27  1  0
 26 28  2  0
 17 12  1  0
  1 29  1  0
  1 30  1  0
  3 31  1  0
  4 32  1  0
  5 33  1  0
  5 34  1  0
  6 35  1  0
  6 36  1  0
  7 37  1  0
  7 38  1  0
  8 39  1  6
  9 40  1  0
 12 41  1  1
 13 42  1  0
 13 43  1  0
 14 44  1  0
 14 45  1  0
 17 46  1  0
 20 47  1  0
 21 48  1  1
 22 49  1  0
 22 50  1  0
 24 51  1  0
 24 52  1  0
 27 53  1  0
M  END
$$$$
[H]Oc1c([H])c([H])c(/C([H])=C(\[H])C(=O)/C([H])=C(\[H])c2c([H])c([H])c([H])c([H])c2[H])c([H])c1O[H]
     RDKit          3D

 34 35  0  0  0  0  0  0  0  0999 V2000
    6.9177    0.8718   -0.3572 O   0  0  0  0  0  0  0  0  0  0  0  0
    5.5774    0.5306   -0.2326 C   0  0  0  0  0  0  0  0  0  0  0  0
    5.1829   -0.7182    0.1961 C   0  0  0  0  0  0  0  0  0  0  0  0
    3.8257   -1.0429    0.3152 C   0  0  0  0  0  0  0  0  0  0  0  0
    2.8326   -0.1385    0.0125 C   0  0  0  0  0  0  0  0  0  0  0  0
    1.4143   -0.4474    0.1265 C   0  0  0  0  0  0  0  0  0  0  0  0
    0.9067   -1.5892    0.5195 C   0  0  0  0  0  0  0  0  0  0  0  0
   -0.5186   -1.8624    0.6214 C   0  0  0  0  0  0  0  0  0  0  0  0
   -0.8780   -2.9966    1.0108 O   0  0  0  0  0  0  0  0  0  0  0  0
   -1.5395   -0.8780    0.2915 C   0  0  0  0  0  0  0  0  0  0  0  0
   -2.8136   -1.1986    0.4087 C   0  0  0  0  0  0  0  0  0  0  0  0
   -3.9366   -0.3253    0.1173 C   0  0  0  0  0  0  0  0  0  0  0  0
   -3.7371    0.9641   -0.3242 C   0  0  0  0  0  0  0  0  0  0  0  0
   -4.8455    1.7644   -0.5907 C   0  0  0  0  0  0  0  0  0  0  0  0
   -6.1265    1.3029   -0.4253 C   0  0  0  0  0  0  0  0  0  0  0  0
   -6.2861    0.0096    0.0172 C   0  0  0  0  0  0  0  0  0  0  0  0
   -5.2228   -0.8186    0.2935 C   0  0  0  0  0  0  0  0  0  0  0  0
    3.2497    1.1163   -0.4184 C   0  0  0  0  0  0  0  0  0  0  0  0
    4.5841    1.4378   -0.5362 C   0  0  0  0  0  0  0  0  0  0  0  0
    4.9626    2.7143   -0.9743 O   0  0  0  0  0  0  0  0  0  0  0  0
    7.6737    0.2564   -0.1517 H   0  0  0  0  0  0  0  0  0  0  0  0
    5.9272   -1.4634    0.4460 H   0  0  0  0  0  0  0  0  0  0  0  0
    3.5862   -2.0385    0.6565 H   0  0  0  0  0  0  0  0  0  0  0  0
    0.7087    0.3315   -0.1351 H   0  0  0  0  0  0  0  0  0  0  0  0
    1.6142   -2.3640    0.7797 H   0  0  0  0  0  0  0  0  0  0  0  0
   -1.2977    0.1199   -0.0507 H   0  0  0  0  0  0  0  0  0  0  0  0
   -3.0549   -2.2156    0.7574 H   0  0  0  0  0  0  0  0  0  0  0  0
   -2.7423    1.3994   -0.4788 H   0  0  0  0  0  0  0  0  0  0  0  0
   -4.6732    2.7749   -0.9368 H   0  0  0  0  0  0  0  0  0  0  0  0
   -6.9948    1.9308   -0.6345 H   0  0  0  0  0  0  0  0  0  0  0  0
   -7.2994   -0.3928    0.1607 H   0  0  0  0  0  0  0  0  0  0  0  0
   -5.3900   -1.8496    0.6466 H   0  0  0  0  0  0  0  0  0  0  0  0
    2.4669    1.8437   -0.6620 H   0  0  0  0  0  0  0  0  0  0  0  0
    5.9259    2.9710   -1.0677 H   0  0  0  0  0  0  0  0  0  0  0  0
  1  2  1  0
  2  3  2  0
  3  4  1  0
  4  5  2  0
  5  6  1  0
  6  7  2  0
  7  8  1  0
  8  9  2  0
  8 10  1  0
 10 11  2  0
 11 12  1  0
 12 13  2  0
 13 14  1  0
 14 15  2  0
 15 16  1  0
 16 17  2  0
  5 18  1  0
 18 19  2  0
 19 20  1  0
 19  2  1  0
 17 12  1  0
  1 21  1  0
  3 22  1  0
  4 23  1  0
  6 24  1  0
  7 25  1  0
 10 26  1  0
 11 27  1  0
 13 28  1  0
 14 29  1  0
 15 30  1  0
 16 31  1  0
 17 32  1  0
 18 33  1  0
 20 34  1  0
M  END
$$$$
[H]N=C(N([H])[H])N([H])C([H])([H])C([H])([H])C([H])([H])[C@@]([H])(C(=O)O[H])N([H])C(=O)[C@@]([H])(N([H])C(=O)[C@]([H])(N([H])C(=O)[C@@]([H])(N([H])[H])C([H])([H])c1c(C([H])([H])[H])c([H])c(O[H])c([H])c1C([H])([H])[H])C([H])([H])C([H])([H])C([H])([H])N([H])C(=N[H])N([H])[H])C([H])([H])c1c([H])c([H])c([H])c([H])c1[H]
     RDKit          3D

 96 97  0  0  0  0  0  0  0  0999 V2000
   -8.3831   -0.5754    0.5311 C   0  0  0  0  0  0  0  0  0  0  0  0
   -7.8258   -1.9623    0.4370 C   0  0  0  0  0  0  0  0  0  0  0  0
   -8.7282   -3.0369    0.4377 C   0  0  0  0  0  0  0  0  0  0  0  0
   -8.2809   -4.3261    0.3075 C   0  0  0  0  0  0  0  0  0  0  0  0
   -9.1757   -5.3769    0.3088 O   0  0  0  0  0  0  0  0  0  0  0  0
   -6.9452   -4.5799    0.1752 C   0  0  0  0  0  0  0  0  0  0  0  0
   -6.0547   -3.5651    0.1720 C   0  0  0  0  0  0  0  0  0  0  0  0
   -4.5882   -3.8522    0.0112 C   0  0  0  0  0  0  0  0  0  0  0  0
   -6.4904   -2.2525    0.3037 C   0  0  0  0  0  0  0  0  0  0  0  0
   -5.4695   -1.1825    0.3419 C   0  0  0  0  0  0  0  0  0  0  0  0
   -5.0247   -0.7744    1.7180 C   0  0  2  0  0  0  0  0  0  0  0  0
   -6.0349   -0.2808    2.5918 N   0  0  0  0  0  0  0  0  0  0  0  0
   -4.0649    0.3754    1.5058 C   0  0  0  0  0  0  0  0  0  0  0  0
   -4.2389    1.4740    2.0575 O   0  0  0  0  0  0  0  0  0  0  0  0
   -2.9706    0.1538    0.6622 N   0  0  0  0  0  0  0  0  0  0  0  0
   -1.9482    1.2024    0.3666 C   0  0  2  0  0  0  0  0  0  0  0  0
   -1.9308    1.6059   -1.0383 C   0  0  0  0  0  0  0  0  0  0  0  0
   -1.0349    2.7522   -1.3415 C   0  0  0  0  0  0  0  0  0  0  0  0
   -1.5788    3.9806   -0.5650 C   0  0  0  0  0  0  0  0  0  0  0  0
   -0.6847    5.0780   -0.9186 N   0  0  0  0  0  0  0  0  0  0  0  0
   -0.6872    5.5783   -2.2478 C   0  0  0  0  0  0  0  0  0  0  0  0
   -1.7504    6.4142   -2.6537 N   0  0  0  0  0  0  0  0  0  0  0  0
    0.2472    5.2937   -3.0847 N   0  0  0  0  0  0  0  0  0  0  0  0
   -0.6601    0.5971    0.8099 C   0  0  0  0  0  0  0  0  0  0  0  0
   -0.7449    0.1046    2.0165 O   0  0  0  0  0  0  0  0  0  0  0  0
    0.5572    0.4765    0.1542 N   0  0  0  0  0  0  0  0  0  0  0  0
    1.6888   -0.1714    0.8370 C   0  0  1  0  0  0  0  0  0  0  0  0
    1.8281   -1.5320    0.2691 C   0  0  0  0  0  0  0  0  0  0  0  0
    2.0584   -1.6252   -1.1761 C   0  0  0  0  0  0  0  0  0  0  0  0
    0.9785   -1.5862   -2.0538 C   0  0  0  0  0  0  0  0  0  0  0  0
    1.1265   -1.6907   -3.4070 C   0  0  0  0  0  0  0  0  0  0  0  0
    2.3792   -1.8407   -3.9426 C   0  0  0  0  0  0  0  0  0  0  0  0
    3.4676   -1.8847   -3.1241 C   0  0  0  0  0  0  0  0  0  0  0  0
    3.2948   -1.7763   -1.7448 C   0  0  0  0  0  0  0  0  0  0  0  0
    2.8377    0.6852    0.9939 C   0  0  0  0  0  0  0  0  0  0  0  0
    2.7199    1.8856    0.5401 O   0  0  0  0  0  0  0  0  0  0  0  0
    4.0855    0.3862    1.5916 N   0  0  0  0  0  0  0  0  0  0  0  0
    5.1447    1.3192    1.7325 C   0  0  1  0  0  0  0  0  0  0  0  0
    5.7526    1.7528    0.4633 C   0  0  0  0  0  0  0  0  0  0  0  0
    6.3860    0.6747   -0.3732 C   0  0  0  0  0  0  0  0  0  0  0  0
    7.4924    0.0289    0.4076 C   0  0  0  0  0  0  0  0  0  0  0  0
    8.1551   -1.0162   -0.3568 N   0  0  0  0  0  0  0  0  0  0  0  0
    9.2333   -1.7088    0.2341 C   0  0  0  0  0  0  0  0  0  0  0  0
    9.7608   -1.3311    1.4912 N   0  0  0  0  0  0  0  0  0  0  0  0
    9.7920   -2.7311   -0.3614 N   0  0  0  0  0  0  0  0  0  0  0  0
    4.7701    2.4730    2.6141 C   0  0  0  0  0  0  0  0  0  0  0  0
    5.6855    3.4813    2.8413 O   0  0  0  0  0  0  0  0  0  0  0  0
    3.6420    2.5558    3.1587 O   0  0  0  0  0  0  0  0  0  0  0  0
   -7.7049    0.1853    0.1317 H   0  0  0  0  0  0  0  0  0  0  0  0
   -9.2792   -0.5908   -0.1737 H   0  0  0  0  0  0  0  0  0  0  0  0
   -8.8173   -0.3628    1.5113 H   0  0  0  0  0  0  0  0  0  0  0  0
   -9.7786   -2.7896    0.5455 H   0  0  0  0  0  0  0  0  0  0  0  0
   -8.9168   -6.3385    0.2178 H   0  0  0  0  0  0  0  0  0  0  0  0
   -6.5899   -5.6155    0.0710 H   0  0  0  0  0  0  0  0  0  0  0  0
   -4.4610   -4.9708   -0.0518 H   0  0  0  0  0  0  0  0  0  0  0  0
   -4.1896   -3.4446   -0.9375 H   0  0  0  0  0  0  0  0  0  0  0  0
   -4.0045   -3.5310    0.8847 H   0  0  0  0  0  0  0  0  0  0  0  0
   -5.8007   -0.2735   -0.2419 H   0  0  0  0  0  0  0  0  0  0  0  0
   -4.5783   -1.5800   -0.2391 H   0  0  0  0  0  0  0  0  0  0  0  0
   -4.4237   -1.6055    2.2011 H   0  0  0  0  0  0  0  0  0  0  0  0
   -6.1568    0.7370    2.6333 H   0  0  0  0  0  0  0  0  0  0  0  0
   -6.1019   -0.7715    3.5000 H   0  0  0  0  0  0  0  0  0  0  0  0
   -2.8110   -0.7523    0.2008 H   0  0  0  0  0  0  0  0  0  0  0  0
   -2.2404    2.0324    1.0242 H   0  0  0  0  0  0  0  0  0  0  0  0
   -1.7417    0.7401   -1.7391 H   0  0  0  0  0  0  0  0  0  0  0  0
   -2.9954    1.9106   -1.3332 H   0  0  0  0  0  0  0  0  0  0  0  0
   -0.0017    2.6920   -1.0167 H   0  0  0  0  0  0  0  0  0  0  0  0
   -1.0226    3.0118   -2.4329 H   0  0  0  0  0  0  0  0  0  0  0  0
   -2.6088    4.1355   -0.9054 H   0  0  0  0  0  0  0  0  0  0  0  0
   -1.5402    3.7555    0.4957 H   0  0  0  0  0  0  0  0  0  0  0  0
   -0.0762    5.4535   -0.1768 H   0  0  0  0  0  0  0  0  0  0  0  0
   -2.4583    6.0709   -3.3114 H   0  0  0  0  0  0  0  0  0  0  0  0
   -1.8052    7.3825   -2.2765 H   0  0  0  0  0  0  0  0  0  0  0  0
    1.0542    4.6987   -2.8784 H   0  0  0  0  0  0  0  0  0  0  0  0
    0.7470    0.7748   -0.8220 H   0  0  0  0  0  0  0  0  0  0  0  0
    1.2954   -0.3504    1.9021 H   0  0  0  0  0  0  0  0  0  0  0  0
    2.6060   -2.1372    0.8243 H   0  0  0  0  0  0  0  0  0  0  0  0
    0.8711   -2.0817    0.5462 H   0  0  0  0  0  0  0  0  0  0  0  0
   -0.0201   -1.4686   -1.6541 H   0  0  0  0  0  0  0  0  0  0  0  0
    0.2689   -1.6575   -4.0786 H   0  0  0  0  0  0  0  0  0  0  0  0
    2.5053   -1.9237   -5.0160 H   0  0  0  0  0  0  0  0  0  0  0  0
    4.4446   -2.0025   -3.5675 H   0  0  0  0  0  0  0  0  0  0  0  0
    4.2002   -1.8302   -1.1536 H   0  0  0  0  0  0  0  0  0  0  0  0
    4.2257   -0.6056    1.9538 H   0  0  0  0  0  0  0  0  0  0  0  0
    5.9761    0.8148    2.3296 H   0  0  0  0  0  0  0  0  0  0  0  0
    6.5206    2.5523    0.7078 H   0  0  0  0  0  0  0  0  0  0  0  0
    5.0108    2.2874   -0.2037 H   0  0  0  0  0  0  0  0  0  0  0  0
    6.7758    1.1052   -1.3298 H   0  0  0  0  0  0  0  0  0  0  0  0
    5.6327   -0.0604   -0.6477 H   0  0  0  0  0  0  0  0  0  0  0  0
    8.1705    0.7960    0.7772 H   0  0  0  0  0  0  0  0  0  0  0  0
    7.0307   -0.5099    1.2746 H   0  0  0  0  0  0  0  0  0  0  0  0
    7.8425   -1.2465   -1.3123 H   0  0  0  0  0  0  0  0  0  0  0  0
   10.7794   -1.3575    1.6415 H   0  0  0  0  0  0  0  0  0  0  0  0
    9.1283   -1.0335    2.2462 H   0  0  0  0  0  0  0  0  0  0  0  0
   10.5970   -3.2280    0.1087 H   0  0  0  0  0  0  0  0  0  0  0  0
    6.6538    3.3134    2.6396 H   0  0  0  0  0  0  0  0  0  0  0  0
  1  2  1  0
  2  3  2  0
  3  4  1  0
  4  5  1  0
  4  6  2  0
  6  7  1  0
  7  8  1  0
  7  9  2  0
  9 10  1  0
 10 11  1  0
 11 12  1  0
 11 13  1  0
 13 14  2  0
 13 15  1  0
 15 16  1  0
 16 17  1  0
 17 18  1  0
 18 19  1  0
 19 20  1  0
 20 21  1  0
 21 22  1  0
 21 23  2  3
 16 24  1  0
 24 25  2  0
 24 26  1  0
 26 27  1  0
 27 28  1  0
 28 29  1  0
 29 30  2  0
 30 31  1  0
 31 32  2  0
 32 33  1  0
 33 34  2  0
 27 35  1  0
 35 36  2  0
 35 37  1  0
 37 38  1  0
 38 39  1  0
 39 40  1  0
 40 41  1  0
 41 42  1  0
 42 43  1  0
 43 44  1  0
 43 45  2  3
 38 46  1  0
 46 47  1  0
 46 48  2  0
  9  2  1  0
 34 29  1  0
  1 49  1  0
  1 50  1  0
  1 51  1  0
  3 52  1  0
  5 53  1  0
  6 54  1  0
  8 55  1  0
  8 56  1  0
  8 57  1  0
 10 58  1  0
 10 59  1  0
 11 60  1  1
 12 61  1  0
 12 62  1  0
 15 63  1  0
 16 64  1  1
 17 65  1  0
 17 66  1  0
 18 67  1  0
 18 68  1  0
 19 69  1  0
 19 70  1  0
 20 71  1  0
 22 72  1  0
 22 73  1  0
 23 74  1  0
 26 75  1  0
 27 76  1  1
 28 77  1  0
 28 78  1  0
 30 79  1  0
 31 80  1  0
 32 81  1  0
 33 82  1  0
 34 83  1  0
 37 84  1  0
 38 85  1  1
 39 86  1  0
 39 87  1  0
 40 88  1  0
 40 89  1  0
 41 90  1  0
 41 91  1  0
 42 92  1  0
 44 93  1  0
 44 94  1  0
 45 95  1  0
 47 96  1  0
M  END
$$$$
[H]OC(=O)[C@@]([H])(N([H])C(=O)[C@@]([H])(N([H])C(=O)[C@@]([H])(N([H])C(=O)[C@@]([H])(N([H])C(=O)OC([H])([H])c1c([H])c([H])c([H])c([H])c1[H])C([H])(C([H])([H])[H])C([H])([H])[H])C([H])([H])C([H])(C([H])([H])[H])C([H])([H])[H])C([H])([H])C([H])(C([H])([H])[H])C([H])([H])[H])C([H])([H])C([H])(C([H])([H])[H])C([H])([H])[H]
     RDKit          3D

 92 92  0  0  0  0  0  0  0  0999 V2000
   -1.7653   -1.7261   -3.1075 C   0  0  0  0  0  0  0  0  0  0  0  0
   -3.0166   -0.9505   -2.8936 C   0  0  0  0  0  0  0  0  0  0  0  0
   -3.9141   -1.0238   -4.1332 C   0  0  0  0  0  0  0  0  0  0  0  0
   -3.7840   -1.2103   -1.6506 C   0  0  0  0  0  0  0  0  0  0  0  0
   -3.0673   -0.9334   -0.3882 C   0  0  2  0  0  0  0  0  0  0  0  0
   -1.8465   -1.6975   -0.1513 N   0  0  0  0  0  0  0  0  0  0  0  0
   -0.6450   -1.0983    0.2136 C   0  0  0  0  0  0  0  0  0  0  0  0
   -0.6948    0.1823    0.3274 O   0  0  0  0  0  0  0  0  0  0  0  0
    0.6382   -1.7216    0.4741 C   0  0  2  0  0  0  0  0  0  0  0  0
    0.7885   -2.6365    1.6186 C   0  0  0  0  0  0  0  0  0  0  0  0
   -0.0266   -3.8614    1.6170 C   0  0  0  0  0  0  0  0  0  0  0  0
    0.2329   -4.6972    2.8888 C   0  0  0  0  0  0  0  0  0  0  0  0
    0.2473   -4.7770    0.4387 C   0  0  0  0  0  0  0  0  0  0  0  0
    1.6655   -0.6641    0.7156 N   0  0  0  0  0  0  0  0  0  0  0  0
    2.4638   -0.1260   -0.2937 C   0  0  0  0  0  0  0  0  0  0  0  0
    2.2585   -0.6056   -1.4844 O   0  0  0  0  0  0  0  0  0  0  0  0
    3.4970    0.8968   -0.2087 C   0  0  1  0  0  0  0  0  0  0  0  0
    4.0683    1.1275   -1.5300 N   0  0  0  0  0  0  0  0  0  0  0  0
    5.4179    0.8107   -1.8601 C   0  0  0  0  0  0  0  0  0  0  0  0
    6.1661    0.3087   -0.9761 O   0  0  0  0  0  0  0  0  0  0  0  0
    5.9542    1.0295   -3.1085 O   0  0  0  0  0  0  0  0  0  0  0  0
    7.2935    0.6869   -3.3487 C   0  0  0  0  0  0  0  0  0  0  0  0
    8.2448    1.3861   -2.4690 C   0  0  0  0  0  0  0  0  0  0  0  0
    9.2840    0.6767   -1.9003 C   0  0  0  0  0  0  0  0  0  0  0  0
   10.2049    1.2697   -1.0683 C   0  0  0  0  0  0  0  0  0  0  0  0
   10.0973    2.6265   -0.7833 C   0  0  0  0  0  0  0  0  0  0  0  0
    9.0625    3.3568   -1.3441 C   0  0  0  0  0  0  0  0  0  0  0  0
    8.1516    2.7158   -2.1810 C   0  0  0  0  0  0  0  0  0  0  0  0
    3.1364    2.1812    0.4555 C   0  0  0  0  0  0  0  0  0  0  0  0
    2.7143    2.0885    1.8931 C   0  0  0  0  0  0  0  0  0  0  0  0
    4.2172    3.2400    0.2753 C   0  0  0  0  0  0  0  0  0  0  0  0
   -3.9572   -0.9575    0.8077 C   0  0  0  0  0  0  0  0  0  0  0  0
   -3.5673   -1.6448    1.7951 O   0  0  0  0  0  0  0  0  0  0  0  0
   -5.1661   -0.2816    0.9061 N   0  0  0  0  0  0  0  0  0  0  0  0
   -6.0822   -0.2330    1.9887 C   0  0  1  0  0  0  0  0  0  0  0  0
   -6.1981    1.1179    2.6288 C   0  0  0  0  0  0  0  0  0  0  0  0
   -6.6365    2.2263    1.7406 C   0  0  0  0  0  0  0  0  0  0  0  0
   -6.6682    3.4925    2.6158 C   0  0  0  0  0  0  0  0  0  0  0  0
   -8.0198    2.1016    1.1745 C   0  0  0  0  0  0  0  0  0  0  0  0
   -7.3994   -0.8187    1.7828 C   0  0  0  0  0  0  0  0  0  0  0  0
   -8.4181   -0.8404    2.7100 O   0  0  0  0  0  0  0  0  0  0  0  0
   -7.6481   -1.3559    0.6711 O   0  0  0  0  0  0  0  0  0  0  0  0
   -1.6816   -2.6780   -2.5751 H   0  0  0  0  0  0  0  0  0  0  0  0
   -0.8839   -1.0949   -2.8767 H   0  0  0  0  0  0  0  0  0  0  0  0
   -1.6515   -1.9443   -4.2185 H   0  0  0  0  0  0  0  0  0  0  0  0
   -2.7135    0.1446   -2.8393 H   0  0  0  0  0  0  0  0  0  0  0  0
   -3.2126   -1.2071   -4.9953 H   0  0  0  0  0  0  0  0  0  0  0  0
   -4.6925   -1.7947   -4.0489 H   0  0  0  0  0  0  0  0  0  0  0  0
   -4.3738   -0.0524   -4.2861 H   0  0  0  0  0  0  0  0  0  0  0  0
   -4.6512   -0.4676   -1.6762 H   0  0  0  0  0  0  0  0  0  0  0  0
   -4.3186   -2.1914   -1.6577 H   0  0  0  0  0  0  0  0  0  0  0  0
   -2.7320    0.1508   -0.4312 H   0  0  0  0  0  0  0  0  0  0  0  0
   -1.8790   -2.7333   -0.2676 H   0  0  0  0  0  0  0  0  0  0  0  0
    1.0130   -2.1752   -0.4977 H   0  0  0  0  0  0  0  0  0  0  0  0
    1.8660   -2.8212    1.8923 H   0  0  0  0  0  0  0  0  0  0  0  0
    0.4358   -2.0369    2.5333 H   0  0  0  0  0  0  0  0  0  0  0  0
   -1.0942   -3.6431    1.6532 H   0  0  0  0  0  0  0  0  0  0  0  0
    1.2182   -5.1547    2.8184 H   0  0  0  0  0  0  0  0  0  0  0  0
    0.0600   -4.0565    3.7661 H   0  0  0  0  0  0  0  0  0  0  0  0
   -0.5568   -5.4772    2.8711 H   0  0  0  0  0  0  0  0  0  0  0  0
    1.1151   -5.4317    0.5938 H   0  0  0  0  0  0  0  0  0  0  0  0
    0.3374   -4.2152   -0.5169 H   0  0  0  0  0  0  0  0  0  0  0  0
   -0.6401   -5.4463    0.3266 H   0  0  0  0  0  0  0  0  0  0  0  0
    1.7485   -0.3638    1.6923 H   0  0  0  0  0  0  0  0  0  0  0  0
    4.3401    0.4543    0.4133 H   0  0  0  0  0  0  0  0  0  0  0  0
    3.4890    1.5492   -2.3043 H   0  0  0  0  0  0  0  0  0  0  0  0
    7.4948    0.9491   -4.4284 H   0  0  0  0  0  0  0  0  0  0  0  0
    7.4647   -0.4228   -3.3080 H   0  0  0  0  0  0  0  0  0  0  0  0
    9.3634   -0.3849   -2.1264 H   0  0  0  0  0  0  0  0  0  0  0  0
   11.0205    0.7370   -0.6151 H   0  0  0  0  0  0  0  0  0  0  0  0
   10.7848    3.1243   -0.1455 H   0  0  0  0  0  0  0  0  0  0  0  0
    8.9107    4.4049   -1.1763 H   0  0  0  0  0  0  0  0  0  0  0  0
    7.3488    3.2921   -2.6108 H   0  0  0  0  0  0  0  0  0  0  0  0
    2.2413    2.6044   -0.0964 H   0  0  0  0  0  0  0  0  0  0  0  0
    3.2462    1.2854    2.4078 H   0  0  0  0  0  0  0  0  0  0  0  0
    1.6096    1.9455    2.0255 H   0  0  0  0  0  0  0  0  0  0  0  0
    2.9948    3.0276    2.4555 H   0  0  0  0  0  0  0  0  0  0  0  0
    4.1274    3.9622    1.1462 H   0  0  0  0  0  0  0  0  0  0  0  0
    5.2282    2.7967    0.3610 H   0  0  0  0  0  0  0  0  0  0  0  0
    4.0363    3.8185   -0.6274 H   0  0  0  0  0  0  0  0  0  0  0  0
   -5.4501    0.2891    0.0531 H   0  0  0  0  0  0  0  0  0  0  0  0
   -5.6015   -0.8827    2.8033 H   0  0  0  0  0  0  0  0  0  0  0  0
   -6.9430    1.0334    3.4683 H   0  0  0  0  0  0  0  0  0  0  0  0
   -5.2407    1.4372    3.1095 H   0  0  0  0  0  0  0  0  0  0  0  0
   -5.9178    2.4623    0.9281 H   0  0  0  0  0  0  0  0  0  0  0  0
   -5.6365    3.8054    2.9113 H   0  0  0  0  0  0  0  0  0  0  0  0
   -7.0515    4.2938    1.9223 H   0  0  0  0  0  0  0  0  0  0  0  0
   -7.3724    3.4197    3.4431 H   0  0  0  0  0  0  0  0  0  0  0  0
   -8.1084    1.4412    0.3015 H   0  0  0  0  0  0  0  0  0  0  0  0
   -8.2817    3.1281    0.7670 H   0  0  0  0  0  0  0  0  0  0  0  0
   -8.7734    1.9375    1.9715 H   0  0  0  0  0  0  0  0  0  0  0  0
   -9.3203   -0.4795    2.4248 H   0  0  0  0  0  0  0  0  0  0  0  0
  1  2  1  0
  2  3  1  0
  2  4  1  0
  4  5  1  0
  5  6  1  0
  6  7  1  0
  7  8  2  0
  7  9  1  0
  9 10  1  0
 10 11  1  0
 11 12  1  0
 11 13  1  0
  9 14  1  0
 14 15  1  0
 15 16  2  0
 15 17  1  0
 17 18  1  0
 18 19  1  0
 19 20  2  0
 19 21  1  0
 21 22  1  0
 22 23  1  0
 23 24  2  0
 24 25  1  0
 25 26  2  0
 26 27  1  0
 27 28  2  0
 17 29  1  0
 29 30  1  0
 29 31  1  0
  5 32  1  0
 32 33  2  0
 32 34  1  0
 34 35  1  0
 35 36  1  0
 36 37  1  0
 37 38  1  0
 37 39  1  0
 35 40  1  0
 40 41  1  0
 40 42  2  0
 28 23  1  0
  1 43  1  0
  1 44  1  0
  1 45  1  0
  2 46  1  0
  3 47  1  0
  3 48  1  0
  3 49  1  0
  4 50  1  0
  4 51  1  0
  5 52  1  6
  6 53  1  0
  9 54  1  6
 10 55  1  0
 10 56  1  0
 11 57  1  0
 12 58  1  0
 12 59  1  0
 12 60  1  0
 13 61  1  0
 13 62  1  0
 13 63  1  0
 14 64  1  0
 17 65  1  1
 18 66  1  0
 22 67  1  0
 22 68  1  0
 24 69  1  0
 25 70  1  0
 26 71  1  0
 27 72  1  0
 28 73  1  0
 29 74  1  0
 30 75  1  0
 30 76  1  0
 30 77  1  0
 31 78  1  0
 31 79  1  0
 31 80  1  0
 34 81  1  0
 35 82  1  1
 36 83  1  0
 36 84  1  0
 37 85  1  0
 38 86  1  0
 38 87  1  0
 38 88  1  0
 39 89  1  0
 39 90  1  0
 39 91  1  0
 41 92  1  0
M  END
$$$$
[H]c1c([H])c(C([H])([H])N2C([H])([H])C([H])([H])N(C([H])([H])[H])C([H])([H])C2([H])[H])c(C(F)(F)F)c([H])c1C(=O)N([H])c1c([H])c([H])c(C([H])([H])[H])c(C(F)(F)F)c1[H]
     RDKit          3D

 55 57  0  0  0  0  0  0  0  0999 V2000
   -8.2125    0.9738    0.1773 C   0  0  0  0  0  0  0  0  0  0  0  0
   -6.9972    0.5136    0.8441 N   0  0  0  0  0  0  0  0  0  0  0  0
   -5.9291    1.4440    0.6981 C   0  0  0  0  0  0  0  0  0  0  0  0
   -4.6583    0.6590    1.1675 C   0  0  0  0  0  0  0  0  0  0  0  0
   -4.3528   -0.1537    0.1374 N   0  0  0  0  0  0  0  0  0  0  0  0
   -3.2136   -0.7754   -0.2326 C   0  0  0  0  0  0  0  0  0  0  0  0
   -1.8467   -0.4203   -0.0572 C   0  0  0  0  0  0  0  0  0  0  0  0
   -1.1385   -0.4132    1.1480 C   0  0  0  0  0  0  0  0  0  0  0  0
    0.2729   -0.5160    1.1458 C   0  0  0  0  0  0  0  0  0  0  0  0
    0.9885   -0.6185    0.0008 C   0  0  0  0  0  0  0  0  0  0  0  0
    0.2847   -0.6047   -1.2105 C   0  0  0  0  0  0  0  0  0  0  0  0
   -1.0486   -0.5095   -1.2207 C   0  0  0  0  0  0  0  0  0  0  0  0
   -1.7873   -0.2915   -2.5106 C   0  0  0  0  0  0  0  0  0  0  0  0
   -2.6423   -1.2191   -2.8984 F   0  0  0  0  0  0  0  0  0  0  0  0
   -0.9002    0.0057   -3.5036 F   0  0  0  0  0  0  0  0  0  0  0  0
   -2.4506    0.9720   -2.3366 F   0  0  0  0  0  0  0  0  0  0  0  0
    2.4014   -0.8462   -0.1487 C   0  0  0  0  0  0  0  0  0  0  0  0
    2.7637   -1.8429   -0.9427 O   0  0  0  0  0  0  0  0  0  0  0  0
    3.3335   -0.1112    0.4637 N   0  0  0  0  0  0  0  0  0  0  0  0
    4.7729   -0.2068    0.4583 C   0  0  0  0  0  0  0  0  0  0  0  0
    5.3698   -0.5988    1.6309 C   0  0  0  0  0  0  0  0  0  0  0  0
    6.7247   -0.4508    1.8222 C   0  0  0  0  0  0  0  0  0  0  0  0
    7.5500    0.1117    0.8384 C   0  0  0  0  0  0  0  0  0  0  0  0
    8.9473    0.4590    1.0691 C   0  0  0  0  0  0  0  0  0  0  0  0
    6.9009    0.4934   -0.3519 C   0  0  0  0  0  0  0  0  0  0  0  0
    5.5522    0.3383   -0.5389 C   0  0  0  0  0  0  0  0  0  0  0  0
    7.6745    1.1777   -1.4296 C   0  0  0  0  0  0  0  0  0  0  0  0
    8.8117    0.5619   -1.8208 F   0  0  0  0  0  0  0  0  0  0  0  0
    6.8002    1.0052   -2.6051 F   0  0  0  0  0  0  0  0  0  0  0  0
    7.7040    2.5264   -1.2659 F   0  0  0  0  0  0  0  0  0  0  0  0
   -5.5092   -0.9211   -0.4392 C   0  0  0  0  0  0  0  0  0  0  0  0
   -6.6943   -0.8328    0.4115 C   0  0  0  0  0  0  0  0  0  0  0  0
   -9.0228    0.2985    0.5717 H   0  0  0  0  0  0  0  0  0  0  0  0
   -8.4331    1.9893    0.5013 H   0  0  0  0  0  0  0  0  0  0  0  0
   -8.1292    0.7941   -0.8994 H   0  0  0  0  0  0  0  0  0  0  0  0
   -6.0331    2.3822    1.2051 H   0  0  0  0  0  0  0  0  0  0  0  0
   -5.6679    1.6338   -0.3920 H   0  0  0  0  0  0  0  0  0  0  0  0
   -4.8592    0.2899    2.1861 H   0  0  0  0  0  0  0  0  0  0  0  0
   -3.8358    1.4708    1.2635 H   0  0  0  0  0  0  0  0  0  0  0  0
   -3.3910   -1.7003   -0.9216 H   0  0  0  0  0  0  0  0  0  0  0  0
   -3.2516   -1.6170    0.7765 H   0  0  0  0  0  0  0  0  0  0  0  0
   -1.6969   -0.3573    2.0644 H   0  0  0  0  0  0  0  0  0  0  0  0
    0.8219   -0.5139    2.1041 H   0  0  0  0  0  0  0  0  0  0  0  0
    0.9393   -0.6396   -2.0927 H   0  0  0  0  0  0  0  0  0  0  0  0
    3.0377    0.8170    1.0595 H   0  0  0  0  0  0  0  0  0  0  0  0
    4.7039   -1.0565    2.4230 H   0  0  0  0  0  0  0  0  0  0  0  0
    7.1853   -0.7839    2.7692 H   0  0  0  0  0  0  0  0  0  0  0  0
    9.7225   -0.2480    0.7264 H   0  0  0  0  0  0  0  0  0  0  0  0
    9.1460    1.5054    0.5956 H   0  0  0  0  0  0  0  0  0  0  0  0
    9.1155    0.6242    2.1777 H   0  0  0  0  0  0  0  0  0  0  0  0
    5.0558    0.6290   -1.4631 H   0  0  0  0  0  0  0  0  0  0  0  0
   -5.5795   -0.7287   -1.4938 H   0  0  0  0  0  0  0  0  0  0  0  0
   -5.1174   -1.9879   -0.3587 H   0  0  0  0  0  0  0  0  0  0  0  0
   -6.6208   -1.5032    1.3225 H   0  0  0  0  0  0  0  0  0  0  0  0
   -7.5616   -1.2075   -0.1620 H   0  0  0  0  0  0  0  0  0  0  0  0
  1  2  1  0
  2  3  1  0
  3  4  1  0
  4  5  1  0
  5  6  1  0
  6  7  1  0
  7  8  2  0
  8  9  1  0
  9 10  2  0
 10 11  1  0
 11 12  2  0
 12 13  1  0
 13 14  1  0
 13 15  1  0
 13 16  1  0
 10 17  1  0
 17 18  2  0
 17 19  1  0
 19 20  1  0
 20 21  2  0
 21 22  1  0
 22 23  2  0
 23 24  1  0
 23 25  1  0
 25 26  2  0
 25 27  1  0
 27 28  1  0
 27 29  1  0
 27 30  1  0
  5 31  1  0
 31 32  1  0
 32  2  1  0
 12  7  1  0
 26 20  1  0
  1 33  1  0
  1 34  1  0
  1 35  1  0
  3 36  1  0
  3 37  1  0
  4 38  1  0
  4 39  1  0
  6 40  1  0
  6 41  1  0
  8 42  1  0
  9 43  1  0
 11 44  1  0
 19 45  1  0
 21 46  1  0
 22 47  1  0
 24 48  1  0
 24 49  1  0
 24 50  1  0
 26 51  1  0
 31 52  1  0
 31 53  1  0
 32 54  1  0
 32 55  1  0
M  END
$$$$
[H]OC([H])([H])[C@@]1([H])O[C@@]([H])(n2c3c([H])c([H])c([H])c(Cl)c3c3c([H])c([H])c([H])c(Cl)c32)[C@]([H])(O[H])[C@]1([H])O[H]
     RDKit          3D

 39 42  0  0  0  0  0  0  0  0999 V2000
   -3.5596    0.9673   -2.6003 O   0  0  0  0  0  0  0  0  0  0  0  0
   -3.6368    1.3918   -1.2719 C   0  0  0  0  0  0  0  0  0  0  0  0
   -2.8644    0.4416   -0.4331 C   0  0  1  0  0  0  0  0  0  0  0  0
   -1.5154    0.3974   -0.8275 O   0  0  0  0  0  0  0  0  0  0  0  0
   -0.9744   -0.5131    0.1469 C   0  0  2  0  0  0  0  0  0  0  0  0
   -1.5239    0.0722    1.4318 C   0  0  2  0  0  0  0  0  0  0  0  0
   -2.0405   -0.8754    2.3108 O   0  0  0  0  0  0  0  0  0  0  0  0
   -2.7272    0.8903    1.0035 C   0  0  2  0  0  0  0  0  0  0  0  0
   -3.8775    0.6023    1.7023 O   0  0  0  0  0  0  0  0  0  0  0  0
    0.4424   -0.4437    0.0192 N   0  0  0  0  0  0  0  0  0  0  0  0
    1.3106   -1.4612    0.0568 C   0  0  0  0  0  0  0  0  0  0  0  0
    1.1936   -2.8253    0.2305 C   0  0  0  0  0  0  0  0  0  0  0  0
   -0.3570   -3.5383    0.4753 Cl  0  0  0  0  0  0  0  0  0  0  0  0
    2.2784   -3.6776    0.2313 C   0  0  0  0  0  0  0  0  0  0  0  0
    3.5475   -3.2041    0.0572 C   0  0  0  0  0  0  0  0  0  0  0  0
    3.7085   -1.8411   -0.1198 C   0  0  0  0  0  0  0  0  0  0  0  0
    2.6108   -1.0040   -0.1177 C   0  0  0  0  0  0  0  0  0  0  0  0
    2.5384    0.3502   -0.2675 C   0  0  0  0  0  0  0  0  0  0  0  0
    3.5046    1.3110   -0.4647 C   0  0  0  0  0  0  0  0  0  0  0  0
    5.2133    0.9637   -0.5847 Cl  0  0  0  0  0  0  0  0  0  0  0  0
    3.1083    2.6386   -0.5764 C   0  0  0  0  0  0  0  0  0  0  0  0
    1.7847    2.9625   -0.4896 C   0  0  0  0  0  0  0  0  0  0  0  0
    0.8183    1.9846   -0.2904 C   0  0  0  0  0  0  0  0  0  0  0  0
    1.1898    0.6784   -0.1792 C   0  0  0  0  0  0  0  0  0  0  0  0
   -3.8758    0.0272   -2.6223 H   0  0  0  0  0  0  0  0  0  0  0  0
   -3.2521    2.4146   -1.2076 H   0  0  0  0  0  0  0  0  0  0  0  0
   -4.7135    1.3123   -0.9844 H   0  0  0  0  0  0  0  0  0  0  0  0
   -3.3009   -0.5632   -0.4426 H   0  0  0  0  0  0  0  0  0  0  0  0
   -1.4773   -1.4198   -0.1628 H   0  0  0  0  0  0  0  0  0  0  0  0
   -0.7687    0.6977    1.9549 H   0  0  0  0  0  0  0  0  0  0  0  0
   -2.6915   -1.4422    1.8142 H   0  0  0  0  0  0  0  0  0  0  0  0
   -2.5251    1.9803    1.0746 H   0  0  0  0  0  0  0  0  0  0  0  0
   -3.9772    1.1927    2.4869 H   0  0  0  0  0  0  0  0  0  0  0  0
    2.1183   -4.7604    0.3750 H   0  0  0  0  0  0  0  0  0  0  0  0
    4.3921   -3.8692    0.0579 H   0  0  0  0  0  0  0  0  0  0  0  0
    4.7170   -1.4980   -0.2542 H   0  0  0  0  0  0  0  0  0  0  0  0
    3.8749    3.3871   -0.7314 H   0  0  0  0  0  0  0  0  0  0  0  0
    1.5164    4.0031   -0.5810 H   0  0  0  0  0  0  0  0  0  0  0  0
   -0.2090    2.2694   -0.2202 H   0  0  0  0  0  0  0  0  0  0  0  0
  1  2  1  0
  2  3  1  0
  3  4  1  0
  4  5  1  0
  5  6  1  0
  6  7  1  0
  6  8  1  0
  8  9  1  0
  5 10  1  0
 10 11  1  0
 11 12  2  0
 12 13  1  0
 12 14  1  0
 14 15  2  0
 15 16  1  0
 16 17  2  0
 17 18  1  0
 18 19  2  0
 19 20  1  0
 19 21  1  0
 21 22  2  0
 22 23  1  0
 23 24  2  0
  8  3  1  0
 24 10  1  0
 17 11  1  0
 24 18  1  0
  1 25  1  0
  2 26  1  0
  2 27  1  0
  3 28  1  1
  5 29  1  6
  6 30  1  1
  7 31  1  0
  8 32  1  6
  9 33  1  0
 14 34  1  0
 15 35  1  0
 16 36  1  0
 21 37  1  0
 22 38  1  0
 23 39  1  0
M  END
$$$$
[H]N=C(N([H])[H])N([H])C([H])([H])C([H])([H])C([H])([H])[C@@]([H])(C(=O)c1nc([H])c([H])s1)N([H])C(=O)[C@@]([H])(N([H])C(=O)[C@@]([H])(N([H])C(=O)C([H])([H])c1c([H])c([H])c([H])c([H])c1[H])C([H])([H])C([H])([H])C(=O)N([H])[H])C([H])([H])C([H])([H])C([H])([H])N=C(N([H])[H])N([H])[H]
     RDKit          3D

 86 87  0  0  0  0  0  0  0  0999 V2000
    0.8754    5.2522   -4.2144 N   0  0  0  0  0  0  0  0  0  0  0  0
    2.1830    4.7201   -3.9648 C   0  0  0  0  0  0  0  0  0  0  0  0
    3.2631    5.4541   -4.4806 N   0  0  0  0  0  0  0  0  0  0  0  0
    2.2573    3.6286   -3.2958 N   0  0  0  0  0  0  0  0  0  0  0  0
    1.0265    2.9778   -2.8209 C   0  0  0  0  0  0  0  0  0  0  0  0
    0.8392    3.4052   -1.4072 C   0  0  0  0  0  0  0  0  0  0  0  0
   -0.3603    2.8831   -0.7094 C   0  0  0  0  0  0  0  0  0  0  0  0
   -0.5203    1.4409   -0.5265 C   0  0  2  0  0  0  0  0  0  0  0  0
   -1.8045    1.2632    0.2055 N   0  0  0  0  0  0  0  0  0  0  0  0
   -2.3032   -0.0479    0.2679 C   0  0  0  0  0  0  0  0  0  0  0  0
   -1.6332   -1.0056   -0.3003 O   0  0  0  0  0  0  0  0  0  0  0  0
   -3.5417   -0.4583    0.9237 C   0  0  2  0  0  0  0  0  0  0  0  0
   -3.5326   -0.2982    2.4170 C   0  0  0  0  0  0  0  0  0  0  0  0
   -3.3112    1.0881    2.8808 C   0  0  0  0  0  0  0  0  0  0  0  0
   -3.4699    1.1156    4.3881 C   0  0  0  0  0  0  0  0  0  0  0  0
   -3.4373    2.3504    5.0424 N   0  0  0  0  0  0  0  0  0  0  0  0
   -3.6225    0.0285    4.9743 O   0  0  0  0  0  0  0  0  0  0  0  0
   -3.7698   -1.9066    0.6566 N   0  0  0  0  0  0  0  0  0  0  0  0
   -4.9106   -2.2779   -0.0872 C   0  0  0  0  0  0  0  0  0  0  0  0
   -5.6973   -1.4029   -0.5145 O   0  0  0  0  0  0  0  0  0  0  0  0
   -5.1701   -3.7325   -0.3564 C   0  0  0  0  0  0  0  0  0  0  0  0
   -6.4293   -3.8863   -1.0851 C   0  0  0  0  0  0  0  0  0  0  0  0
   -7.6092   -3.8066   -0.3756 C   0  0  0  0  0  0  0  0  0  0  0  0
   -8.8047   -3.9858   -1.0522 C   0  0  0  0  0  0  0  0  0  0  0  0
   -8.7991   -4.2358   -2.3965 C   0  0  0  0  0  0  0  0  0  0  0  0
   -7.6017   -4.3109   -3.0899 C   0  0  0  0  0  0  0  0  0  0  0  0
   -6.3957   -4.1407   -2.4631 C   0  0  0  0  0  0  0  0  0  0  0  0
    0.5004    0.7775    0.3618 C   0  0  0  0  0  0  0  0  0  0  0  0
    0.1594    0.3855    1.4963 O   0  0  0  0  0  0  0  0  0  0  0  0
    1.8294    0.5576   -0.0119 N   0  0  0  0  0  0  0  0  0  0  0  0
    2.7994   -0.1401    0.9222 C   0  0  1  0  0  0  0  0  0  0  0  0
    2.8942   -1.5346    0.4226 C   0  0  0  0  0  0  0  0  0  0  0  0
    3.7260   -2.5377    1.0872 C   0  0  0  0  0  0  0  0  0  0  0  0
    5.1988   -2.3826    1.1478 C   0  0  0  0  0  0  0  0  0  0  0  0
    5.7954   -2.2805   -0.1754 N   0  0  0  0  0  0  0  0  0  0  0  0
    7.1920   -2.1567   -0.2903 C   0  0  0  0  0  0  0  0  0  0  0  0
    7.8032   -0.9640    0.1712 N   0  0  0  0  0  0  0  0  0  0  0  0
    7.9045   -3.0914   -0.7965 N   0  0  0  0  0  0  0  0  0  0  0  0
    3.9854    0.7054    0.8379 C   0  0  0  0  0  0  0  0  0  0  0  0
    4.3834    1.1452   -0.3085 O   0  0  0  0  0  0  0  0  0  0  0  0
    4.8047    1.1338    1.9754 C   0  0  0  0  0  0  0  0  0  0  0  0
    5.8748    1.9059    1.9531 N   0  0  0  0  0  0  0  0  0  0  0  0
    6.4862    2.1961    3.0504 C   0  0  0  0  0  0  0  0  0  0  0  0
    5.9964    1.6842    4.2227 C   0  0  0  0  0  0  0  0  0  0  0  0
    4.6428    0.7894    3.6444 S   0  0  0  0  0  0  0  0  0  0  0  0
    0.3938    4.9734   -5.0734 H   0  0  0  0  0  0  0  0  0  0  0  0
    0.4121    5.9066   -3.5527 H   0  0  0  0  0  0  0  0  0  0  0  0
    3.7928    5.1198   -5.3017 H   0  0  0  0  0  0  0  0  0  0  0  0
    3.5491    6.3408   -4.0537 H   0  0  0  0  0  0  0  0  0  0  0  0
    0.2076    3.3046   -3.4961 H   0  0  0  0  0  0  0  0  0  0  0  0
    1.1780    1.8887   -2.8933 H   0  0  0  0  0  0  0  0  0  0  0  0
    1.7853    3.1967   -0.8523 H   0  0  0  0  0  0  0  0  0  0  0  0
    0.7662    4.5338   -1.3751 H   0  0  0  0  0  0  0  0  0  0  0  0
   -0.4348    3.4180    0.2703 H   0  0  0  0  0  0  0  0  0  0  0  0
   -1.2567    3.2340   -1.3285 H   0  0  0  0  0  0  0  0  0  0  0  0
   -0.6311    0.8274   -1.4411 H   0  0  0  0  0  0  0  0  0  0  0  0
   -2.3021    2.0553    0.6107 H   0  0  0  0  0  0  0  0  0  0  0  0
   -4.3832    0.0787    0.4807 H   0  0  0  0  0  0  0  0  0  0  0  0
   -4.4612   -0.7560    2.8741 H   0  0  0  0  0  0  0  0  0  0  0  0
   -2.7100   -0.9367    2.8725 H   0  0  0  0  0  0  0  0  0  0  0  0
   -2.2251    1.3669    2.6901 H   0  0  0  0  0  0  0  0  0  0  0  0
   -3.9429    1.8610    2.4335 H   0  0  0  0  0  0  0  0  0  0  0  0
   -4.0533    3.1532    4.7294 H   0  0  0  0  0  0  0  0  0  0  0  0
   -2.8234    2.5701    5.8687 H   0  0  0  0  0  0  0  0  0  0  0  0
   -3.1020   -2.6154    1.0198 H   0  0  0  0  0  0  0  0  0  0  0  0
   -5.1121   -4.3375    0.5754 H   0  0  0  0  0  0  0  0  0  0  0  0
   -4.3331   -4.1346   -0.9996 H   0  0  0  0  0  0  0  0  0  0  0  0
   -7.5697   -3.6046    0.6756 H   0  0  0  0  0  0  0  0  0  0  0  0
   -9.7080   -3.9148   -0.4589 H   0  0  0  0  0  0  0  0  0  0  0  0
   -9.7069   -4.3795   -2.9514 H   0  0  0  0  0  0  0  0  0  0  0  0
   -7.6151   -4.5133   -4.1682 H   0  0  0  0  0  0  0  0  0  0  0  0
   -5.4355   -4.1933   -2.9948 H   0  0  0  0  0  0  0  0  0  0  0  0
    2.2149    0.8380   -0.9029 H   0  0  0  0  0  0  0  0  0  0  0  0
    2.2761   -0.1342    1.8967 H   0  0  0  0  0  0  0  0  0  0  0  0
    1.8542   -1.9840    0.2895 H   0  0  0  0  0  0  0  0  0  0  0  0
    3.2070   -1.4302   -0.6792 H   0  0  0  0  0  0  0  0  0  0  0  0
    3.2995   -2.7157    2.1412 H   0  0  0  0  0  0  0  0  0  0  0  0
    3.5360   -3.5752    0.6220 H   0  0  0  0  0  0  0  0  0  0  0  0
    5.6428   -3.3964    1.5203 H   0  0  0  0  0  0  0  0  0  0  0  0
    5.6111   -1.6855    1.8781 H   0  0  0  0  0  0  0  0  0  0  0  0
    5.1430   -2.3045   -0.9913 H   0  0  0  0  0  0  0  0  0  0  0  0
    7.8172   -0.1409   -0.4875 H   0  0  0  0  0  0  0  0  0  0  0  0
    8.2123   -0.9318    1.1200 H   0  0  0  0  0  0  0  0  0  0  0  0
    7.4293   -3.9579   -1.1268 H   0  0  0  0  0  0  0  0  0  0  0  0
    7.3880    2.8423    3.0769 H   0  0  0  0  0  0  0  0  0  0  0  0
    6.3930    1.8276    5.2438 H   0  0  0  0  0  0  0  0  0  0  0  0
  1  2  1  0
  2  3  1  0
  2  4  2  3
  4  5  1  0
  5  6  1  0
  6  7  1  0
  7  8  1  0
  8  9  1  0
  9 10  1  0
 10 11  2  0
 10 12  1  0
 12 13  1  0
 13 14  1  0
 14 15  1  0
 15 16  1  0
 15 17  2  0
 12 18  1  0
 18 19  1  0
 19 20  2  0
 19 21  1  0
 21 22  1  0
 22 23  2  0
 23 24  1  0
 24 25  2  0
 25 26  1  0
 26 27  2  0
  8 28  1  0
 28 29  2  0
 28 30  1  0
 30 31  1  0
 31 32  1  0
 32 33  1  0
 33 34  1  0
 34 35  1  0
 35 36  1  0
 36 37  1  0
 36 38  2  3
 31 39  1  0
 39 40  2  0
 39 41  1  0
 41 42  2  0
 42 43  1  0
 43 44  2  0
 44 45  1  0
 27 22  1  0
 45 41  1  0
  1 46  1  0
  1 47  1  0
  3 48  1  0
  3 49  1  0
  5 50  1  0
  5 51  1  0
  6 52  1  0
  6 53  1  0
  7 54  1  0
  7 55  1  0
  8 56  1  6
  9 57  1  0
 12 58  1  6
 13 59  1  0
 13 60  1  0
 14 61  1  0
 14 62  1  0
 16 63  1  0
 16 64  1  0
 18 65  1  0
 21 66  1  0
 21 67  1  0
 23 68  1  0
 24 69  1  0
 25 70  1  0
 26 71  1  0
 27 72  1  0
 30 73  1  0
 31 74  1  1
 32 75  1  0
 32 76  1  0
 33 77  1  0
 33 78  1  0
 34 79  1  0
 34 80  1  0
 35 81  1  0
 37 82  1  0
 37 83  1  0
 38 84  1  0
 43 85  1  0
 44 86  1  0
M  END
$$$$
[H]c1nc(N([H])c2c([H])c([H])c(N3C([H])([H])C([H])([H])C([H])(N4C([H])([H])C([H])([H])N(C([H])([H])[H])C([H])([H])C4([H])[H])C([H])([H])C3([H])[H])c([H])c2OC([H])([H])[H])nc(N([H])c2c([H])c([H])c([H])c([H])c2S(=O)(=O)C([H])(C([H])([H])[H])C([H])([H])[H])c1Cl
     RDKit          3D

 82 86  0  0  0  0  0  0  0  0999 V2000
   -0.1870    3.7228   -1.2569 C   0  0  0  0  0  0  0  0  0  0  0  0
    0.4390    2.5297   -0.8437 O   0  0  0  0  0  0  0  0  0  0  0  0
   -0.3483    1.4775   -0.4024 C   0  0  0  0  0  0  0  0  0  0  0  0
   -1.7220    1.6350   -0.3827 C   0  0  0  0  0  0  0  0  0  0  0  0
   -2.5624    0.6308    0.0436 C   0  0  0  0  0  0  0  0  0  0  0  0
   -1.9599   -0.5357    0.4478 C   0  0  0  0  0  0  0  0  0  0  0  0
   -0.5748   -0.7280    0.4408 C   0  0  0  0  0  0  0  0  0  0  0  0
    0.2576    0.2764    0.0150 C   0  0  0  0  0  0  0  0  0  0  0  0
    1.6540    0.2011   -0.0367 N   0  0  0  0  0  0  0  0  0  0  0  0
    2.4984   -0.8842    0.3177 C   0  0  0  0  0  0  0  0  0  0  0  0
    2.1033   -2.0726    0.7812 N   0  0  0  0  0  0  0  0  0  0  0  0
    2.9559   -3.0558    1.0957 C   0  0  0  0  0  0  0  0  0  0  0  0
    4.3092   -2.8632    0.9451 C   0  0  0  0  0  0  0  0  0  0  0  0
    5.4455   -4.1449    1.3534 Cl  0  0  0  0  0  0  0  0  0  0  0  0
    4.7527   -1.6166    0.4572 C   0  0  0  0  0  0  0  0  0  0  0  0
    6.1380   -1.4466    0.3110 N   0  0  0  0  0  0  0  0  0  0  0  0
    6.9009   -0.3576   -0.1368 C   0  0  0  0  0  0  0  0  0  0  0  0
    6.2766    0.8084   -0.5266 C   0  0  0  0  0  0  0  0  0  0  0  0
    7.0240    1.9039   -0.9778 C   0  0  0  0  0  0  0  0  0  0  0  0
    8.3820    1.8034   -1.0274 C   0  0  0  0  0  0  0  0  0  0  0  0
    9.0024    0.6381   -0.6374 C   0  0  0  0  0  0  0  0  0  0  0  0
    8.2961   -0.4485   -0.1920 C   0  0  0  0  0  0  0  0  0  0  0  0
    9.0842   -1.8926    0.2913 S   0  0  0  0  0  0  0  0  0  0  0  0
    8.6633   -3.0312   -0.6035 O   0  0  0  0  0  0  0  0  0  0  0  0
    8.8235   -2.3045    1.7132 O   0  0  0  0  0  0  0  0  0  0  0  0
   10.8572   -1.7881    0.1370 C   0  0  0  0  0  0  0  0  0  0  0  0
   11.2609   -1.6791   -1.2975 C   0  0  0  0  0  0  0  0  0  0  0  0
   11.4760   -0.7869    1.0544 C   0  0  0  0  0  0  0  0  0  0  0  0
    3.8248   -0.7008    0.1721 N   0  0  0  0  0  0  0  0  0  0  0  0
   -3.9818    0.8060    0.0512 N   0  0  0  0  0  0  0  0  0  0  0  0
   -4.5241    1.9609   -0.5784 C   0  0  0  0  0  0  0  0  0  0  0  0
   -6.0011    1.9283   -0.8544 C   0  0  0  0  0  0  0  0  0  0  0  0
   -6.8245    1.3726    0.2584 C   0  0  0  0  0  0  0  0  0  0  0  0
   -6.0036    0.6088    1.2781 C   0  0  0  0  0  0  0  0  0  0  0  0
   -4.8657   -0.1463    0.6796 C   0  0  0  0  0  0  0  0  0  0  0  0
   -7.9560    0.6086   -0.0875 N   0  0  0  0  0  0  0  0  0  0  0  0
   -7.7905   -0.5856   -0.8057 C   0  0  0  0  0  0  0  0  0  0  0  0
   -9.1362   -1.0235   -1.3907 C   0  0  0  0  0  0  0  0  0  0  0  0
  -10.1390   -0.8718   -0.3544 N   0  0  0  0  0  0  0  0  0  0  0  0
  -10.0361   -1.8235    0.7053 C   0  0  0  0  0  0  0  0  0  0  0  0
  -10.3349    0.4834    0.0484 C   0  0  0  0  0  0  0  0  0  0  0  0
   -9.1475    1.3193   -0.4248 C   0  0  0  0  0  0  0  0  0  0  0  0
    0.5375    4.4499   -1.6799 H   0  0  0  0  0  0  0  0  0  0  0  0
   -0.9481    3.5330   -2.0530 H   0  0  0  0  0  0  0  0  0  0  0  0
   -0.6880    4.2523   -0.4156 H   0  0  0  0  0  0  0  0  0  0  0  0
   -2.1476    2.5764   -0.7105 H   0  0  0  0  0  0  0  0  0  0  0  0
   -2.6020   -1.3517    0.7883 H   0  0  0  0  0  0  0  0  0  0  0  0
   -0.2121   -1.6859    0.7807 H   0  0  0  0  0  0  0  0  0  0  0  0
    2.1500    1.0935   -0.3956 H   0  0  0  0  0  0  0  0  0  0  0  0
    2.6174   -4.0222    1.4737 H   0  0  0  0  0  0  0  0  0  0  0  0
    6.7215   -2.3022    0.5911 H   0  0  0  0  0  0  0  0  0  0  0  0
    5.2202    0.9989   -0.5296 H   0  0  0  0  0  0  0  0  0  0  0  0
    6.5603    2.8305   -1.2896 H   0  0  0  0  0  0  0  0  0  0  0  0
    9.0220    2.6252   -1.3712 H   0  0  0  0  0  0  0  0  0  0  0  0
   10.0936    0.6299   -0.7052 H   0  0  0  0  0  0  0  0  0  0  0  0
   11.2252   -2.8031    0.4806 H   0  0  0  0  0  0  0  0  0  0  0  0
   11.9033   -0.7785   -1.4926 H   0  0  0  0  0  0  0  0  0  0  0  0
   10.3307   -1.5514   -1.9199 H   0  0  0  0  0  0  0  0  0  0  0  0
   11.7765   -2.5763   -1.6995 H   0  0  0  0  0  0  0  0  0  0  0  0
   12.0225   -1.2557    1.8769 H   0  0  0  0  0  0  0  0  0  0  0  0
   12.1781   -0.1622    0.4319 H   0  0  0  0  0  0  0  0  0  0  0  0
   10.7434   -0.0899    1.5079 H   0  0  0  0  0  0  0  0  0  0  0  0
   -4.2803    2.8410    0.0525 H   0  0  0  0  0  0  0  0  0  0  0  0
   -3.9354    2.1199   -1.5269 H   0  0  0  0  0  0  0  0  0  0  0  0
   -6.3084    2.9635   -1.1164 H   0  0  0  0  0  0  0  0  0  0  0  0
   -6.1470    1.3325   -1.7818 H   0  0  0  0  0  0  0  0  0  0  0  0
   -7.2139    2.2642    0.8421 H   0  0  0  0  0  0  0  0  0  0  0  0
   -6.6586   -0.1075    1.8153 H   0  0  0  0  0  0  0  0  0  0  0  0
   -5.5929    1.2907    2.0626 H   0  0  0  0  0  0  0  0  0  0  0  0
   -5.1731   -0.8869   -0.0780 H   0  0  0  0  0  0  0  0  0  0  0  0
   -4.3121   -0.6097    1.5260 H   0  0  0  0  0  0  0  0  0  0  0  0
   -7.5080   -1.4012   -0.0997 H   0  0  0  0  0  0  0  0  0  0  0  0
   -7.0082   -0.5774   -1.5870 H   0  0  0  0  0  0  0  0  0  0  0  0
   -9.4445   -0.3742   -2.2343 H   0  0  0  0  0  0  0  0  0  0  0  0
   -9.0261   -2.0597   -1.7202 H   0  0  0  0  0  0  0  0  0  0  0  0
   -9.1822   -2.5377    0.5321 H   0  0  0  0  0  0  0  0  0  0  0  0
   -9.9814   -1.3564    1.7041 H   0  0  0  0  0  0  0  0  0  0  0  0
  -10.9456   -2.4645    0.6802 H   0  0  0  0  0  0  0  0  0  0  0  0
  -11.2261    0.8855   -0.4545 H   0  0  0  0  0  0  0  0  0  0  0  0
  -10.4517    0.5517    1.1515 H   0  0  0  0  0  0  0  0  0  0  0  0
   -9.2778    1.5186   -1.4917 H   0  0  0  0  0  0  0  0  0  0  0  0
   -9.1611    2.2698    0.1783 H   0  0  0  0  0  0  0  0  0  0  0  0
  1  2  1  0
  2  3  1  0
  3  4  2  0
  4  5  1  0
  5  6  2  0
  6  7  1  0
  7  8  2  0
  8  9  1  0
  9 10  1  0
 10 11  2  0
 11 12  1  0
 12 13  2  0
 13 14  1  0
 13 15  1  0
 15 16  1  0
 16 17  1  0
 17 18  2  0
 18 19  1  0
 19 20  2  0
 20 21  1  0
 21 22  2  0
 22 23  1  0
 23 24  2  0
 23 25  2  0
 23 26  1  0
 26 27  1  0
 26 28  1  0
 15 29  2  0
  5 30  1  0
 30 31  1  0
 31 32  1  0
 32 33  1  0
 33 34  1  0
 34 35  1  0
 33 36  1  0
 36 37  1  0
 37 38  1  0
 38 39  1  0
 39 40  1  0
 39 41  1  0
 41 42  1  0
  8  3  1  0
 29 10  1  0
 35 30  1  0
 42 36  1  0
 22 17  1  0
  1 43  1  0
  1 44  1  0
  1 45  1  0
  4 46  1  0
  6 47  1  0
  7 48  1  0
  9 49  1  0
 12 50  1  0
 16 51  1  0
 18 52  1  0
 19 53  1  0
 20 54  1  0
 21 55  1  0
 26 56  1  0
 27 57  1  0
 27 58  1  0
 27 59  1  0
 28 60  1  0
 28 61  1  0
 28 62  1  0
 31 63  1  0
 31 64  1  0
 32 65  1  0
 32 66  1  0
 33 67  1  0
 34 68  1  0
 34 69  1  0
 35 70  1  0
 35 71  1  0
 37 72  1  0
 37 73  1  0
 38 74  1  0
 38 75  1  0
 40 76  1  0
 40 77  1  0
 40 78  1  0
 41 79  1  0
 41 80  1  0
 42 81  1  0
 42 82  1  0
M  END
$$$$
[H]c1nc(N([H])c2c([H])c([H])c(C#N)c([H])c2OC([H])([H])[H])nc(N([H])c2c([H])c([H])c([H])c([H])c2S(=O)(=O)C([H])(C([H])([H])[H])C([H])([H])[H])c1Cl
     RDKit          3D

 51 53  0  0  0  0  0  0  0  0999 V2000
    5.5145   -2.8048    1.2898 C   0  0  0  0  0  0  0  0  0  0  0  0
    4.6828   -1.7479    0.9224 O   0  0  0  0  0  0  0  0  0  0  0  0
    5.1130   -0.4378    0.7694 C   0  0  0  0  0  0  0  0  0  0  0  0
    6.4276   -0.1272    0.9842 C   0  0  0  0  0  0  0  0  0  0  0  0
    6.8704    1.1643    0.8373 C   0  0  0  0  0  0  0  0  0  0  0  0
    5.9682    2.1304    0.4721 C   0  0  0  0  0  0  0  0  0  0  0  0
    4.6168    1.7867    0.2558 C   0  0  0  0  0  0  0  0  0  0  0  0
    4.1421    0.5106    0.3933 C   0  0  0  0  0  0  0  0  0  0  0  0
    2.8178    0.1230    0.1908 N   0  0  0  0  0  0  0  0  0  0  0  0
    1.7095    0.9106   -0.1843 C   0  0  0  0  0  0  0  0  0  0  0  0
    1.7307    2.2189   -0.4219 N   0  0  0  0  0  0  0  0  0  0  0  0
    0.6762    2.9624   -0.7777 C   0  0  0  0  0  0  0  0  0  0  0  0
   -0.5407    2.2817   -0.9036 C   0  0  0  0  0  0  0  0  0  0  0  0
   -1.9709    3.1550   -1.3611 Cl  0  0  0  0  0  0  0  0  0  0  0  0
   -0.6430    0.9220   -0.6733 C   0  0  0  0  0  0  0  0  0  0  0  0
   -1.8872    0.3036   -0.8091 N   0  0  0  0  0  0  0  0  0  0  0  0
   -2.2862   -1.0373   -0.6487 C   0  0  0  0  0  0  0  0  0  0  0  0
   -1.4094   -2.0681   -0.4293 C   0  0  0  0  0  0  0  0  0  0  0  0
   -1.8209   -3.3814   -0.3106 C   0  0  0  0  0  0  0  0  0  0  0  0
   -3.1526   -3.6732   -0.4149 C   0  0  0  0  0  0  0  0  0  0  0  0
   -4.0382   -2.6389   -0.6352 C   0  0  0  0  0  0  0  0  0  0  0  0
   -3.6374   -1.3244   -0.7545 C   0  0  0  0  0  0  0  0  0  0  0  0
   -4.8880   -0.1471   -0.9900 S   0  0  0  0  0  0  0  0  0  0  0  0
   -4.7699    0.6469   -2.2445 O   0  0  0  0  0  0  0  0  0  0  0  0
   -6.2326   -0.8574   -1.0723 O   0  0  0  0  0  0  0  0  0  0  0  0
   -5.0366    0.9927    0.3566 C   0  0  0  0  0  0  0  0  0  0  0  0
   -6.1945    1.9474    0.1576 C   0  0  0  0  0  0  0  0  0  0  0  0
   -5.3367    0.2620    1.6679 C   0  0  0  0  0  0  0  0  0  0  0  0
    0.5001    0.3238   -0.3260 N   0  0  0  0  0  0  0  0  0  0  0  0
    8.2465    1.5101    1.0584 C   0  0  0  0  0  0  0  0  0  0  0  0
    9.3455    1.8059    1.2298 N   0  0  0  0  0  0  0  0  0  0  0  0
    6.0006   -3.3054    0.4279 H   0  0  0  0  0  0  0  0  0  0  0  0
    4.8700   -3.5698    1.7991 H   0  0  0  0  0  0  0  0  0  0  0  0
    6.3012   -2.5466    2.0135 H   0  0  0  0  0  0  0  0  0  0  0  0
    7.1739   -0.8574    1.2736 H   0  0  0  0  0  0  0  0  0  0  0  0
    6.3053    3.1545    0.3527 H   0  0  0  0  0  0  0  0  0  0  0  0
    3.9942    2.6020   -0.0236 H   0  0  0  0  0  0  0  0  0  0  0  0
    2.6244   -0.9279    0.3451 H   0  0  0  0  0  0  0  0  0  0  0  0
    0.7184    4.0265   -0.9658 H   0  0  0  0  0  0  0  0  0  0  0  0
   -2.6829    0.9563   -1.1019 H   0  0  0  0  0  0  0  0  0  0  0  0
   -0.3183   -1.8943   -0.3405 H   0  0  0  0  0  0  0  0  0  0  0  0
   -1.0599   -4.1367   -0.1372 H   0  0  0  0  0  0  0  0  0  0  0  0
   -3.4753   -4.7088   -0.3216 H   0  0  0  0  0  0  0  0  0  0  0  0
   -5.0972   -2.9302   -0.7110 H   0  0  0  0  0  0  0  0  0  0  0  0
   -4.1366    1.5874    0.5686 H   0  0  0  0  0  0  0  0  0  0  0  0
   -7.0790    1.3246   -0.1154 H   0  0  0  0  0  0  0  0  0  0  0  0
   -6.4260    2.3773    1.1577 H   0  0  0  0  0  0  0  0  0  0  0  0
   -5.9687    2.7281   -0.5912 H   0  0  0  0  0  0  0  0  0  0  0  0
   -5.7495    1.0318    2.3527 H   0  0  0  0  0  0  0  0  0  0  0  0
   -4.4082   -0.1079    2.1488 H   0  0  0  0  0  0  0  0  0  0  0  0
   -6.1034   -0.5161    1.5253 H   0  0  0  0  0  0  0  0  0  0  0  0
  1  2  1  0
  2  3  1  0
  3  4  2  0
  4  5  1  0
  5  6  2  0
  6  7  1  0
  7  8  2  0
  8  9  1  0
  9 10  1  0
 10 11  2  0
 11 12  1  0
 12 13  2  0
 13 14  1  0
 13 15  1  0
 15 16  1  0
 16 17  1  0
 17 18  2  0
 18 19  1  0
 19 20  2  0
 20 21  1  0
 21 22  2  0
 22 23  1  0
 23 24  2  0
 23 25  2  0
 23 26  1  0
 26 27  1  0
 26 28  1  0
 15 29  2  0
  5 30  1  0
 30 31  3  0
  8  3  1  0
 29 10  1  0
 22 17  1  0
  1 32  1  0
  1 33  1  0
  1 34  1  0
  4 35  1  0
  6 36  1  0
  7 37  1  0
  9 38  1  0
 12 39  1  0
 16 40  1  0
 18 41  1  0
 19 42  1  0
 20 43  1  0
 21 44  1  0
 26 45  1  0
 27 46  1  0
 27 47  1  0
 27 48  1  0
 28 49  1  0
 28 50  1  0
 28 51  1  0
M  END
$$$$
[H]c1c([H])c([H])c(/C(=C2/C(=O)N([H])c3c([H])c(C(=O)OC([H])([H])[H])c([H])c([H])c32)N([H])c2c([H])c([H])c(N(C(=O)C([H])([H])N3C([H])([H])C([H])([H])N(C([H])([H])[H])C([H])([H])C3([H])[H])C([H])([H])[H])c([H])c2[H])c([H])c1[H]
     RDKit          3D

 73 77  0  0  0  0  0  0  0  0999 V2000
   -9.6259    2.7362   -3.1505 C   0  0  0  0  0  0  0  0  0  0  0  0
   -8.5822    2.1423   -2.4234 O   0  0  0  0  0  0  0  0  0  0  0  0
   -7.8814    1.0256   -2.8716 C   0  0  0  0  0  0  0  0  0  0  0  0
   -8.1814    0.5157   -3.9683 O   0  0  0  0  0  0  0  0  0  0  0  0
   -6.8215    0.5153   -2.0123 C   0  0  0  0  0  0  0  0  0  0  0  0
   -6.4947    1.0717   -0.8140 C   0  0  0  0  0  0  0  0  0  0  0  0
   -5.4728    0.5613   -0.0049 C   0  0  0  0  0  0  0  0  0  0  0  0
   -4.7972   -0.5386   -0.4611 C   0  0  0  0  0  0  0  0  0  0  0  0
   -3.6924   -1.2784    0.1218 C   0  0  0  0  0  0  0  0  0  0  0  0
   -3.1406   -1.1461    1.2984 C   0  0  0  0  0  0  0  0  0  0  0  0
   -2.0489   -2.0001    1.6122 N   0  0  0  0  0  0  0  0  0  0  0  0
   -0.6955   -1.7404    1.2757 C   0  0  0  0  0  0  0  0  0  0  0  0
   -0.3049   -0.6232    0.5755 C   0  0  0  0  0  0  0  0  0  0  0  0
    1.0409   -0.3967    0.2619 C   0  0  0  0  0  0  0  0  0  0  0  0
    1.9996   -1.2983    0.6546 C   0  0  0  0  0  0  0  0  0  0  0  0
    1.6109   -2.4148    1.3542 C   0  0  0  0  0  0  0  0  0  0  0  0
    0.2717   -2.6400    1.6660 C   0  0  0  0  0  0  0  0  0  0  0  0
    3.3997   -1.0553    0.3267 N   0  0  0  0  0  0  0  0  0  0  0  0
    4.2743   -1.0443    1.4779 C   0  0  0  0  0  0  0  0  0  0  0  0
    3.8217   -0.9048   -0.9850 C   0  0  0  0  0  0  0  0  0  0  0  0
    2.8737   -1.1517   -1.8665 O   0  0  0  0  0  0  0  0  0  0  0  0
    5.0990   -0.5334   -1.5790 C   0  0  0  0  0  0  0  0  0  0  0  0
    6.1819   -0.1535   -0.7808 N   0  0  0  0  0  0  0  0  0  0  0  0
    6.1479    1.1188   -0.1443 C   0  0  0  0  0  0  0  0  0  0  0  0
    7.0593    2.1225   -0.8152 C   0  0  0  0  0  0  0  0  0  0  0  0
    8.4000    1.6684   -0.9414 N   0  0  0  0  0  0  0  0  0  0  0  0
    9.2089    2.3796   -1.8600 C   0  0  0  0  0  0  0  0  0  0  0  0
    8.6125    0.2731   -0.8355 C   0  0  0  0  0  0  0  0  0  0  0  0
    7.4754   -0.6243   -1.1164 C   0  0  0  0  0  0  0  0  0  0  0  0
   -3.6419   -0.3131    2.3473 C   0  0  0  0  0  0  0  0  0  0  0  0
   -3.0180    0.7830    2.8957 C   0  0  0  0  0  0  0  0  0  0  0  0
   -3.5184    1.4571    3.9801 C   0  0  0  0  0  0  0  0  0  0  0  0
   -4.6869    1.0413    4.5595 C   0  0  0  0  0  0  0  0  0  0  0  0
   -5.3502   -0.0483    4.0505 C   0  0  0  0  0  0  0  0  0  0  0  0
   -4.8397   -0.7104    2.9694 C   0  0  0  0  0  0  0  0  0  0  0  0
   -3.3759   -2.3505   -0.8690 C   0  0  0  0  0  0  0  0  0  0  0  0
   -2.4929   -3.2072   -0.7677 O   0  0  0  0  0  0  0  0  0  0  0  0
   -4.2699   -2.2220   -1.9626 N   0  0  0  0  0  0  0  0  0  0  0  0
   -5.1182   -1.1186   -1.6868 C   0  0  0  0  0  0  0  0  0  0  0  0
   -6.1305   -0.5894   -2.4585 C   0  0  0  0  0  0  0  0  0  0  0  0
   -9.4840    3.8397   -3.1260 H   0  0  0  0  0  0  0  0  0  0  0  0
  -10.6287    2.4400   -2.7994 H   0  0  0  0  0  0  0  0  0  0  0  0
   -9.5092    2.4513   -4.2231 H   0  0  0  0  0  0  0  0  0  0  0  0
   -7.0554    1.9338   -0.4979 H   0  0  0  0  0  0  0  0  0  0  0  0
   -5.2980    1.1170    0.8877 H   0  0  0  0  0  0  0  0  0  0  0  0
   -2.3225   -2.8839    2.1371 H   0  0  0  0  0  0  0  0  0  0  0  0
   -1.0852    0.0650    0.2820 H   0  0  0  0  0  0  0  0  0  0  0  0
    1.2956    0.4918   -0.2875 H   0  0  0  0  0  0  0  0  0  0  0  0
    2.3988   -3.1019    1.6458 H   0  0  0  0  0  0  0  0  0  0  0  0
   -0.0090   -3.5256    2.2172 H   0  0  0  0  0  0  0  0  0  0  0  0
    4.3098   -0.0784    2.0033 H   0  0  0  0  0  0  0  0  0  0  0  0
    5.2439   -1.4894    1.2146 H   0  0  0  0  0  0  0  0  0  0  0  0
    3.8678   -1.7578    2.2758 H   0  0  0  0  0  0  0  0  0  0  0  0
    4.9292    0.2743   -2.3603 H   0  0  0  0  0  0  0  0  0  0  0  0
    5.4335   -1.4380   -2.1821 H   0  0  0  0  0  0  0  0  0  0  0  0
    6.5430    1.0192    0.8973 H   0  0  0  0  0  0  0  0  0  0  0  0
    5.1051    1.4958   -0.1442 H   0  0  0  0  0  0  0  0  0  0  0  0
    7.0209    3.0816   -0.2641 H   0  0  0  0  0  0  0  0  0  0  0  0
    6.6418    2.3090   -1.8254 H   0  0  0  0  0  0  0  0  0  0  0  0
    9.5515    1.7468   -2.6801 H   0  0  0  0  0  0  0  0  0  0  0  0
    8.6875    3.2979   -2.1848 H   0  0  0  0  0  0  0  0  0  0  0  0
   10.1414    2.7025   -1.3095 H   0  0  0  0  0  0  0  0  0  0  0  0
    9.4640   -0.0087   -1.5031 H   0  0  0  0  0  0  0  0  0  0  0  0
    8.9967    0.0613    0.2048 H   0  0  0  0  0  0  0  0  0  0  0  0
    7.6214   -1.6038   -0.5691 H   0  0  0  0  0  0  0  0  0  0  0  0
    7.4535   -0.9472   -2.2000 H   0  0  0  0  0  0  0  0  0  0  0  0
   -2.1060    1.1196    2.4536 H   0  0  0  0  0  0  0  0  0  0  0  0
   -3.0267    2.3165    4.4077 H   0  0  0  0  0  0  0  0  0  0  0  0
   -5.1025    1.5578    5.4176 H   0  0  0  0  0  0  0  0  0  0  0  0
   -6.2843   -0.3557    4.5382 H   0  0  0  0  0  0  0  0  0  0  0  0
   -5.4043   -1.5664    2.6063 H   0  0  0  0  0  0  0  0  0  0  0  0
   -4.3057   -2.8330   -2.8311 H   0  0  0  0  0  0  0  0  0  0  0  0
   -6.3795   -1.0398   -3.4080 H   0  0  0  0  0  0  0  0  0  0  0  0
  1  2  1  0
  2  3  1  0
  3  4  2  0
  3  5  1  0
  5  6  2  0
  6  7  1  0
  7  8  2  0
  8  9  1  0
  9 10  2  0
 10 11  1  0
 11 12  1  0
 12 13  2  0
 13 14  1  0
 14 15  2  0
 15 16  1  0
 16 17  2  0
 15 18  1  0
 18 19  1  0
 18 20  1  0
 20 21  2  0
 20 22  1  0
 22 23  1  0
 23 24  1  0
 24 25  1  0
 25 26  1  0
 26 27  1  0
 26 28  1  0
 28 29  1  0
 10 30  1  0
 30 31  2  0
 31 32  1  0
 32 33  2  0
 33 34  1  0
 34 35  2  0
  9 36  1  0
 36 37  2  0
 36 38  1  0
 38 39  1  0
 39 40  2  0
 40  5  1  0
 39  8  1  0
 17 12  1  0
 29 23  1  0
 35 30  1  0
  1 41  1  0
  1 42  1  0
  1 43  1  0
  6 44  1  0
  7 45  1  0
 11 46  1  0
 13 47  1  0
 14 48  1  0
 16 49  1  0
 17 50  1  0
 19 51  1  0
 19 52  1  0
 19 53  1  0
 22 54  1  0
 22 55  1  0
 24 56  1  0
 24 57  1  0
 25 58  1  0
 25 59  1  0
 27 60  1  0
 27 61  1  0
 27 62  1  0
 28 63  1  0
 28 64  1  0
 29 65  1  0
 29 66  1  0
 31 67  1  0
 32 68  1  0
 33 69  1  0
 34 70  1  0
 35 71  1  0
 38 72  1  0
 40 73  1  0
M  END
$$$$
[H]N=C(N([H])[H])N([H])C([H])([H])C([H])([H])C([H])([H])[C@@]1([H])C(=O)N2C([H])([H])C([H])([H])C([H])([H])[C@@]2([H])C(=O)N([H])[C@@]([H])(C([H])(C([H])([H])[H])C([H])([H])[H])C(=O)N([H])[C@@]([H])(C([H])([H])c2c([H])c([H])c([H])c([H])c2[H])C(=O)N2C([H])([H])C([H])([H])C([H])([H])[C@@]2([H])C(=O)N1[H]
     RDKit          3D

 87 90  0  0  0  0  0  0  0  0999 V2000
   -2.1695   -3.9440   -2.3241 C   0  0  0  0  0  0  0  0  0  0  0  0
   -1.7904   -3.8040   -0.8523 C   0  0  0  0  0  0  0  0  0  0  0  0
   -2.7100   -4.6856   -0.0683 C   0  0  0  0  0  0  0  0  0  0  0  0
   -1.8850   -2.3237   -0.4697 C   0  0  2  0  0  0  0  0  0  0  0  0
   -1.5395   -2.1264    0.9199 N   0  0  0  0  0  0  0  0  0  0  0  0
   -0.2371   -2.0145    1.4695 C   0  0  0  0  0  0  0  0  0  0  0  0
   -0.1365   -1.1528    2.4078 O   0  0  0  0  0  0  0  0  0  0  0  0
    0.9574   -2.7260    1.1249 C   0  0  2  0  0  0  0  0  0  0  0  0
    1.9999   -2.7666    2.2634 C   0  0  0  0  0  0  0  0  0  0  0  0
    3.1595   -3.4386    1.5063 C   0  0  0  0  0  0  0  0  0  0  0  0
    2.6933   -3.5423    0.0666 C   0  0  0  0  0  0  0  0  0  0  0  0
    1.8126   -2.3265    0.0490 N   0  0  0  0  0  0  0  0  0  0  0  0
    1.8571   -1.2070   -0.7812 C   0  0  0  0  0  0  0  0  0  0  0  0
    1.5621   -1.4855   -2.0261 O   0  0  0  0  0  0  0  0  0  0  0  0
    2.1638    0.2073   -0.5679 C   0  0  2  0  0  0  0  0  0  0  0  0
    3.4884    0.3629    0.2540 C   0  0  0  0  0  0  0  0  0  0  0  0
    3.7048    1.8157    0.3991 C   0  0  0  0  0  0  0  0  0  0  0  0
    4.8651    2.3132    1.1528 C   0  0  0  0  0  0  0  0  0  0  0  0
    6.1204    1.9137    0.6176 N   0  0  0  0  0  0  0  0  0  0  0  0
    6.5935    0.5885    0.6857 C   0  0  0  0  0  0  0  0  0  0  0  0
    7.2487   -0.0673   -0.3985 N   0  0  0  0  0  0  0  0  0  0  0  0
    6.4496   -0.0768    1.7815 N   0  0  0  0  0  0  0  0  0  0  0  0
    1.1656    1.0393    0.0122 N   0  0  0  0  0  0  0  0  0  0  0  0
    0.2261    1.8864   -0.5993 C   0  0  0  0  0  0  0  0  0  0  0  0
    0.1691    3.1007   -0.1886 O   0  0  0  0  0  0  0  0  0  0  0  0
   -0.7022    1.4993   -1.6735 C   0  0  2  0  0  0  0  0  0  0  0  0
   -0.0645    1.8524   -3.0312 C   0  0  0  0  0  0  0  0  0  0  0  0
   -0.1707    3.3554   -2.9489 C   0  0  0  0  0  0  0  0  0  0  0  0
   -1.4557    3.6103   -2.2599 C   0  0  0  0  0  0  0  0  0  0  0  0
   -1.9031    2.2904   -1.7804 N   0  0  0  0  0  0  0  0  0  0  0  0
   -3.2356    1.8897   -1.5085 C   0  0  0  0  0  0  0  0  0  0  0  0
   -4.1657    2.6044   -2.0776 O   0  0  0  0  0  0  0  0  0  0  0  0
   -3.6585    0.7605   -0.6590 C   0  0  2  0  0  0  0  0  0  0  0  0
   -3.2951    0.8192    0.7790 C   0  0  0  0  0  0  0  0  0  0  0  0
   -3.8905    1.9752    1.4927 C   0  0  0  0  0  0  0  0  0  0  0  0
   -5.1455    1.8554    2.1028 C   0  0  0  0  0  0  0  0  0  0  0  0
   -5.7154    2.9288    2.7723 C   0  0  0  0  0  0  0  0  0  0  0  0
   -5.0628    4.1474    2.8575 C   0  0  0  0  0  0  0  0  0  0  0  0
   -3.8303    4.2766    2.2625 C   0  0  0  0  0  0  0  0  0  0  0  0
   -3.2762    3.1854    1.5949 C   0  0  0  0  0  0  0  0  0  0  0  0
   -3.6157   -0.5385   -1.2906 N   0  0  0  0  0  0  0  0  0  0  0  0
   -3.2083   -1.7817   -0.8441 C   0  0  0  0  0  0  0  0  0  0  0  0
   -4.1380   -2.6866   -0.7125 O   0  0  0  0  0  0  0  0  0  0  0  0
   -2.7541   -3.0931   -2.6996 H   0  0  0  0  0  0  0  0  0  0  0  0
   -1.2530   -3.9990   -2.9684 H   0  0  0  0  0  0  0  0  0  0  0  0
   -2.7142   -4.8892   -2.5241 H   0  0  0  0  0  0  0  0  0  0  0  0
   -0.7734   -4.1791   -0.7748 H   0  0  0  0  0  0  0  0  0  0  0  0
   -3.0676   -4.2423    0.8831 H   0  0  0  0  0  0  0  0  0  0  0  0
   -3.5631   -5.0727   -0.6859 H   0  0  0  0  0  0  0  0  0  0  0  0
   -2.1501   -5.6015    0.2164 H   0  0  0  0  0  0  0  0  0  0  0  0
   -1.1339   -1.8535   -1.1469 H   0  0  0  0  0  0  0  0  0  0  0  0
   -2.3838   -2.0672    1.5720 H   0  0  0  0  0  0  0  0  0  0  0  0
    0.7541   -3.8601    1.0179 H   0  0  0  0  0  0  0  0  0  0  0  0
    1.6653   -3.4453    3.0761 H   0  0  0  0  0  0  0  0  0  0  0  0
    2.2546   -1.7732    2.6210 H   0  0  0  0  0  0  0  0  0  0  0  0
    4.0352   -2.7593    1.5778 H   0  0  0  0  0  0  0  0  0  0  0  0
    3.3704   -4.4422    1.9417 H   0  0  0  0  0  0  0  0  0  0  0  0
    3.4525   -3.5832   -0.6710 H   0  0  0  0  0  0  0  0  0  0  0  0
    2.0475   -4.4405   -0.0339 H   0  0  0  0  0  0  0  0  0  0  0  0
    2.5112    0.6826   -1.5465 H   0  0  0  0  0  0  0  0  0  0  0  0
    3.2434   -0.0863    1.2345 H   0  0  0  0  0  0  0  0  0  0  0  0
    4.2668   -0.2201   -0.2519 H   0  0  0  0  0  0  0  0  0  0  0  0
    2.7313    2.2385    0.8167 H   0  0  0  0  0  0  0  0  0  0  0  0
    3.6866    2.2463   -0.6573 H   0  0  0  0  0  0  0  0  0  0  0  0
    4.8438    3.4504    1.0603 H   0  0  0  0  0  0  0  0  0  0  0  0
    4.7898    2.1222    2.2579 H   0  0  0  0  0  0  0  0  0  0  0  0
    6.7853    2.5949    0.1282 H   0  0  0  0  0  0  0  0  0  0  0  0
    7.7223    0.5065   -1.1366 H   0  0  0  0  0  0  0  0  0  0  0  0
    7.2739   -1.0890   -0.4831 H   0  0  0  0  0  0  0  0  0  0  0  0
    5.9900    0.3634    2.6011 H   0  0  0  0  0  0  0  0  0  0  0  0
    1.1537    1.0073    1.0907 H   0  0  0  0  0  0  0  0  0  0  0  0
   -0.9102    0.4079   -1.6893 H   0  0  0  0  0  0  0  0  0  0  0  0
    0.9407    1.4652   -3.1464 H   0  0  0  0  0  0  0  0  0  0  0  0
   -0.7506    1.5129   -3.8411 H   0  0  0  0  0  0  0  0  0  0  0  0
   -0.1395    3.7965   -3.9738 H   0  0  0  0  0  0  0  0  0  0  0  0
    0.7320    3.8030   -2.4474 H   0  0  0  0  0  0  0  0  0  0  0  0
   -1.4236    4.3697   -1.4782 H   0  0  0  0  0  0  0  0  0  0  0  0
   -2.1655    4.0025   -3.0271 H   0  0  0  0  0  0  0  0  0  0  0  0
   -4.8239    0.9574   -0.5492 H   0  0  0  0  0  0  0  0  0  0  0  0
   -2.2420    0.8177    1.0138 H   0  0  0  0  0  0  0  0  0  0  0  0
   -3.7535   -0.0891    1.2580 H   0  0  0  0  0  0  0  0  0  0  0  0
   -5.7066    0.9448    2.0773 H   0  0  0  0  0  0  0  0  0  0  0  0
   -6.6870    2.8697    3.2563 H   0  0  0  0  0  0  0  0  0  0  0  0
   -5.4741    5.0068    3.3707 H   0  0  0  0  0  0  0  0  0  0  0  0
   -3.2899    5.2137    2.3080 H   0  0  0  0  0  0  0  0  0  0  0  0
   -2.3142    3.3362    1.1477 H   0  0  0  0  0  0  0  0  0  0  0  0
   -4.0119   -0.5139   -2.3048 H   0  0  0  0  0  0  0  0  0  0  0  0
  1  2  1  0
  2  3  1  0
  2  4  1  0
  4  5  1  0
  5  6  1  0
  6  7  2  0
  6  8  1  0
  8  9  1  0
  9 10  1  0
 10 11  1  0
 11 12  1  0
 12 13  1  0
 13 14  2  0
 13 15  1  0
 15 16  1  0
 16 17  1  0
 17 18  1  0
 18 19  1  0
 19 20  1  0
 20 21  1  0
 20 22  2  3
 15 23  1  0
 23 24  1  0
 24 25  2  0
 24 26  1  0
 26 27  1  0
 27 28  1  0
 28 29  1  0
 29 30  1  0
 30 31  1  0
 31 32  2  0
 31 33  1  0
 33 34  1  0
 34 35  1  0
 35 36  2  0
 36 37  1  0
 37 38  2  0
 38 39  1  0
 39 40  2  0
 33 41  1  0
 41 42  1  0
 42 43  2  0
 42  4  1  0
 12  8  1  0
 30 26  1  0
 40 35  1  0
  1 44  1  0
  1 45  1  0
  1 46  1  0
  2 47  1  0
  3 48  1  0
  3 49  1  0
  3 50  1  0
  4 51  1  6
  5 52  1  0
  8 53  1  6
  9 54  1  0
  9 55  1  0
 10 56  1  0
 10 57  1  0
 11 58  1  0
 11 59  1  0
 15 60  1  6
 16 61  1  0
 16 62  1  0
 17 63  1  0
 17 64  1  0
 18 65  1  0
 18 66  1  0
 19 67  1  0
 21 68  1  0
 21 69  1  0
 22 70  1  0
 23 71  1  0
 26 72  1  6
 27 73  1  0
 27 74  1  0
 28 75  1  0
 28 76  1  0
 29 77  1  0
 29 78  1  0
 33 79  1  1
 34 80  1  0
 34 81  1  0
 36 82  1  0
 37 83  1  0
 38 84  1  0
 39 85  1  0
 40 86  1  0
 41 87  1  0
M  END
$$$$
[H]OC([H])([H])c1c([H])c([H])c(C([H])([H])[H])c(N(c2nc(N([H])c3c([H])c(N4C([H])([H])C([H])([H])OC([H])([H])C4([H])[H])c([H])c(N4C([H])([H])C([H])([H])OC([H])([H])C4([H])[H])c3[H])nc([H])c2[H])C([H])([H])[H])c1[H]
     RDKit          3D

 70 74  0  0  0  0  0  0  0  0999 V2000
    4.8161   -0.0126    2.7557 C   0  0  0  0  0  0  0  0  0  0  0  0
    4.5648   -0.2531    1.3519 N   0  0  0  0  0  0  0  0  0  0  0  0
    3.2811   -0.7754    1.0168 C   0  0  0  0  0  0  0  0  0  0  0  0
    3.0506   -2.1188    0.8292 C   0  0  0  0  0  0  0  0  0  0  0  0
    1.7556   -2.4822    0.5186 C   0  0  0  0  0  0  0  0  0  0  0  0
    0.7827   -1.5802    0.4071 N   0  0  0  0  0  0  0  0  0  0  0  0
    0.9845   -0.2735    0.5850 C   0  0  0  0  0  0  0  0  0  0  0  0
   -0.0285    0.7260    0.4812 N   0  0  0  0  0  0  0  0  0  0  0  0
   -1.3860    0.5212    0.1625 C   0  0  0  0  0  0  0  0  0  0  0  0
   -2.2954    1.5062    0.5674 C   0  0  0  0  0  0  0  0  0  0  0  0
   -3.6377    1.4631    0.3198 C   0  0  0  0  0  0  0  0  0  0  0  0
   -4.1076    0.3704   -0.3757 C   0  0  0  0  0  0  0  0  0  0  0  0
   -3.2484   -0.6492   -0.8089 C   0  0  0  0  0  0  0  0  0  0  0  0
   -1.9024   -0.5491   -0.5292 C   0  0  0  0  0  0  0  0  0  0  0  0
   -3.8135   -1.7378   -1.5164 N   0  0  0  0  0  0  0  0  0  0  0  0
   -3.0717   -2.9054   -1.9154 C   0  0  0  0  0  0  0  0  0  0  0  0
   -3.8195   -4.1458   -1.4322 C   0  0  0  0  0  0  0  0  0  0  0  0
   -5.1466   -4.1431   -1.7781 O   0  0  0  0  0  0  0  0  0  0  0  0
   -5.5061   -3.0673   -2.5651 C   0  0  0  0  0  0  0  0  0  0  0  0
   -5.2284   -1.7398   -1.8985 C   0  0  0  0  0  0  0  0  0  0  0  0
   -4.5286    2.5071    0.7748 N   0  0  0  0  0  0  0  0  0  0  0  0
   -5.9255    2.5224    0.4462 C   0  0  0  0  0  0  0  0  0  0  0  0
   -6.7116    3.2687    1.5026 C   0  0  0  0  0  0  0  0  0  0  0  0
   -6.1374    4.5351    1.6549 O   0  0  0  0  0  0  0  0  0  0  0  0
   -4.9769    4.3277    2.3938 C   0  0  0  0  0  0  0  0  0  0  0  0
   -3.9618    3.5577    1.5919 C   0  0  0  0  0  0  0  0  0  0  0  0
    2.2685    0.0866    0.8924 N   0  0  0  0  0  0  0  0  0  0  0  0
    5.5440    0.0186    0.3779 C   0  0  0  0  0  0  0  0  0  0  0  0
    6.1182   -1.0079   -0.3379 C   0  0  0  0  0  0  0  0  0  0  0  0
    7.0900   -0.7998   -1.2905 C   0  0  0  0  0  0  0  0  0  0  0  0
    7.6444   -1.9597   -2.0072 C   0  0  0  0  0  0  0  0  0  0  0  0
    7.0270   -3.1514   -1.5799 O   0  0  0  0  0  0  0  0  0  0  0  0
    7.5171    0.4660   -1.5514 C   0  0  0  0  0  0  0  0  0  0  0  0
    6.9664    1.5378   -0.8535 C   0  0  0  0  0  0  0  0  0  0  0  0
    5.9850    1.2854    0.1014 C   0  0  0  0  0  0  0  0  0  0  0  0
    5.4012    2.4380    0.8226 C   0  0  0  0  0  0  0  0  0  0  0  0
    4.6001   -0.8821    3.3934 H   0  0  0  0  0  0  0  0  0  0  0  0
    4.1775    0.8235    3.1037 H   0  0  0  0  0  0  0  0  0  0  0  0
    5.8624    0.2701    2.9089 H   0  0  0  0  0  0  0  0  0  0  0  0
    3.8293   -2.8362    0.9222 H   0  0  0  0  0  0  0  0  0  0  0  0
    1.5054   -3.5437    0.3562 H   0  0  0  0  0  0  0  0  0  0  0  0
    0.3274    1.7221    0.6724 H   0  0  0  0  0  0  0  0  0  0  0  0
   -1.8925    2.3686    1.1166 H   0  0  0  0  0  0  0  0  0  0  0  0
   -5.1693    0.2631   -0.6149 H   0  0  0  0  0  0  0  0  0  0  0  0
   -1.2515   -1.3390   -0.8871 H   0  0  0  0  0  0  0  0  0  0  0  0
   -2.0640   -2.9953   -1.5247 H   0  0  0  0  0  0  0  0  0  0  0  0
   -2.9867   -2.9433   -3.0336 H   0  0  0  0  0  0  0  0  0  0  0  0
   -3.7315   -4.1677   -0.3300 H   0  0  0  0  0  0  0  0  0  0  0  0
   -3.2826   -5.0294   -1.8315 H   0  0  0  0  0  0  0  0  0  0  0  0
   -6.6173   -3.1380   -2.6972 H   0  0  0  0  0  0  0  0  0  0  0  0
   -5.0022   -3.0739   -3.5469 H   0  0  0  0  0  0  0  0  0  0  0  0
   -5.8873   -1.6396   -1.0392 H   0  0  0  0  0  0  0  0  0  0  0  0
   -5.4522   -0.9410   -2.6341 H   0  0  0  0  0  0  0  0  0  0  0  0
   -6.0312    3.1408   -0.4898 H   0  0  0  0  0  0  0  0  0  0  0  0
   -6.3894    1.5398    0.2991 H   0  0  0  0  0  0  0  0  0  0  0  0
   -7.7492    3.4055    1.2099 H   0  0  0  0  0  0  0  0  0  0  0  0
   -6.5794    2.7344    2.4609 H   0  0  0  0  0  0  0  0  0  0  0  0
   -4.5211    5.3098    2.6614 H   0  0  0  0  0  0  0  0  0  0  0  0
   -5.2020    3.7578    3.3232 H   0  0  0  0  0  0  0  0  0  0  0  0
   -3.3540    4.2100    0.9408 H   0  0  0  0  0  0  0  0  0  0  0  0
   -3.2621    3.1175    2.3630 H   0  0  0  0  0  0  0  0  0  0  0  0
    5.7895   -2.0115   -0.1392 H   0  0  0  0  0  0  0  0  0  0  0  0
    7.4606   -1.9250   -3.1086 H   0  0  0  0  0  0  0  0  0  0  0  0
    8.7376   -2.0864   -1.7911 H   0  0  0  0  0  0  0  0  0  0  0  0
    7.5210   -3.4635   -0.7856 H   0  0  0  0  0  0  0  0  0  0  0  0
    8.2738    0.6427   -2.2894 H   0  0  0  0  0  0  0  0  0  0  0  0
    7.2778    2.5545   -1.0316 H   0  0  0  0  0  0  0  0  0  0  0  0
    5.8792    3.4055    0.4904 H   0  0  0  0  0  0  0  0  0  0  0  0
    4.3214    2.5476    0.5328 H   0  0  0  0  0  0  0  0  0  0  0  0
    5.4987    2.4162    1.9056 H   0  0  0  0  0  0  0  0  0  0  0  0
  1  2  1  0
  2  3  1  0
  3  4  2  0
  4  5  1  0
  5  6  2  0
  6  7  1  0
  7  8  1  0
  8  9  1  0
  9 10  2  0
 10 11  1  0
 11 12  2  0
 12 13  1  0
 13 14  2  0
 13 15  1  0
 15 16  1  0
 16 17  1  0
 17 18  1  0
 18 19  1  0
 19 20  1  0
 11 21  1  0
 21 22  1  0
 22 23  1  0
 23 24  1  0
 24 25  1  0
 25 26  1  0
  7 27  2  0
  2 28  1  0
 28 29  2  0
 29 30  1  0
 30 31  1  0
 31 32  1  0
 30 33  2  0
 33 34  1  0
 34 35  2  0
 35 36  1  0
 27  3  1  0
 35 28  1  0
 14  9  1  0
 20 15  1  0
 26 21  1  0
  1 37  1  0
  1 38  1  0
  1 39  1  0
  4 40  1  0
  5 41  1  0
  8 42  1  0
 10 43  1  0
 12 44  1  0
 14 45  1  0
 16 46  1  0
 16 47  1  0
 17 48  1  0
 17 49  1  0
 19 50  1  0
 19 51  1  0
 20 52  1  0
 20 53  1  0
 22 54  1  0
 22 55  1  0
 23 56  1  0
 23 57  1  0
 25 58  1  0
 25 59  1  0
 26 60  1  0
 26 61  1  0
 29 62  1  0
 31 63  1  0
 31 64  1  0
 32 65  1  0
 33 66  1  0
 34 67  1  0
 36 68  1  0
 36 69  1  0
 36 70  1  0
M  END
$$$$
[H]OC(=O)c1c([H])c([H])c(-c2c([H])c([H])c(N3C(=O)N(c4nc([H])nc(C([H])([H])[H])c4[H])C4(C3=O)C([H])([H])C([H])([H])N(C([H])([H])c3nc([H])c([H])c([H])c3C([H])([H])[H])C([H])([H])C4([H])[H])c([H])c2[H])c(C([H])([H])[H])c1[H]
     RDKit          3D

 75 80  0  0  0  0  0  0  0  0999 V2000
   -0.8670    6.8549   -1.3278 C   0  0  0  0  0  0  0  0  0  0  0  0
   -1.4349    5.7466   -0.5105 C   0  0  0  0  0  0  0  0  0  0  0  0
   -0.8910    4.4820   -0.5741 C   0  0  0  0  0  0  0  0  0  0  0  0
   -1.4601    3.4993    0.2067 C   0  0  0  0  0  0  0  0  0  0  0  0
   -2.4973    3.8107    0.9781 N   0  0  0  0  0  0  0  0  0  0  0  0
   -3.0027    5.0304    1.0231 C   0  0  0  0  0  0  0  0  0  0  0  0
   -2.4888    6.0280    0.2843 N   0  0  0  0  0  0  0  0  0  0  0  0
   -0.9156    2.1787    0.1643 N   0  0  0  0  0  0  0  0  0  0  0  0
    0.4459    1.9240    0.4825 C   0  0  0  0  0  0  0  0  0  0  0  0
    1.2263    2.7323    1.0648 O   0  0  0  0  0  0  0  0  0  0  0  0
    0.7513    0.6123    0.0285 N   0  0  0  0  0  0  0  0  0  0  0  0
   -0.4070    0.0782   -0.5544 C   0  0  0  0  0  0  0  0  0  0  0  0
   -0.4865   -0.9463   -1.2707 O   0  0  0  0  0  0  0  0  0  0  0  0
   -1.5955    0.9273   -0.1959 C   0  0  0  0  0  0  0  0  0  0  0  0
   -2.3608    0.3487    0.9479 C   0  0  0  0  0  0  0  0  0  0  0  0
   -3.8310    0.2894    0.5966 C   0  0  0  0  0  0  0  0  0  0  0  0
   -3.9613   -0.4809   -0.5926 N   0  0  0  0  0  0  0  0  0  0  0  0
   -5.2709   -1.0119   -0.7977 C   0  0  0  0  0  0  0  0  0  0  0  0
   -5.7369   -2.0235    0.1402 C   0  0  0  0  0  0  0  0  0  0  0  0
   -4.9625   -2.4852    1.1327 N   0  0  0  0  0  0  0  0  0  0  0  0
   -5.3928   -3.4374    1.9830 C   0  0  0  0  0  0  0  0  0  0  0  0
   -6.6591   -3.9601    1.8426 C   0  0  0  0  0  0  0  0  0  0  0  0
   -7.4824   -3.5026    0.8265 C   0  0  0  0  0  0  0  0  0  0  0  0
   -7.0102   -2.5295   -0.0236 C   0  0  0  0  0  0  0  0  0  0  0  0
   -7.8444   -2.0104   -1.1131 C   0  0  0  0  0  0  0  0  0  0  0  0
   -3.4949    0.2556   -1.7257 C   0  0  0  0  0  0  0  0  0  0  0  0
   -2.3790    1.1946   -1.4333 C   0  0  0  0  0  0  0  0  0  0  0  0
    2.0269    0.0243    0.1661 C   0  0  0  0  0  0  0  0  0  0  0  0
    2.6749   -0.5377   -0.9400 C   0  0  0  0  0  0  0  0  0  0  0  0
    3.9222   -1.0793   -0.7757 C   0  0  0  0  0  0  0  0  0  0  0  0
    4.5372   -1.0780    0.4432 C   0  0  0  0  0  0  0  0  0  0  0  0
    3.8816   -0.5213    1.5181 C   0  0  0  0  0  0  0  0  0  0  0  0
    2.6485    0.0234    1.3951 C   0  0  0  0  0  0  0  0  0  0  0  0
    5.8949   -1.6250    0.6444 C   0  0  0  0  0  0  0  0  0  0  0  0
    6.1768   -2.5589    1.6190 C   0  0  0  0  0  0  0  0  0  0  0  0
    7.4729   -3.0632    1.7759 C   0  0  0  0  0  0  0  0  0  0  0  0
    8.5012   -2.6430    0.9640 C   0  0  0  0  0  0  0  0  0  0  0  0
    8.2205   -1.7118   -0.0076 C   0  0  0  0  0  0  0  0  0  0  0  0
    6.9179   -1.2052   -0.1644 C   0  0  0  0  0  0  0  0  0  0  0  0
    6.6922   -0.1990   -1.2070 C   0  0  0  0  0  0  0  0  0  0  0  0
    9.8722   -3.1605    1.1218 C   0  0  0  0  0  0  0  0  0  0  0  0
   10.2047   -4.0834    2.0879 O   0  0  0  0  0  0  0  0  0  0  0  0
   10.7929   -2.7606    0.3588 O   0  0  0  0  0  0  0  0  0  0  0  0
   -1.6222    7.6344   -1.5492 H   0  0  0  0  0  0  0  0  0  0  0  0
   -0.0006    7.3288   -0.8145 H   0  0  0  0  0  0  0  0  0  0  0  0
   -0.5654    6.3970   -2.2935 H   0  0  0  0  0  0  0  0  0  0  0  0
   -0.0360    4.2861   -1.2289 H   0  0  0  0  0  0  0  0  0  0  0  0
   -3.8550    5.3098    1.6491 H   0  0  0  0  0  0  0  0  0  0  0  0
   -2.2016    0.8531    1.9175 H   0  0  0  0  0  0  0  0  0  0  0  0
   -2.0428   -0.7217    1.1033 H   0  0  0  0  0  0  0  0  0  0  0  0
   -4.4369   -0.0767    1.4304 H   0  0  0  0  0  0  0  0  0  0  0  0
   -4.1374    1.3435    0.3640 H   0  0  0  0  0  0  0  0  0  0  0  0
   -5.9886   -0.1388   -0.6880 H   0  0  0  0  0  0  0  0  0  0  0  0
   -5.3935   -1.3137   -1.8661 H   0  0  0  0  0  0  0  0  0  0  0  0
   -4.7862   -3.8243    2.7906 H   0  0  0  0  0  0  0  0  0  0  0  0
   -7.0306   -4.7367    2.5238 H   0  0  0  0  0  0  0  0  0  0  0  0
   -8.4777   -3.9263    0.7301 H   0  0  0  0  0  0  0  0  0  0  0  0
   -8.7430   -2.6717   -1.2688 H   0  0  0  0  0  0  0  0  0  0  0  0
   -7.2822   -2.0595   -2.0746 H   0  0  0  0  0  0  0  0  0  0  0  0
   -8.2617   -1.0052   -0.9088 H   0  0  0  0  0  0  0  0  0  0  0  0
   -3.2518   -0.4509   -2.5541 H   0  0  0  0  0  0  0  0  0  0  0  0
   -4.3695    0.8683   -2.0973 H   0  0  0  0  0  0  0  0  0  0  0  0
   -2.7217    2.2609   -1.4674 H   0  0  0  0  0  0  0  0  0  0  0  0
   -1.6652    1.1292   -2.3063 H   0  0  0  0  0  0  0  0  0  0  0  0
    2.1383   -0.5084   -1.8735 H   0  0  0  0  0  0  0  0  0  0  0  0
    4.4086   -1.5174   -1.6389 H   0  0  0  0  0  0  0  0  0  0  0  0
    4.3617   -0.5118    2.5099 H   0  0  0  0  0  0  0  0  0  0  0  0
    2.1657    0.4481    2.2585 H   0  0  0  0  0  0  0  0  0  0  0  0
    5.3669   -2.8874    2.2563 H   0  0  0  0  0  0  0  0  0  0  0  0
    7.6894   -3.7948    2.5421 H   0  0  0  0  0  0  0  0  0  0  0  0
    9.0213   -1.3740   -0.6503 H   0  0  0  0  0  0  0  0  0  0  0  0
    5.9579    0.5862   -0.9641 H   0  0  0  0  0  0  0  0  0  0  0  0
    7.6611    0.3835   -1.3466 H   0  0  0  0  0  0  0  0  0  0  0  0
    6.5521   -0.6874   -2.1893 H   0  0  0  0  0  0  0  0  0  0  0  0
   11.1183   -4.0483    2.5468 H   0  0  0  0  0  0  0  0  0  0  0  0
  1  2  1  0
  2  3  2  0
  3  4  1  0
  4  5  2  0
  5  6  1  0
  6  7  2  0
  4  8  1  0
  8  9  1  0
  9 10  2  0
  9 11  1  0
 11 12  1  0
 12 13  2  0
 12 14  1  0
 14 15  1  0
 15 16  1  0
 16 17  1  0
 17 18  1  0
 18 19  1  0
 19 20  2  0
 20 21  1  0
 21 22  2  0
 22 23  1  0
 23 24  2  0
 24 25  1  0
 17 26  1  0
 26 27  1  0
 11 28  1  0
 28 29  2  0
 29 30  1  0
 30 31  2  0
 31 32  1  0
 32 33  2  0
 31 34  1  0
 34 35  2  0
 35 36  1  0
 36 37  2  0
 37 38  1  0
 38 39  2  0
 39 40  1  0
 37 41  1  0
 41 42  1  0
 41 43  2  0
  7  2  1  0
 14  8  1  0
 27 14  1  0
 33 28  1  0
 39 34  1  0
 24 19  1  0
  1 44  1  0
  1 45  1  0
  1 46  1  0
  3 47  1  0
  6 48  1  0
 15 49  1  0
 15 50  1  0
 16 51  1  0
 16 52  1  0
 18 53  1  0
 18 54  1  0
 21 55  1  0
 22 56  1  0
 23 57  1  0
 25 58  1  0
 25 59  1  0
 25 60  1  0
 26 61  1  0
 26 62  1  0
 27 63  1  0
 27 64  1  0
 29 65  1  0
 30 66  1  0
 32 67  1  0
 33 68  1  0
 35 69  1  0
 36 70  1  0
 38 71  1  0
 40 72  1  0
 40 73  1  0
 40 74  1  0
 42 75  1  0
M  END
$$$$
[H]Oc1c([H])c([H])c(C([H])([H])[C@@]([H])(C(=O)N([H])[H])N([H])C(=O)[C@@]2([H])N(C(=O)[C@@]([H])(N([H])C(=O)[C@@]([H])(N([H])[H])C([H])([H])c3c([H])c([H])c([H])c([H])c3[H])C([H])([H])[H])C([H])([H])C([H])([H])C2([H])[H])c([H])c1[H]
     RDKit          3D

 69 71  0  0  0  0  0  0  0  0999 V2000
    1.4968   -2.3994   -1.3443 C   0  0  0  0  0  0  0  0  0  0  0  0
    1.5957   -1.5233   -0.1071 C   0  0  2  0  0  0  0  0  0  0  0  0
    2.9730   -1.0382   -0.0840 N   0  0  0  0  0  0  0  0  0  0  0  0
    3.2772    0.3487   -0.1461 C   0  0  0  0  0  0  0  0  0  0  0  0
    2.3159    1.1511   -0.2227 O   0  0  0  0  0  0  0  0  0  0  0  0
    4.6745    0.8438   -0.1217 C   0  0  1  0  0  0  0  0  0  0  0  0
    5.6367   -0.2139   -0.0328 N   0  0  0  0  0  0  0  0  0  0  0  0
    4.9009    1.7493   -1.3064 C   0  0  0  0  0  0  0  0  0  0  0  0
    6.2804    2.2844   -1.3488 C   0  0  0  0  0  0  0  0  0  0  0  0
    6.5887    3.4703   -0.7233 C   0  0  0  0  0  0  0  0  0  0  0  0
    7.8645    4.0074   -0.7354 C   0  0  0  0  0  0  0  0  0  0  0  0
    8.8535    3.3347   -1.3929 C   0  0  0  0  0  0  0  0  0  0  0  0
    8.5672    2.1443   -2.0269 C   0  0  0  0  0  0  0  0  0  0  0  0
    7.2757    1.6051   -2.0119 C   0  0  0  0  0  0  0  0  0  0  0  0
    1.3192   -2.2473    1.1416 C   0  0  0  0  0  0  0  0  0  0  0  0
    2.2587   -2.3754    1.9952 O   0  0  0  0  0  0  0  0  0  0  0  0
    0.0694   -2.8150    1.4627 N   0  0  0  0  0  0  0  0  0  0  0  0
   -0.2180   -3.5427    2.7087 C   0  0  0  0  0  0  0  0  0  0  0  0
   -1.2538   -4.5620    2.3466 C   0  0  0  0  0  0  0  0  0  0  0  0
   -1.8497   -4.0946    1.0431 C   0  0  0  0  0  0  0  0  0  0  0  0
   -1.1472   -2.8092    0.7011 C   0  0  1  0  0  0  0  0  0  0  0  0
   -2.0228   -1.6721    1.0024 C   0  0  0  0  0  0  0  0  0  0  0  0
   -1.6674   -0.8286    1.8557 O   0  0  0  0  0  0  0  0  0  0  0  0
   -3.2544   -1.5150    0.3475 N   0  0  0  0  0  0  0  0  0  0  0  0
   -4.1734   -0.3890    0.6105 C   0  0  1  0  0  0  0  0  0  0  0  0
   -4.2873    0.3195   -0.7087 C   0  0  0  0  0  0  0  0  0  0  0  0
   -5.1562    1.4889   -0.6870 C   0  0  0  0  0  0  0  0  0  0  0  0
   -6.4798    1.4528   -1.0601 C   0  0  0  0  0  0  0  0  0  0  0  0
   -7.2575    2.5853   -1.0199 C   0  0  0  0  0  0  0  0  0  0  0  0
   -6.7595    3.7932   -0.6109 C   0  0  0  0  0  0  0  0  0  0  0  0
   -7.5484    4.9338   -0.5718 O   0  0  0  0  0  0  0  0  0  0  0  0
   -5.4414    3.8425   -0.2364 C   0  0  0  0  0  0  0  0  0  0  0  0
   -4.6602    2.7205   -0.2733 C   0  0  0  0  0  0  0  0  0  0  0  0
   -5.4229   -1.0052    1.0869 C   0  0  0  0  0  0  0  0  0  0  0  0
   -6.5489   -0.2729    1.5364 N   0  0  0  0  0  0  0  0  0  0  0  0
   -5.5709   -2.2777    1.1283 O   0  0  0  0  0  0  0  0  0  0  0  0
    0.6810   -2.0033   -1.9748 H   0  0  0  0  0  0  0  0  0  0  0  0
    1.3150   -3.4678   -1.0572 H   0  0  0  0  0  0  0  0  0  0  0  0
    2.4076   -2.3964   -1.9487 H   0  0  0  0  0  0  0  0  0  0  0  0
    0.9427   -0.6426   -0.2027 H   0  0  0  0  0  0  0  0  0  0  0  0
    3.7701   -1.7164   -0.0203 H   0  0  0  0  0  0  0  0  0  0  0  0
    4.7807    1.4670    0.8014 H   0  0  0  0  0  0  0  0  0  0  0  0
    5.4622   -0.8869   -0.8128 H   0  0  0  0  0  0  0  0  0  0  0  0
    5.5109   -0.7351    0.8569 H   0  0  0  0  0  0  0  0  0  0  0  0
    4.7059    1.2134   -2.2599 H   0  0  0  0  0  0  0  0  0  0  0  0
    4.1557    2.5736   -1.2529 H   0  0  0  0  0  0  0  0  0  0  0  0
    5.8309    4.0316   -0.1923 H   0  0  0  0  0  0  0  0  0  0  0  0
    8.1191    4.9414   -0.2455 H   0  0  0  0  0  0  0  0  0  0  0  0
    9.8689    3.7613   -1.4029 H   0  0  0  0  0  0  0  0  0  0  0  0
    9.3562    1.6063   -2.5519 H   0  0  0  0  0  0  0  0  0  0  0  0
    7.1092    0.6686   -2.5264 H   0  0  0  0  0  0  0  0  0  0  0  0
    0.7006   -4.0850    3.0394 H   0  0  0  0  0  0  0  0  0  0  0  0
   -0.5101   -2.8711    3.5243 H   0  0  0  0  0  0  0  0  0  0  0  0
   -2.0158   -4.5787    3.1757 H   0  0  0  0  0  0  0  0  0  0  0  0
   -0.8503   -5.5940    2.2767 H   0  0  0  0  0  0  0  0  0  0  0  0
   -1.6471   -4.8752    0.2822 H   0  0  0  0  0  0  0  0  0  0  0  0
   -2.9509   -3.9254    1.1310 H   0  0  0  0  0  0  0  0  0  0  0  0
   -0.9266   -2.8277   -0.3989 H   0  0  0  0  0  0  0  0  0  0  0  0
   -3.5619   -2.2028   -0.3576 H   0  0  0  0  0  0  0  0  0  0  0  0
   -3.7338    0.2682    1.3935 H   0  0  0  0  0  0  0  0  0  0  0  0
   -3.2614    0.5929   -1.0683 H   0  0  0  0  0  0  0  0  0  0  0  0
   -4.6527   -0.4273   -1.4578 H   0  0  0  0  0  0  0  0  0  0  0  0
   -6.8829    0.4996   -1.3864 H   0  0  0  0  0  0  0  0  0  0  0  0
   -8.2942    2.4977   -1.3255 H   0  0  0  0  0  0  0  0  0  0  0  0
   -8.0403    5.1207    0.2797 H   0  0  0  0  0  0  0  0  0  0  0  0
   -5.0114    4.7808    0.0930 H   0  0  0  0  0  0  0  0  0  0  0  0
   -3.6148    2.7516    0.0229 H   0  0  0  0  0  0  0  0  0  0  0  0
   -6.5045    0.5138    2.2031 H   0  0  0  0  0  0  0  0  0  0  0  0
   -7.4864   -0.5468    1.1689 H   0  0  0  0  0  0  0  0  0  0  0  0
  1  2  1  0
  2  3  1  0
  3  4  1  0
  4  5  2  0
  4  6  1  0
  6  7  1  0
  6  8  1  0
  8  9  1  0
  9 10  2  0
 10 11  1  0
 11 12  2  0
 12 13  1  0
 13 14  2  0
  2 15  1  0
 15 16  2  0
 15 17  1  0
 17 18  1  0
 18 19  1  0
 19 20  1  0
 20 21  1  0
 21 22  1  0
 22 23  2  0
 22 24  1  0
 24 25  1  0
 25 26  1  0
 26 27  1  0
 27 28  2  0
 28 29  1  0
 29 30  2  0
 30 31  1  0
 30 32  1  0
 32 33  2  0
 25 34  1  0
 34 35  1  0
 34 36  2  0
 14  9  1  0
 21 17  1  0
 33 27  1  0
  1 37  1  0
  1 38  1  0
  1 39  1  0
  2 40  1  6
  3 41  1  0
  6 42  1  1
  7 43  1  0
  7 44  1  0
  8 45  1  0
  8 46  1  0
 10 47  1  0
 11 48  1  0
 12 49  1  0
 13 50  1  0
 14 51  1  0
 18 52  1  0
 18 53  1  0
 19 54  1  0
 19 55  1  0
 20 56  1  0
 20 57  1  0
 21 58  1  6
 24 59  1  0
 25 60  1  1
 26 61  1  0
 26 62  1  0
 28 63  1  0
 29 64  1  0
 31 65  1  0
 32 66  1  0
 33 67  1  0
 35 68  1  0
 35 69  1  0
M  END
$$$$
[H]c1nc2c([H])c([H])c([H])c([H])n2c1C#Cc1c([H])c(C(=O)N([H])c2c([H])c([H])c(C([H])([H])N3C([H])([H])C([H])([H])N(C([H])([H])[H])C([H])([H])C3([H])[H])c(C(F)(F)F)c2[H])c([H])c([H])c1C([H])([H])[H]
     RDKit          3D

 67 71  0  0  0  0  0  0  0  0999 V2000
   -8.5742    1.6981    1.0271 C   0  0  0  0  0  0  0  0  0  0  0  0
   -8.4935    0.2948    1.3032 N   0  0  0  0  0  0  0  0  0  0  0  0
   -7.5100   -0.0987    2.2489 C   0  0  0  0  0  0  0  0  0  0  0  0
   -6.1897   -0.5298    1.6797 C   0  0  0  0  0  0  0  0  0  0  0  0
   -6.2732   -1.3599    0.5217 N   0  0  0  0  0  0  0  0  0  0  0  0
   -5.8227   -0.7384   -0.6897 C   0  0  0  0  0  0  0  0  0  0  0  0
   -4.4030   -0.4161   -0.7877 C   0  0  0  0  0  0  0  0  0  0  0  0
   -3.4720   -0.6992    0.1898 C   0  0  0  0  0  0  0  0  0  0  0  0
   -2.1111   -0.3824    0.0484 C   0  0  0  0  0  0  0  0  0  0  0  0
   -1.6288    0.2291   -1.0770 C   0  0  0  0  0  0  0  0  0  0  0  0
   -0.2722    0.5682   -1.3081 N   0  0  0  0  0  0  0  0  0  0  0  0
    0.8552    0.2067   -0.5793 C   0  0  0  0  0  0  0  0  0  0  0  0
    0.7749   -0.5173    0.4331 O   0  0  0  0  0  0  0  0  0  0  0  0
    2.2075    0.6393   -0.9359 C   0  0  0  0  0  0  0  0  0  0  0  0
    2.4409    1.6499   -1.8393 C   0  0  0  0  0  0  0  0  0  0  0  0
    3.7159    2.0794   -2.2042 C   0  0  0  0  0  0  0  0  0  0  0  0
    4.7852    1.4410   -1.6136 C   0  0  0  0  0  0  0  0  0  0  0  0
    6.1953    1.8216   -1.9322 C   0  0  0  0  0  0  0  0  0  0  0  0
    4.6028    0.4146   -0.6950 C   0  0  0  0  0  0  0  0  0  0  0  0
    3.3184    0.0403   -0.3800 C   0  0  0  0  0  0  0  0  0  0  0  0
    5.7181   -0.2544   -0.0760 C   0  0  0  0  0  0  0  0  0  0  0  0
    6.6539   -0.8302    0.4357 C   0  0  0  0  0  0  0  0  0  0  0  0
    7.7669   -1.5365    1.0307 C   0  0  0  0  0  0  0  0  0  0  0  0
    7.9026   -2.8945    1.0339 C   0  0  0  0  0  0  0  0  0  0  0  0
    9.0507   -3.1553    1.6734 N   0  0  0  0  0  0  0  0  0  0  0  0
    9.6236   -2.0064    2.0622 C   0  0  0  0  0  0  0  0  0  0  0  0
   10.7847   -1.6862    2.7406 C   0  0  0  0  0  0  0  0  0  0  0  0
   11.1522   -0.4051    3.0197 C   0  0  0  0  0  0  0  0  0  0  0  0
   10.3216    0.6071    2.6020 C   0  0  0  0  0  0  0  0  0  0  0  0
    9.1709    0.2900    1.9296 C   0  0  0  0  0  0  0  0  0  0  0  0
    8.8264   -1.0061    1.6629 N   0  0  0  0  0  0  0  0  0  0  0  0
   -2.5803    0.5064   -2.0514 C   0  0  0  0  0  0  0  0  0  0  0  0
   -3.9237    0.1996   -1.9240 C   0  0  0  0  0  0  0  0  0  0  0  0
   -4.8458    0.5340   -3.0345 C   0  0  0  0  0  0  0  0  0  0  0  0
   -5.8544    1.3860   -2.7265 F   0  0  0  0  0  0  0  0  0  0  0  0
   -5.2712   -0.6077   -3.7319 F   0  0  0  0  0  0  0  0  0  0  0  0
   -4.1012    1.2201   -4.0241 F   0  0  0  0  0  0  0  0  0  0  0  0
   -7.6626   -1.7297    0.3338 C   0  0  0  0  0  0  0  0  0  0  0  0
   -8.5679   -0.5553    0.1620 C   0  0  0  0  0  0  0  0  0  0  0  0
   -9.2316    2.1596    1.8009 H   0  0  0  0  0  0  0  0  0  0  0  0
   -7.5872    2.2031    1.0283 H   0  0  0  0  0  0  0  0  0  0  0  0
   -9.1092    1.8146    0.0524 H   0  0  0  0  0  0  0  0  0  0  0  0
   -7.9349   -0.8699    2.9240 H   0  0  0  0  0  0  0  0  0  0  0  0
   -7.2971    0.7911    2.9042 H   0  0  0  0  0  0  0  0  0  0  0  0
   -5.6985   -1.1348    2.4943 H   0  0  0  0  0  0  0  0  0  0  0  0
   -5.5626    0.3720    1.5271 H   0  0  0  0  0  0  0  0  0  0  0  0
   -6.3662    0.2646   -0.6822 H   0  0  0  0  0  0  0  0  0  0  0  0
   -6.2581   -1.2397   -1.5936 H   0  0  0  0  0  0  0  0  0  0  0  0
   -3.7808   -1.1954    1.1014 H   0  0  0  0  0  0  0  0  0  0  0  0
   -1.4616   -0.6325    0.8631 H   0  0  0  0  0  0  0  0  0  0  0  0
   -0.0890    1.1900   -2.1635 H   0  0  0  0  0  0  0  0  0  0  0  0
    1.6143    2.1780   -2.3218 H   0  0  0  0  0  0  0  0  0  0  0  0
    3.8929    2.8720   -2.9129 H   0  0  0  0  0  0  0  0  0  0  0  0
    6.2901    2.9217   -2.0708 H   0  0  0  0  0  0  0  0  0  0  0  0
    6.8607    1.5623   -1.0856 H   0  0  0  0  0  0  0  0  0  0  0  0
    6.4911    1.2589   -2.8349 H   0  0  0  0  0  0  0  0  0  0  0  0
    3.1346   -0.7692    0.3433 H   0  0  0  0  0  0  0  0  0  0  0  0
    7.1993   -3.6103    0.5945 H   0  0  0  0  0  0  0  0  0  0  0  0
   11.4321   -2.4902    3.0653 H   0  0  0  0  0  0  0  0  0  0  0  0
   12.0553   -0.1553    3.5474 H   0  0  0  0  0  0  0  0  0  0  0  0
   10.5709    1.6324    2.7999 H   0  0  0  0  0  0  0  0  0  0  0  0
    8.4984    1.0692    1.5892 H   0  0  0  0  0  0  0  0  0  0  0  0
   -2.2251    0.9962   -2.9674 H   0  0  0  0  0  0  0  0  0  0  0  0
   -7.6988   -2.3154   -0.6225 H   0  0  0  0  0  0  0  0  0  0  0  0
   -8.0626   -2.3566    1.1487 H   0  0  0  0  0  0  0  0  0  0  0  0
   -9.6019   -0.9693    0.0320 H   0  0  0  0  0  0  0  0  0  0  0  0
   -8.3850    0.0358   -0.7578 H   0  0  0  0  0  0  0  0  0  0  0  0
  1  2  1  0
  2  3  1  0
  3  4  1  0
  4  5  1  0
  5  6  1  0
  6  7  1  0
  7  8  2  0
  8  9  1  0
  9 10  2  0
 10 11  1  0
 11 12  1  0
 12 13  2  0
 12 14  1  0
 14 15  2  0
 15 16  1  0
 16 17  2  0
 17 18  1  0
 17 19  1  0
 19 20  2  0
 19 21  1  0
 21 22  3  0
 22 23  1  0
 23 24  2  0
 24 25  1  0
 25 26  2  0
 26 27  1  0
 27 28  2  0
 28 29  1  0
 29 30  2  0
 30 31  1  0
 10 32  1  0
 32 33  2  0
 33 34  1  0
 34 35  1  0
 34 36  1  0
 34 37  1  0
  5 38  1  0
 38 39  1  0
 39  2  1  0
 33  7  1  0
 20 14  1  0
 31 23  1  0
 31 26  1  0
  1 40  1  0
  1 41  1  0
  1 42  1  0
  3 43  1  0
  3 44  1  0
  4 45  1  0
  4 46  1  0
  6 47  1  0
  6 48  1  0
  8 49  1  0
  9 50  1  0
 11 51  1  0
 15 52  1  0
 16 53  1  0
 18 54  1  0
 18 55  1  0
 18 56  1  0
 20 57  1  0
 24 58  1  0
 27 59  1  0
 28 60  1  0
 29 61  1  0
 30 62  1  0
 32 63  1  0
 38 64  1  0
 38 65  1  0
 39 66  1  0
 39 67  1  0
M  END
$$$$
[H]c1c([H])c(N2C([H])([H])C([H])([H])N(C([H])([H])[H])C([H])([H])C2([H])[H])c([H])c([H])c1C(=O)N([H])c1nn([H])c2c([H])c([H])c(C#N)c([H])c12
     RDKit          3D

 47 50  0  0  0  0  0  0  0  0999 V2000
    7.3943    0.0230   -1.3902 C   0  0  0  0  0  0  0  0  0  0  0  0
    6.0636    0.2676   -0.8759 N   0  0  0  0  0  0  0  0  0  0  0  0
    5.1218   -0.1193   -1.9073 C   0  0  0  0  0  0  0  0  0  0  0  0
    3.7072    0.0897   -1.5113 C   0  0  0  0  0  0  0  0  0  0  0  0
    3.4590   -0.4063   -0.1943 N   0  0  0  0  0  0  0  0  0  0  0  0
    4.5010   -0.9282    0.6299 C   0  0  0  0  0  0  0  0  0  0  0  0
    5.8938   -0.5384    0.3146 C   0  0  0  0  0  0  0  0  0  0  0  0
    2.1211   -0.3837    0.3279 C   0  0  0  0  0  0  0  0  0  0  0  0
    1.1631    0.2459   -0.4328 C   0  0  0  0  0  0  0  0  0  0  0  0
   -0.1360    0.2862    0.0346 C   0  0  0  0  0  0  0  0  0  0  0  0
   -0.4733   -0.2895    1.2357 C   0  0  0  0  0  0  0  0  0  0  0  0
    0.4985   -0.9309    2.0118 C   0  0  0  0  0  0  0  0  0  0  0  0
    1.7861   -0.9661    1.5399 C   0  0  0  0  0  0  0  0  0  0  0  0
   -1.8432   -0.2298    1.6877 C   0  0  0  0  0  0  0  0  0  0  0  0
   -2.0974   -0.4512    2.8931 O   0  0  0  0  0  0  0  0  0  0  0  0
   -2.8948    0.0695    0.8066 N   0  0  0  0  0  0  0  0  0  0  0  0
   -4.2607    0.1320    1.2575 C   0  0  0  0  0  0  0  0  0  0  0  0
   -4.7531   -0.0620    2.4854 N   0  0  0  0  0  0  0  0  0  0  0  0
   -6.0825    0.0931    2.4657 N   0  0  0  0  0  0  0  0  0  0  0  0
   -6.5031    0.3952    1.2177 C   0  0  0  0  0  0  0  0  0  0  0  0
   -7.7387    0.6491    0.6613 C   0  0  0  0  0  0  0  0  0  0  0  0
   -7.7923    0.9295   -0.6860 C   0  0  0  0  0  0  0  0  0  0  0  0
   -6.6574    0.9619   -1.4805 C   0  0  0  0  0  0  0  0  0  0  0  0
   -5.4385    0.7038   -0.8945 C   0  0  0  0  0  0  0  0  0  0  0  0
   -5.3325    0.4185    0.4495 C   0  0  0  0  0  0  0  0  0  0  0  0
   -6.7568    1.2598   -2.8971 C   0  0  0  0  0  0  0  0  0  0  0  0
   -6.8243    1.5171   -4.0123 N   0  0  0  0  0  0  0  0  0  0  0  0
    8.0305   -0.4519   -0.6053 H   0  0  0  0  0  0  0  0  0  0  0  0
    7.3280   -0.7215   -2.2060 H   0  0  0  0  0  0  0  0  0  0  0  0
    7.8327    0.9733   -1.7545 H   0  0  0  0  0  0  0  0  0  0  0  0
    5.2468   -1.1837   -2.2010 H   0  0  0  0  0  0  0  0  0  0  0  0
    5.3432    0.4802   -2.8085 H   0  0  0  0  0  0  0  0  0  0  0  0
    3.4687    1.1854   -1.5985 H   0  0  0  0  0  0  0  0  0  0  0  0
    3.0726   -0.4576   -2.2502 H   0  0  0  0  0  0  0  0  0  0  0  0
    4.2555   -0.5680    1.6777 H   0  0  0  0  0  0  0  0  0  0  0  0
    4.4756   -2.0623    0.6312 H   0  0  0  0  0  0  0  0  0  0  0  0
    6.3171    0.0506    1.1541 H   0  0  0  0  0  0  0  0  0  0  0  0
    6.5832   -1.4171    0.2208 H   0  0  0  0  0  0  0  0  0  0  0  0
    1.4159    0.7032   -1.3807 H   0  0  0  0  0  0  0  0  0  0  0  0
   -0.8506    0.8038   -0.6099 H   0  0  0  0  0  0  0  0  0  0  0  0
    0.1827   -1.3657    2.9443 H   0  0  0  0  0  0  0  0  0  0  0  0
    2.5222   -1.4566    2.1290 H   0  0  0  0  0  0  0  0  0  0  0  0
   -2.6906    0.2565   -0.2117 H   0  0  0  0  0  0  0  0  0  0  0  0
   -6.7590    0.0095    3.2564 H   0  0  0  0  0  0  0  0  0  0  0  0
   -8.6375    0.6301    1.2627 H   0  0  0  0  0  0  0  0  0  0  0  0
   -8.7479    1.1387   -1.1816 H   0  0  0  0  0  0  0  0  0  0  0  0
   -4.5140    0.7163   -1.4791 H   0  0  0  0  0  0  0  0  0  0  0  0
  1  2  1  0
  2  3  1  0
  3  4  1  0
  4  5  1  0
  5  6  1  0
  6  7  1  0
  5  8  1  0
  8  9  2  0
  9 10  1  0
 10 11  2  0
 11 12  1  0
 12 13  2  0
 11 14  1  0
 14 15  2  0
 14 16  1  0
 16 17  1  0
 17 18  2  0
 18 19  1  0
 19 20  1  0
 20 21  2  0
 21 22  1  0
 22 23  2  0
 23 24  1  0
 24 25  2  0
 23 26  1  0
 26 27  3  0
  7  2  1  0
 13  8  1  0
 25 17  1  0
 25 20  1  0
  1 28  1  0
  1 29  1  0
  1 30  1  0
  3 31  1  0
  3 32  1  0
  4 33  1  0
  4 34  1  0
  6 35  1  0
  6 36  1  0
  7 37  1  0
  7 38  1  0
  9 39  1  0
 10 40  1  0
 12 41  1  0
 13 42  1  0
 16 43  1  0
 19 44  1  0
 21 45  1  0
 22 46  1  0
 24 47  1  0
M  END
$$$$
[H]c1nc(N([H])c2c([H])c([H])c(N3C([H])([H])C([H])([H])N(C(=O)OC(C([H])([H])[H])(C([H])([H])[H])C([H])([H])[H])C([H])([H])C3([H])[H])c([H])c2OC([H])([H])[H])nc(N([H])c2c([H])c([H])c([H])c([H])c2S(=O)(=O)C([H])(C([H])([H])[H])C([H])([H])[H])c1Cl
     RDKit          3D

 79 82  0  0  0  0  0  0  0  0999 V2000
    0.4143    3.5765    0.5697 C   0  0  0  0  0  0  0  0  0  0  0  0
   -0.1436    2.3055    0.4318 O   0  0  0  0  0  0  0  0  0  0  0  0
    0.5856    1.1343    0.3214 C   0  0  0  0  0  0  0  0  0  0  0  0
    1.9767    1.1583    0.3426 C   0  0  0  0  0  0  0  0  0  0  0  0
    2.7132   -0.0041    0.2339 C   0  0  0  0  0  0  0  0  0  0  0  0
    2.0303   -1.1957    0.1027 C   0  0  0  0  0  0  0  0  0  0  0  0
    0.6408   -1.1970    0.0837 C   0  0  0  0  0  0  0  0  0  0  0  0
   -0.1280   -0.0601    0.1898 C   0  0  0  0  0  0  0  0  0  0  0  0
   -1.5234   -0.0081    0.1698 N   0  0  0  0  0  0  0  0  0  0  0  0
   -2.4314   -1.0810    0.0979 C   0  0  0  0  0  0  0  0  0  0  0  0
   -2.1359   -2.3812    0.0388 N   0  0  0  0  0  0  0  0  0  0  0  0
   -3.1012   -3.3380   -0.0266 C   0  0  0  0  0  0  0  0  0  0  0  0
   -4.4150   -2.9865   -0.0337 C   0  0  0  0  0  0  0  0  0  0  0  0
   -5.6537   -4.1863   -0.1169 Cl  0  0  0  0  0  0  0  0  0  0  0  0
   -4.7647   -1.6463    0.0262 C   0  0  0  0  0  0  0  0  0  0  0  0
   -6.0992   -1.2229    0.0276 N   0  0  0  0  0  0  0  0  0  0  0  0
   -6.7039    0.0135    0.0703 C   0  0  0  0  0  0  0  0  0  0  0  0
   -6.0269    1.1992    0.0905 C   0  0  0  0  0  0  0  0  0  0  0  0
   -6.6538    2.4511    0.1250 C   0  0  0  0  0  0  0  0  0  0  0  0
   -8.0132    2.5104    0.1397 C   0  0  0  0  0  0  0  0  0  0  0  0
   -8.7426    1.3542    0.1208 C   0  0  0  0  0  0  0  0  0  0  0  0
   -8.0997    0.1199    0.0866 C   0  0  0  0  0  0  0  0  0  0  0  0
   -9.0545   -1.3177    0.0720 S   0  0  0  0  0  0  0  0  0  0  0  0
   -8.8996   -2.1262   -1.2071 O   0  0  0  0  0  0  0  0  0  0  0  0
   -8.8473   -2.1983    1.2705 O   0  0  0  0  0  0  0  0  0  0  0  0
  -10.8088   -0.8959    0.0882 C   0  0  0  0  0  0  0  0  0  0  0  0
  -11.5212   -2.2478    0.2714 C   0  0  0  0  0  0  0  0  0  0  0  0
  -11.2640   -0.3626   -1.2353 C   0  0  0  0  0  0  0  0  0  0  0  0
   -3.7549   -0.7899    0.0874 N   0  0  0  0  0  0  0  0  0  0  0  0
    4.1282    0.0078    0.2745 N   0  0  0  0  0  0  0  0  0  0  0  0
    4.9117   -1.0860   -0.2453 C   0  0  0  0  0  0  0  0  0  0  0  0
    6.1733   -0.6425   -0.9597 C   0  0  0  0  0  0  0  0  0  0  0  0
    6.7015    0.6013   -0.4568 N   0  0  0  0  0  0  0  0  0  0  0  0
    5.7486    1.6912   -0.2116 C   0  0  0  0  0  0  0  0  0  0  0  0
    4.8152    1.1207    0.8705 C   0  0  0  0  0  0  0  0  0  0  0  0
    8.0729    0.8164   -0.1874 C   0  0  0  0  0  0  0  0  0  0  0  0
    8.4460    1.9312    0.2486 O   0  0  0  0  0  0  0  0  0  0  0  0
    9.0463   -0.1452   -0.3787 O   0  0  0  0  0  0  0  0  0  0  0  0
   10.4229    0.0558   -0.1115 C   0  0  0  0  0  0  0  0  0  0  0  0
   11.0273    1.1619   -0.9039 C   0  0  0  0  0  0  0  0  0  0  0  0
   10.6621    0.2870    1.3686 C   0  0  0  0  0  0  0  0  0  0  0  0
   11.1206   -1.2395   -0.4622 C   0  0  0  0  0  0  0  0  0  0  0  0
   -0.4115    4.2625    0.9210 H   0  0  0  0  0  0  0  0  0  0  0  0
    0.7011    3.9579   -0.4342 H   0  0  0  0  0  0  0  0  0  0  0  0
    1.2468    3.5640    1.2831 H   0  0  0  0  0  0  0  0  0  0  0  0
    2.4375    2.1380    0.4434 H   0  0  0  0  0  0  0  0  0  0  0  0
    2.6065   -2.1026    0.0211 H   0  0  0  0  0  0  0  0  0  0  0  0
    0.1931   -2.1592   -0.0242 H   0  0  0  0  0  0  0  0  0  0  0  0
   -1.9522    0.9609    0.2125 H   0  0  0  0  0  0  0  0  0  0  0  0
   -2.7414   -4.3601   -0.0713 H   0  0  0  0  0  0  0  0  0  0  0  0
   -6.7959   -2.0627   -0.0148 H   0  0  0  0  0  0  0  0  0  0  0  0
   -4.9276    1.2319    0.0792 H   0  0  0  0  0  0  0  0  0  0  0  0
   -6.0403    3.3383    0.1389 H   0  0  0  0  0  0  0  0  0  0  0  0
   -8.5657    3.4605    0.1662 H   0  0  0  0  0  0  0  0  0  0  0  0
   -9.8292    1.4171    0.1342 H   0  0  0  0  0  0  0  0  0  0  0  0
  -11.0826   -0.3084    0.9639 H   0  0  0  0  0  0  0  0  0  0  0  0
  -11.0099   -2.8740    1.0274 H   0  0  0  0  0  0  0  0  0  0  0  0
  -12.5943   -2.1143    0.4782 H   0  0  0  0  0  0  0  0  0  0  0  0
  -11.4765   -2.8317   -0.6927 H   0  0  0  0  0  0  0  0  0  0  0  0
  -10.4364   -0.3910   -1.9993 H   0  0  0  0  0  0  0  0  0  0  0  0
  -11.7012    0.6687   -1.1805 H   0  0  0  0  0  0  0  0  0  0  0  0
  -12.0853   -0.9829   -1.7012 H   0  0  0  0  0  0  0  0  0  0  0  0
    5.2278   -1.7010    0.6215 H   0  0  0  0  0  0  0  0  0  0  0  0
    4.3383   -1.7477   -0.9282 H   0  0  0  0  0  0  0  0  0  0  0  0
    6.9410   -1.4330   -0.8132 H   0  0  0  0  0  0  0  0  0  0  0  0
    6.0178   -0.5669   -2.0701 H   0  0  0  0  0  0  0  0  0  0  0  0
    6.2396    2.6019    0.1268 H   0  0  0  0  0  0  0  0  0  0  0  0
    5.1779    1.8334   -1.1549 H   0  0  0  0  0  0  0  0  0  0  0  0
    5.5399    0.6901    1.6300 H   0  0  0  0  0  0  0  0  0  0  0  0
    4.1913    1.8831    1.3309 H   0  0  0  0  0  0  0  0  0  0  0  0
   11.8467    0.7677   -1.5326 H   0  0  0  0  0  0  0  0  0  0  0  0
   10.3149    1.6559   -1.5965 H   0  0  0  0  0  0  0  0  0  0  0  0
   11.4865    1.9082   -0.1988 H   0  0  0  0  0  0  0  0  0  0  0  0
   10.3308    1.2730    1.7042 H   0  0  0  0  0  0  0  0  0  0  0  0
   10.1940   -0.5361    1.9540 H   0  0  0  0  0  0  0  0  0  0  0  0
   11.7638    0.2263    1.5316 H   0  0  0  0  0  0  0  0  0  0  0  0
   10.8180   -1.6253   -1.4578 H   0  0  0  0  0  0  0  0  0  0  0  0
   10.9621   -2.0202    0.2879 H   0  0  0  0  0  0  0  0  0  0  0  0
   12.2236   -1.0028   -0.4693 H   0  0  0  0  0  0  0  0  0  0  0  0
  1  2  1  0
  2  3  1  0
  3  4  2  0
  4  5  1  0
  5  6  2  0
  6  7  1  0
  7  8  2  0
  8  9  1  0
  9 10  1  0
 10 11  2  0
 11 12  1  0
 12 13  2  0
 13 14  1  0
 13 15  1  0
 15 16  1  0
 16 17  1  0
 17 18  2  0
 18 19  1  0
 19 20  2  0
 20 21  1  0
 21 22  2  0
 22 23  1  0
 23 24  2  0
 23 25  2  0
 23 26  1  0
 26 27  1  0
 26 28  1  0
 15 29  2  0
  5 30  1  0
 30 31  1  0
 31 32  1  0
 32 33  1  0
 33 34  1  0
 34 35  1  0
 33 36  1  0
 36 37  2  0
 36 38  1  0
 38 39  1  0
 39 40  1  0
 39 41  1  0
 39 42  1  0
  8  3  1  0
 29 10  1  0
 35 30  1  0
 22 17  1  0
  1 43  1  0
  1 44  1  0
  1 45  1  0
  4 46  1  0
  6 47  1  0
  7 48  1  0
  9 49  1  0
 12 50  1  0
 16 51  1  0
 18 52  1  0
 19 53  1  0
 20 54  1  0
 21 55  1  0
 26 56  1  0
 27 57  1  0
 27 58  1  0
 27 59  1  0
 28 60  1  0
 28 61  1  0
 28 62  1  0
 31 63  1  0
 31 64  1  0
 32 65  1  0
 32 66  1  0
 34 67  1  0
 34 68  1  0
 35 69  1  0
 35 70  1  0
 40 71  1  0
 40 72  1  0
 40 73  1  0
 41 74  1  0
 41 75  1  0
 41 76  1  0
 42 77  1  0
 42 78  1  0
 42 79  1  0
M  END
$$$$
[H]c1c([H])c([H])c(C([H])([H])N2C([H])([H])C([H])([H])C([H])(C([H])([H])C([H])([H])N([H])C(=O)c3c([H])c([H])c([N+](=O)[O-])c([H])c3[H])C([H])([H])C2([H])[H])c([H])c1[H]
     RDKit          3D

 52 54  0  0  0  0  0  0  0  0999 V2000
    9.9220    0.3819    1.0296 O   0  0  0  0  0  0  0  0  0  0  0  0
    9.0905    1.3086    0.4553 N   0  0  0  0  0  0  0  0  0  0  0  0
    9.5716    2.4025    0.1199 O   0  0  0  0  0  0  0  0  0  0  0  0
    7.7150    1.0543    0.2373 C   0  0  0  0  0  0  0  0  0  0  0  0
    6.9147    2.0054   -0.3399 C   0  0  0  0  0  0  0  0  0  0  0  0
    5.5793    1.7701   -0.5567 C   0  0  0  0  0  0  0  0  0  0  0  0
    4.9944    0.5567   -0.1967 C   0  0  0  0  0  0  0  0  0  0  0  0
    5.7992   -0.3859    0.3783 C   0  0  0  0  0  0  0  0  0  0  0  0
    7.1483   -0.1432    0.5950 C   0  0  0  0  0  0  0  0  0  0  0  0
    3.5777    0.3398   -0.4339 C   0  0  0  0  0  0  0  0  0  0  0  0
    2.8839    1.3577   -0.7410 O   0  0  0  0  0  0  0  0  0  0  0  0
    3.0187   -0.9478   -0.3241 N   0  0  0  0  0  0  0  0  0  0  0  0
    1.5928   -1.2100   -0.5511 C   0  0  0  0  0  0  0  0  0  0  0  0
    0.7434   -0.4573    0.4073 C   0  0  0  0  0  0  0  0  0  0  0  0
   -0.7312   -0.6932    0.2174 C   0  0  0  0  0  0  0  0  0  0  0  0
   -1.2144   -0.2918   -1.1511 C   0  0  0  0  0  0  0  0  0  0  0  0
   -2.7340   -0.1028   -1.0139 C   0  0  0  0  0  0  0  0  0  0  0  0
   -3.2601   -0.9812   -0.0115 N   0  0  0  0  0  0  0  0  0  0  0  0
   -4.6791   -1.1966   -0.1564 C   0  0  0  0  0  0  0  0  0  0  0  0
   -5.4653    0.0603   -0.0476 C   0  0  0  0  0  0  0  0  0  0  0  0
   -5.8785    0.5169    1.1902 C   0  0  0  0  0  0  0  0  0  0  0  0
   -6.6098    1.6797    1.3156 C   0  0  0  0  0  0  0  0  0  0  0  0
   -6.9120    2.3676    0.1588 C   0  0  0  0  0  0  0  0  0  0  0  0
   -6.5228    1.9531   -1.0982 C   0  0  0  0  0  0  0  0  0  0  0  0
   -5.7912    0.7818   -1.1766 C   0  0  0  0  0  0  0  0  0  0  0  0
   -2.6003   -2.2453    0.0864 C   0  0  0  0  0  0  0  0  0  0  0  0
   -1.1358   -2.1134    0.4589 C   0  0  0  0  0  0  0  0  0  0  0  0
    7.3702    2.9654   -0.6262 H   0  0  0  0  0  0  0  0  0  0  0  0
    4.9461    2.5017   -1.0052 H   0  0  0  0  0  0  0  0  0  0  0  0
    5.4164   -1.3700    0.6956 H   0  0  0  0  0  0  0  0  0  0  0  0
    7.7428   -0.9180    1.0517 H   0  0  0  0  0  0  0  0  0  0  0  0
    3.6405   -1.7549   -0.0736 H   0  0  0  0  0  0  0  0  0  0  0  0
    1.3939   -0.7845   -1.5757 H   0  0  0  0  0  0  0  0  0  0  0  0
    1.3869   -2.2744   -0.6181 H   0  0  0  0  0  0  0  0  0  0  0  0
    0.8917    0.6249    0.4325 H   0  0  0  0  0  0  0  0  0  0  0  0
    0.9763   -0.8171    1.4529 H   0  0  0  0  0  0  0  0  0  0  0  0
   -1.2655   -0.0503    0.9521 H   0  0  0  0  0  0  0  0  0  0  0  0
   -1.0694   -1.1439   -1.8495 H   0  0  0  0  0  0  0  0  0  0  0  0
   -0.7242    0.6105   -1.5322 H   0  0  0  0  0  0  0  0  0  0  0  0
   -2.8559    0.9397   -0.6440 H   0  0  0  0  0  0  0  0  0  0  0  0
   -3.2070   -0.2251   -2.0131 H   0  0  0  0  0  0  0  0  0  0  0  0
   -4.9114   -1.6537   -1.1636 H   0  0  0  0  0  0  0  0  0  0  0  0
   -5.0677   -1.9395    0.5714 H   0  0  0  0  0  0  0  0  0  0  0  0
   -5.6254   -0.0489    2.0965 H   0  0  0  0  0  0  0  0  0  0  0  0
   -6.9392    2.0447    2.2970 H   0  0  0  0  0  0  0  0  0  0  0  0
   -7.4954    3.2972    0.2462 H   0  0  0  0  0  0  0  0  0  0  0  0
   -6.7874    2.5352   -1.9927 H   0  0  0  0  0  0  0  0  0  0  0  0
   -5.4913    0.4682   -2.1866 H   0  0  0  0  0  0  0  0  0  0  0  0
   -3.0787   -2.7942    0.9395 H   0  0  0  0  0  0  0  0  0  0  0  0
   -2.7536   -2.8140   -0.8495 H   0  0  0  0  0  0  0  0  0  0  0  0
   -0.9350   -2.3941    1.5101 H   0  0  0  0  0  0  0  0  0  0  0  0
   -0.5749   -2.7730   -0.2621 H   0  0  0  0  0  0  0  0  0  0  0  0
  1  2  1  0
  2  3  2  0
  2  4  1  0
  4  5  2  0
  5  6  1  0
  6  7  2  0
  7  8  1  0
  8  9  2  0
  7 10  1  0
 10 11  2  0
 10 12  1  0
 12 13  1  0
 13 14  1  0
 14 15  1  0
 15 16  1  0
 16 17  1  0
 17 18  1  0
 18 19  1  0
 19 20  1  0
 20 21  2  0
 21 22  1  0
 22 23  2  0
 23 24  1  0
 24 25  2  0
 18 26  1  0
 26 27  1  0
  9  4  1  0
 27 15  1  0
 25 20  1  0
  5 28  1  0
  6 29  1  0
  8 30  1  0
  9 31  1  0
 12 32  1  0
 13 33  1  0
 13 34  1  0
 14 35  1  0
 14 36  1  0
 15 37  1  0
 16 38  1  0
 16 39  1  0
 17 40  1  0
 17 41  1  0
 19 42  1  0
 19 43  1  0
 21 44  1  0
 22 45  1  0
 23 46  1  0
 24 47  1  0
 25 48  1  0
 26 49  1  0
 26 50  1  0
 27 51  1  0
 27 52  1  0
M  CHG  2   1  -1   2   1
M  END
$$$$
[H]C1=C(C(=O)[O-])N2C(=O)/C(=C(\[H])c3sc4c(c3[H])C([H])([H])C([H])([H])C4([H])[H])[C@@]2([H])S1
     RDKit          3D

 30 33  0  0  0  0  0  0  0  0999 V2000
    6.4959    1.4780    0.7935 O   0  0  0  0  0  0  0  0  0  0  0  0
    5.7029    0.4160    0.3844 C   0  0  0  0  0  0  0  0  0  0  0  0
    6.2937   -0.5941   -0.0608 O   0  0  0  0  0  0  0  0  0  0  0  0
    4.2229    0.4564    0.4604 C   0  0  0  0  0  0  0  0  0  0  0  0
    3.6064    1.5198    0.9263 C   0  0  0  0  0  0  0  0  0  0  0  0
    1.8461    1.1163    0.8270 S   0  0  0  0  0  0  0  0  0  0  0  0
    2.1051   -0.2102   -0.4425 C   0  0  1  0  0  0  0  0  0  0  0  0
    3.4219   -0.6189    0.0706 N   0  0  0  0  0  0  0  0  0  0  0  0
    3.0135   -1.9690   -0.1710 C   0  0  0  0  0  0  0  0  0  0  0  0
    3.5925   -3.0640   -0.3658 O   0  0  0  0  0  0  0  0  0  0  0  0
    1.6070   -1.5185   -0.0893 C   0  0  0  0  0  0  0  0  0  0  0  0
    0.4873   -2.1033    0.1888 C   0  0  0  0  0  0  0  0  0  0  0  0
   -0.7664   -1.3467    0.1920 C   0  0  0  0  0  0  0  0  0  0  0  0
   -1.2201   -0.3862   -0.6608 C   0  0  0  0  0  0  0  0  0  0  0  0
   -2.4412    0.1589   -0.4138 C   0  0  0  0  0  0  0  0  0  0  0  0
   -3.3028    1.2185   -1.1025 C   0  0  0  0  0  0  0  0  0  0  0  0
   -4.6304    1.1549   -0.4352 C   0  0  0  0  0  0  0  0  0  0  0  0
   -4.4508    0.3931    0.8335 C   0  0  0  0  0  0  0  0  0  0  0  0
   -3.1166   -0.3009    0.6742 C   0  0  0  0  0  0  0  0  0  0  0  0
   -2.0685   -1.4629    1.3272 S   0  0  0  0  0  0  0  0  0  0  0  0
    4.0296    2.4521    1.2984 H   0  0  0  0  0  0  0  0  0  0  0  0
    2.1041    0.1515   -1.4614 H   0  0  0  0  0  0  0  0  0  0  0  0
    0.4612   -3.1581    0.4224 H   0  0  0  0  0  0  0  0  0  0  0  0
   -0.5655   -0.0910   -1.5256 H   0  0  0  0  0  0  0  0  0  0  0  0
   -3.4083    0.9850   -2.1825 H   0  0  0  0  0  0  0  0  0  0  0  0
   -2.8765    2.2197   -0.9860 H   0  0  0  0  0  0  0  0  0  0  0  0
   -5.4121    0.6425   -1.0487 H   0  0  0  0  0  0  0  0  0  0  0  0
   -5.0650    2.1722   -0.2224 H   0  0  0  0  0  0  0  0  0  0  0  0
   -4.4079    1.0834    1.7217 H   0  0  0  0  0  0  0  0  0  0  0  0
   -5.2581   -0.3290    1.0479 H   0  0  0  0  0  0  0  0  0  0  0  0
  1  2  1  0
  2  3  2  0
  2  4  1  0
  4  5  2  0
  5  6  1  0
  6  7  1  0
  7  8  1  0
  8  9  1  0
  9 10  2  0
  9 11  1  0
 11 12  2  0
 12 13  1  0
 13 14  2  0
 14 15  1  0
 15 16  1  0
 16 17  1  0
 17 18  1  0
 18 19  1  0
 19 20  1  0
  8  4  1  0
 20 13  1  0
 11  7  1  0
 19 15  2  0
  5 21  1  0
  7 22  1  6
 12 23  1  0
 14 24  1  0
 16 25  1  0
 16 26  1  0
 17 27  1  0
 17 28  1  0
 18 29  1  0
 18 30  1  0
M  CHG  1   1  -1
M  END
$$$$
[H]c1c([H])c(N([H])C(=O)N([H])c2c([H])c([H])c(N(C([H])([H])[H])C([H])([H])[H])c([H])c2[H])c([H])c([H])c1-c1nc(N2C([H])([H])C([H])([H])OC([H])([H])[C@@]2([H])C([H])([H])[H])nc(C2([H])C([H])([H])C([H])([H])OC([H])([H])C2([H])[H])n1
     RDKit          3D

 73 77  0  0  0  0  0  0  0  0999 V2000
   -4.6870    3.6167    1.5113 C   0  0  0  0  0  0  0  0  0  0  0  0
   -5.4085    3.2004    0.2337 C   0  0  2  0  0  0  0  0  0  0  0  0
   -6.7880    3.8670    0.3105 C   0  0  0  0  0  0  0  0  0  0  0  0
   -7.6295    3.4206   -0.6825 O   0  0  0  0  0  0  0  0  0  0  0  0
   -7.8285    2.0624   -0.7057 C   0  0  0  0  0  0  0  0  0  0  0  0
   -7.0334    1.3362    0.3869 C   0  0  0  0  0  0  0  0  0  0  0  0
   -5.6608    1.7744    0.2343 N   0  0  0  0  0  0  0  0  0  0  0  0
   -4.6200    0.8172    0.0920 C   0  0  0  0  0  0  0  0  0  0  0  0
   -4.8907   -0.5081    0.0996 N   0  0  0  0  0  0  0  0  0  0  0  0
   -3.9485   -1.4383   -0.0306 C   0  0  0  0  0  0  0  0  0  0  0  0
   -2.6742   -1.0542   -0.1761 N   0  0  0  0  0  0  0  0  0  0  0  0
   -2.3443    0.2442   -0.1913 C   0  0  0  0  0  0  0  0  0  0  0  0
   -3.3275    1.1506   -0.0566 N   0  0  0  0  0  0  0  0  0  0  0  0
   -0.9542    0.5957   -0.3515 C   0  0  0  0  0  0  0  0  0  0  0  0
    0.0215   -0.3502   -0.4870 C   0  0  0  0  0  0  0  0  0  0  0  0
    1.3741   -0.0055   -0.6429 C   0  0  0  0  0  0  0  0  0  0  0  0
    1.7597    1.2960   -0.6631 C   0  0  0  0  0  0  0  0  0  0  0  0
    3.0870    1.7072   -0.7871 N   0  0  0  0  0  0  0  0  0  0  0  0
    4.2362    0.9446   -0.4481 C   0  0  0  0  0  0  0  0  0  0  0  0
    4.0930   -0.2002    0.0150 O   0  0  0  0  0  0  0  0  0  0  0  0
    5.5288    1.4690   -0.6302 N   0  0  0  0  0  0  0  0  0  0  0  0
    6.7151    0.8041   -0.3413 C   0  0  0  0  0  0  0  0  0  0  0  0
    6.8476   -0.5411   -0.2672 C   0  0  0  0  0  0  0  0  0  0  0  0
    8.0947   -1.1078    0.0607 C   0  0  0  0  0  0  0  0  0  0  0  0
    9.1903   -0.3379    0.3092 C   0  0  0  0  0  0  0  0  0  0  0  0
    9.0300    1.0305    0.2265 C   0  0  0  0  0  0  0  0  0  0  0  0
    7.8316    1.6120   -0.0893 C   0  0  0  0  0  0  0  0  0  0  0  0
   10.4389   -0.9356    0.6380 N   0  0  0  0  0  0  0  0  0  0  0  0
   10.5372   -2.3777    0.7034 C   0  0  0  0  0  0  0  0  0  0  0  0
   11.6166   -0.1533    0.9105 C   0  0  0  0  0  0  0  0  0  0  0  0
    0.7511    2.2866   -0.5232 C   0  0  0  0  0  0  0  0  0  0  0  0
   -0.5640    1.9089   -0.3729 C   0  0  0  0  0  0  0  0  0  0  0  0
   -4.2414   -2.8994   -0.0227 C   0  0  0  0  0  0  0  0  0  0  0  0
   -4.9270   -3.2114    1.2769 C   0  0  0  0  0  0  0  0  0  0  0  0
   -5.9609   -4.2829    1.0012 C   0  0  0  0  0  0  0  0  0  0  0  0
   -5.4204   -5.1403    0.0510 O   0  0  0  0  0  0  0  0  0  0  0  0
   -5.6239   -4.6102   -1.2135 C   0  0  0  0  0  0  0  0  0  0  0  0
   -5.1305   -3.1837   -1.2190 C   0  0  0  0  0  0  0  0  0  0  0  0
   -3.6348    3.8235    1.2437 H   0  0  0  0  0  0  0  0  0  0  0  0
   -5.1306    4.5299    1.9538 H   0  0  0  0  0  0  0  0  0  0  0  0
   -4.8014    2.8087    2.2550 H   0  0  0  0  0  0  0  0  0  0  0  0
   -4.8898    3.5549   -0.6690 H   0  0  0  0  0  0  0  0  0  0  0  0
   -6.6939    4.9685    0.1947 H   0  0  0  0  0  0  0  0  0  0  0  0
   -7.1965    3.7003    1.3345 H   0  0  0  0  0  0  0  0  0  0  0  0
   -8.8776    1.7500   -0.7298 H   0  0  0  0  0  0  0  0  0  0  0  0
   -7.3763    1.6884   -1.6706 H   0  0  0  0  0  0  0  0  0  0  0  0
   -7.0969    0.2498    0.1635 H   0  0  0  0  0  0  0  0  0  0  0  0
   -7.4461    1.5499    1.3878 H   0  0  0  0  0  0  0  0  0  0  0  0
   -0.2069   -1.4105   -0.4801 H   0  0  0  0  0  0  0  0  0  0  0  0
    2.0671   -0.8119   -0.7609 H   0  0  0  0  0  0  0  0  0  0  0  0
    3.2306    2.7033   -1.1836 H   0  0  0  0  0  0  0  0  0  0  0  0
    5.5447    2.4720   -1.0323 H   0  0  0  0  0  0  0  0  0  0  0  0
    6.0292   -1.2513   -0.4686 H   0  0  0  0  0  0  0  0  0  0  0  0
    8.1554   -2.1908    0.1096 H   0  0  0  0  0  0  0  0  0  0  0  0
    9.8840    1.6662    0.4187 H   0  0  0  0  0  0  0  0  0  0  0  0
    7.7472    2.7088   -0.1446 H   0  0  0  0  0  0  0  0  0  0  0  0
    9.6903   -2.8259    1.2940 H   0  0  0  0  0  0  0  0  0  0  0  0
   10.4156   -2.7441   -0.3576 H   0  0  0  0  0  0  0  0  0  0  0  0
   11.5115   -2.7284    1.0406 H   0  0  0  0  0  0  0  0  0  0  0  0
   12.1337    0.0594   -0.0518 H   0  0  0  0  0  0  0  0  0  0  0  0
   11.3923    0.7726    1.4794 H   0  0  0  0  0  0  0  0  0  0  0  0
   12.3207   -0.7485    1.5244 H   0  0  0  0  0  0  0  0  0  0  0  0
    1.0708    3.3184   -0.5412 H   0  0  0  0  0  0  0  0  0  0  0  0
   -1.3039    2.6980   -0.2690 H   0  0  0  0  0  0  0  0  0  0  0  0
   -3.3127   -3.4906   -0.1444 H   0  0  0  0  0  0  0  0  0  0  0  0
   -4.1571   -3.5562    1.9950 H   0  0  0  0  0  0  0  0  0  0  0  0
   -5.4014   -2.2975    1.6867 H   0  0  0  0  0  0  0  0  0  0  0  0
   -6.1193   -4.8418    1.9228 H   0  0  0  0  0  0  0  0  0  0  0  0
   -6.8709   -3.7676    0.6226 H   0  0  0  0  0  0  0  0  0  0  0  0
   -5.0394   -5.1608   -1.9831 H   0  0  0  0  0  0  0  0  0  0  0  0
   -6.6846   -4.5971   -1.5225 H   0  0  0  0  0  0  0  0  0  0  0  0
   -5.9460   -2.4402   -1.2209 H   0  0  0  0  0  0  0  0  0  0  0  0
   -4.4970   -2.9658   -2.1240 H   0  0  0  0  0  0  0  0  0  0  0  0
  1  2  1  0
  2  3  1  0
  3  4  1  0
  4  5  1  0
  5  6  1  0
  6  7  1  0
  7  8  1  0
  8  9  2  0
  9 10  1  0
 10 11  2  0
 11 12  1  0
 12 13  2  0
 12 14  1  0
 14 15  2  0
 15 16  1  0
 16 17  2  0
 17 18  1  0
 18 19  1  0
 19 20  2  0
 19 21  1  0
 21 22  1  0
 22 23  2  0
 23 24  1  0
 24 25  2  0
 25 26  1  0
 26 27  2  0
 25 28  1  0
 28 29  1  0
 28 30  1  0
 17 31  1  0
 31 32  2  0
 10 33  1  0
 33 34  1  0
 34 35  1  0
 35 36  1  0
 36 37  1  0
 37 38  1  0
  7  2  1  0
 13  8  1  0
 32 14  1  0
 38 33  1  0
 27 22  1  0
  1 39  1  0
  1 40  1  0
  1 41  1  0
  2 42  1  6
  3 43  1  0
  3 44  1  0
  5 45  1  0
  5 46  1  0
  6 47  1  0
  6 48  1  0
 15 49  1  0
 16 50  1  0
 18 51  1  0
 21 52  1  0
 23 53  1  0
 24 54  1  0
 26 55  1  0
 27 56  1  0
 29 57  1  0
 29 58  1  0
 29 59  1  0
 30 60  1  0
 30 61  1  0
 30 62  1  0
 31 63  1  0
 32 64  1  0
 33 65  1  0
 34 66  1  0
 34 67  1  0
 35 68  1  0
 35 69  1  0
 37 70  1  0
 37 71  1  0
 38 72  1  0
 38 73  1  0
M  END
$$$$
[H]c1nc(N([H])c2c([H])c([H])c(N3C([H])([H])C([H])([H])OC([H])([H])C3([H])[H])c([H])c2OC([H])([H])[H])nc(N([H])c2c([H])c([H])c([H])c([H])c2S(=O)(=O)C([H])(C([H])([H])[H])C([H])([H])[H])c1Cl
     RDKit          3D

 63 66  0  0  0  0  0  0  0  0999 V2000
    3.6437   -2.0120   -2.5675 C   0  0  0  0  0  0  0  0  0  0  0  0
    2.8669   -1.2961   -1.6426 O   0  0  0  0  0  0  0  0  0  0  0  0
    3.3871   -0.6019   -0.5867 C   0  0  0  0  0  0  0  0  0  0  0  0
    4.7411   -0.5811   -0.3889 C   0  0  0  0  0  0  0  0  0  0  0  0
    5.3376    0.0942    0.6493 C   0  0  0  0  0  0  0  0  0  0  0  0
    4.4934    0.7658    1.5037 C   0  0  0  0  0  0  0  0  0  0  0  0
    3.0990    0.7572    1.3183 C   0  0  0  0  0  0  0  0  0  0  0  0
    2.5112    0.0817    0.2806 C   0  0  0  0  0  0  0  0  0  0  0  0
    1.1323    0.0331    0.0429 N   0  0  0  0  0  0  0  0  0  0  0  0
    0.0772    0.6383    0.7645 C   0  0  0  0  0  0  0  0  0  0  0  0
    0.2179    1.4001    1.8494 N   0  0  0  0  0  0  0  0  0  0  0  0
   -0.7908    1.9640    2.5218 C   0  0  0  0  0  0  0  0  0  0  0  0
   -2.0564    1.7305    2.0458 C   0  0  0  0  0  0  0  0  0  0  0  0
   -3.4138    2.4314    2.8695 Cl  0  0  0  0  0  0  0  0  0  0  0  0
   -2.3023    0.9374    0.9046 C   0  0  0  0  0  0  0  0  0  0  0  0
   -3.6255    0.7548    0.5134 N   0  0  0  0  0  0  0  0  0  0  0  0
   -4.0700    0.0171   -0.5895 C   0  0  0  0  0  0  0  0  0  0  0  0
   -3.3018   -0.5769   -1.5571 C   0  0  0  0  0  0  0  0  0  0  0  0
   -3.8235   -1.2834   -2.6463 C   0  0  0  0  0  0  0  0  0  0  0  0
   -5.1784   -1.3982   -2.7697 C   0  0  0  0  0  0  0  0  0  0  0  0
   -6.0032   -0.8232   -1.8300 C   0  0  0  0  0  0  0  0  0  0  0  0
   -5.4661   -0.1344   -0.7678 C   0  0  0  0  0  0  0  0  0  0  0  0
   -6.5314    0.5722    0.4003 S   0  0  0  0  0  0  0  0  0  0  0  0
   -6.2858    0.0031    1.7748 O   0  0  0  0  0  0  0  0  0  0  0  0
   -6.4838    2.0804    0.3882 O   0  0  0  0  0  0  0  0  0  0  0  0
   -8.2264    0.1770   -0.0589 C   0  0  0  0  0  0  0  0  0  0  0  0
   -8.5676   -1.2538    0.1547 C   0  0  0  0  0  0  0  0  0  0  0  0
   -9.0737    1.0663    0.8814 C   0  0  0  0  0  0  0  0  0  0  0  0
   -1.2064    0.4429    0.3395 N   0  0  0  0  0  0  0  0  0  0  0  0
    6.7460    0.1002    0.8261 N   0  0  0  0  0  0  0  0  0  0  0  0
    7.2910    0.7873    1.9629 C   0  0  0  0  0  0  0  0  0  0  0  0
    8.7792    0.6290    2.0247 C   0  0  0  0  0  0  0  0  0  0  0  0
    9.2907    0.9121    0.7566 O   0  0  0  0  0  0  0  0  0  0  0  0
    9.0441   -0.2107   -0.0319 C   0  0  0  0  0  0  0  0  0  0  0  0
    7.6019   -0.5643   -0.1128 C   0  0  0  0  0  0  0  0  0  0  0  0
    4.2027   -2.7883   -1.9862 H   0  0  0  0  0  0  0  0  0  0  0  0
    4.3711   -1.3833   -3.1162 H   0  0  0  0  0  0  0  0  0  0  0  0
    3.0201   -2.5336   -3.3212 H   0  0  0  0  0  0  0  0  0  0  0  0
    5.4204   -1.1194   -1.0708 H   0  0  0  0  0  0  0  0  0  0  0  0
    4.9295    1.3128    2.3389 H   0  0  0  0  0  0  0  0  0  0  0  0
    2.5385    1.3094    2.0391 H   0  0  0  0  0  0  0  0  0  0  0  0
    0.8202   -0.5519   -0.8172 H   0  0  0  0  0  0  0  0  0  0  0  0
   -0.6285    2.5783    3.4023 H   0  0  0  0  0  0  0  0  0  0  0  0
   -4.3573    1.2212    1.0982 H   0  0  0  0  0  0  0  0  0  0  0  0
   -2.2238   -0.4938   -1.4844 H   0  0  0  0  0  0  0  0  0  0  0  0
   -3.1232   -1.7098   -3.3465 H   0  0  0  0  0  0  0  0  0  0  0  0
   -5.6265   -1.9476   -3.6132 H   0  0  0  0  0  0  0  0  0  0  0  0
   -7.0920   -0.9288   -1.9656 H   0  0  0  0  0  0  0  0  0  0  0  0
   -8.4110    0.5489   -1.0713 H   0  0  0  0  0  0  0  0  0  0  0  0
   -9.2714   -1.3415    1.0065 H   0  0  0  0  0  0  0  0  0  0  0  0
   -7.6703   -1.8914    0.2950 H   0  0  0  0  0  0  0  0  0  0  0  0
   -9.0847   -1.6751   -0.7504 H   0  0  0  0  0  0  0  0  0  0  0  0
   -9.0076    0.6112    1.8821 H   0  0  0  0  0  0  0  0  0  0  0  0
   -8.5582    2.0444    0.9180 H   0  0  0  0  0  0  0  0  0  0  0  0
  -10.0922    1.1558    0.5034 H   0  0  0  0  0  0  0  0  0  0  0  0
    6.8922    0.3054    2.9060 H   0  0  0  0  0  0  0  0  0  0  0  0
    7.0117    1.8662    1.9751 H   0  0  0  0  0  0  0  0  0  0  0  0
    9.1663    1.3638    2.7834 H   0  0  0  0  0  0  0  0  0  0  0  0
    9.0169   -0.4042    2.3636 H   0  0  0  0  0  0  0  0  0  0  0  0
    9.5239   -0.1191   -1.0341 H   0  0  0  0  0  0  0  0  0  0  0  0
    9.6039   -1.0477    0.4801 H   0  0  0  0  0  0  0  0  0  0  0  0
    7.2906   -0.3564   -1.1783 H   0  0  0  0  0  0  0  0  0  0  0  0
    7.4852   -1.6655    0.0961 H   0  0  0  0  0  0  0  0  0  0  0  0
  1  2  1  0
  2  3  1  0
  3  4  2  0
  4  5  1  0
  5  6  2  0
  6  7  1  0
  7  8  2  0
  8  9  1  0
  9 10  1  0
 10 11  2  0
 11 12  1  0
 12 13  2  0
 13 14  1  0
 13 15  1  0
 15 16  1  0
 16 17  1  0
 17 18  2  0
 18 19  1  0
 19 20  2  0
 20 21  1  0
 21 22  2  0
 22 23  1  0
 23 24  2  0
 23 25  2  0
 23 26  1  0
 26 27  1  0
 26 28  1  0
 15 29  2  0
  5 30  1  0
 30 31  1  0
 31 32  1  0
 32 33  1  0
 33 34  1  0
 34 35  1  0
  8  3  1  0
 29 10  1  0
 35 30  1  0
 22 17  1  0
  1 36  1  0
  1 37  1  0
  1 38  1  0
  4 39  1  0
  6 40  1  0
  7 41  1  0
  9 42  1  0
 12 43  1  0
 16 44  1  0
 18 45  1  0
 19 46  1  0
 20 47  1  0
 21 48  1  0
 26 49  1  0
 27 50  1  0
 27 51  1  0
 27 52  1  0
 28 53  1  0
 28 54  1  0
 28 55  1  0
 31 56  1  0
 31 57  1  0
 32 58  1  0
 32 59  1  0
 34 60  1  0
 34 61  1  0
 35 62  1  0
 35 63  1  0
M  END
$$$$
[H]O[C@]([H])(C([H])([H])[H])[C@]([H])(C(=O)N([H])[C@]([H])(C(=O)N([H])[C@]([H])(C(=O)N([H])[C@]([H])(C(=O)N([H])[C@]([H])(C(=O)N([H])[H])C([H])([H])c1c([H])c([H])c([H])c([H])c1[H])C([H])([H])C(=O)N([H])[H])C([H])([H])C([H])([H])C([H])([H])N=C(N([H])[H])N([H])[H])C([H])([H])c1c([H])c([H])c([H])c([H])c1[H])N([H])[H]
     RDKit          3D

 95 96  0  0  0  0  0  0  0  0999 V2000
   -9.0648   -2.4211   -2.8602 C   0  0  0  0  0  0  0  0  0  0  0  0
   -7.6087   -2.2182   -2.6752 C   0  0  1  0  0  0  0  0  0  0  0  0
   -6.9688   -2.3320   -3.9193 O   0  0  0  0  0  0  0  0  0  0  0  0
   -7.2371   -0.8454   -2.1514 C   0  0  1  0  0  0  0  0  0  0  0  0
   -7.8482   -0.5836   -0.8540 N   0  0  0  0  0  0  0  0  0  0  0  0
   -5.7396   -0.8694   -1.9768 C   0  0  0  0  0  0  0  0  0  0  0  0
   -5.0542   -0.9349   -3.0137 O   0  0  0  0  0  0  0  0  0  0  0  0
   -5.1340   -0.8245   -0.7151 N   0  0  0  0  0  0  0  0  0  0  0  0
   -3.7691   -0.8572   -0.3687 C   0  0  1  0  0  0  0  0  0  0  0  0
   -2.9223   -1.9158   -1.0477 C   0  0  0  0  0  0  0  0  0  0  0  0
   -3.3347   -3.3057   -0.7454 C   0  0  0  0  0  0  0  0  0  0  0  0
   -2.8041   -3.8583    0.4121 C   0  0  0  0  0  0  0  0  0  0  0  0
   -3.0883   -5.1419    0.7987 C   0  0  0  0  0  0  0  0  0  0  0  0
   -3.9228   -5.9485    0.0473 C   0  0  0  0  0  0  0  0  0  0  0  0
   -4.4418   -5.3911   -1.0962 C   0  0  0  0  0  0  0  0  0  0  0  0
   -4.1592   -4.0882   -1.4990 C   0  0  0  0  0  0  0  0  0  0  0  0
   -3.1000    0.4670   -0.4735 C   0  0  0  0  0  0  0  0  0  0  0  0
   -3.7391    1.4451   -0.9252 O   0  0  0  0  0  0  0  0  0  0  0  0
   -1.7669    0.6408   -0.0698 N   0  0  0  0  0  0  0  0  0  0  0  0
   -1.0551    1.8748   -0.1300 C   0  0  1  0  0  0  0  0  0  0  0  0
   -0.9114    2.5029    1.2514 C   0  0  0  0  0  0  0  0  0  0  0  0
   -0.1905    1.6203    2.2060 C   0  0  0  0  0  0  0  0  0  0  0  0
   -0.0426    2.2393    3.5839 C   0  0  0  0  0  0  0  0  0  0  0  0
    0.6977    3.4750    3.5657 N   0  0  0  0  0  0  0  0  0  0  0  0
    0.1671    4.6370    3.8104 C   0  0  0  0  0  0  0  0  0  0  0  0
   -1.2073    4.6996    4.1089 N   0  0  0  0  0  0  0  0  0  0  0  0
    0.9592    5.8003    3.7798 N   0  0  0  0  0  0  0  0  0  0  0  0
    0.2350    1.7444   -0.8388 C   0  0  0  0  0  0  0  0  0  0  0  0
    0.3202    0.9456   -1.7975 O   0  0  0  0  0  0  0  0  0  0  0  0
    1.3854    2.4716   -0.4896 N   0  0  0  0  0  0  0  0  0  0  0  0
    2.6481    2.2872   -1.2255 C   0  0  1  0  0  0  0  0  0  0  0  0
    3.3818    3.5652   -1.2453 C   0  0  0  0  0  0  0  0  0  0  0  0
    2.6283    4.6662   -1.9079 C   0  0  0  0  0  0  0  0  0  0  0  0
    3.2521    5.9305   -1.9749 N   0  0  0  0  0  0  0  0  0  0  0  0
    1.4827    4.5342   -2.4055 O   0  0  0  0  0  0  0  0  0  0  0  0
    3.3944    1.1664   -0.5906 C   0  0  0  0  0  0  0  0  0  0  0  0
    2.7120    0.1918   -0.1775 O   0  0  0  0  0  0  0  0  0  0  0  0
    4.7979    1.1075   -0.4147 N   0  0  0  0  0  0  0  0  0  0  0  0
    5.4143   -0.0729    0.2161 C   0  0  1  0  0  0  0  0  0  0  0  0
    6.6054   -0.4800   -0.5473 C   0  0  0  0  0  0  0  0  0  0  0  0
    7.3538   -1.6616   -0.0832 C   0  0  0  0  0  0  0  0  0  0  0  0
    8.4445   -1.6098    0.7579 C   0  0  0  0  0  0  0  0  0  0  0  0
    9.1170   -2.7481    1.1779 C   0  0  0  0  0  0  0  0  0  0  0  0
    8.7064   -3.9997    0.7569 C   0  0  0  0  0  0  0  0  0  0  0  0
    7.6208   -4.0759   -0.0837 C   0  0  0  0  0  0  0  0  0  0  0  0
    6.9598   -2.9413   -0.4951 C   0  0  0  0  0  0  0  0  0  0  0  0
    5.6015    0.1562    1.6572 C   0  0  0  0  0  0  0  0  0  0  0  0
    6.0777   -0.7590    2.6030 N   0  0  0  0  0  0  0  0  0  0  0  0
    5.2963    1.3144    2.1213 O   0  0  0  0  0  0  0  0  0  0  0  0
   -9.6443   -1.6217   -2.4011 H   0  0  0  0  0  0  0  0  0  0  0  0
   -9.3401   -2.5676   -3.9374 H   0  0  0  0  0  0  0  0  0  0  0  0
   -9.3425   -3.3656   -2.3046 H   0  0  0  0  0  0  0  0  0  0  0  0
   -7.1596   -2.9617   -1.9712 H   0  0  0  0  0  0  0  0  0  0  0  0
   -7.4594   -1.8264   -4.6226 H   0  0  0  0  0  0  0  0  0  0  0  0
   -7.5520   -0.0738   -2.8522 H   0  0  0  0  0  0  0  0  0  0  0  0
   -7.4294    0.2944   -0.4438 H   0  0  0  0  0  0  0  0  0  0  0  0
   -8.8723   -0.4561   -0.9580 H   0  0  0  0  0  0  0  0  0  0  0  0
   -5.8210   -0.7531    0.1202 H   0  0  0  0  0  0  0  0  0  0  0  0
   -3.7282   -1.1693    0.7357 H   0  0  0  0  0  0  0  0  0  0  0  0
   -1.8855   -1.7905   -0.6792 H   0  0  0  0  0  0  0  0  0  0  0  0
   -2.9163   -1.7546   -2.1552 H   0  0  0  0  0  0  0  0  0  0  0  0
   -2.1396   -3.2619    1.0437 H   0  0  0  0  0  0  0  0  0  0  0  0
   -2.6499   -5.5428    1.7183 H   0  0  0  0  0  0  0  0  0  0  0  0
   -4.1455   -6.9763    0.3596 H   0  0  0  0  0  0  0  0  0  0  0  0
   -5.1019   -6.0072   -1.7086 H   0  0  0  0  0  0  0  0  0  0  0  0
   -4.5741   -3.6878   -2.4082 H   0  0  0  0  0  0  0  0  0  0  0  0
   -1.2222   -0.1826    0.3145 H   0  0  0  0  0  0  0  0  0  0  0  0
   -1.6869    2.6184   -0.6931 H   0  0  0  0  0  0  0  0  0  0  0  0
   -0.4657    3.5012    1.1246 H   0  0  0  0  0  0  0  0  0  0  0  0
   -1.9662    2.6672    1.5954 H   0  0  0  0  0  0  0  0  0  0  0  0
   -0.7082    0.6379    2.3111 H   0  0  0  0  0  0  0  0  0  0  0  0
    0.8372    1.4295    1.8390 H   0  0  0  0  0  0  0  0  0  0  0  0
    0.5080    1.5302    4.2304 H   0  0  0  0  0  0  0  0  0  0  0  0
   -1.0387    2.4615    4.0487 H   0  0  0  0  0  0  0  0  0  0  0  0
   -1.5243    4.6750    5.1153 H   0  0  0  0  0  0  0  0  0  0  0  0
   -1.9227    4.7692    3.3749 H   0  0  0  0  0  0  0  0  0  0  0  0
    1.8925    5.7954    4.2662 H   0  0  0  0  0  0  0  0  0  0  0  0
    0.6967    6.6759    3.3088 H   0  0  0  0  0  0  0  0  0  0  0  0
    1.3472    3.1464    0.2847 H   0  0  0  0  0  0  0  0  0  0  0  0
    2.3086    1.9360   -2.2534 H   0  0  0  0  0  0  0  0  0  0  0  0
    3.6982    3.8802   -0.2128 H   0  0  0  0  0  0  0  0  0  0  0  0
    4.3578    3.5130   -1.8055 H   0  0  0  0  0  0  0  0  0  0  0  0
    3.6411    6.2667   -2.8657 H   0  0  0  0  0  0  0  0  0  0  0  0
    3.3161    6.5140   -1.1279 H   0  0  0  0  0  0  0  0  0  0  0  0
    5.3790    1.9018   -0.7323 H   0  0  0  0  0  0  0  0  0  0  0  0
    4.6294   -0.8831    0.1497 H   0  0  0  0  0  0  0  0  0  0  0  0
    6.2655   -0.7154   -1.6017 H   0  0  0  0  0  0  0  0  0  0  0  0
    7.3048    0.4022   -0.7015 H   0  0  0  0  0  0  0  0  0  0  0  0
    8.8058   -0.6640    1.1161 H   0  0  0  0  0  0  0  0  0  0  0  0
    9.9718   -2.6979    1.8411 H   0  0  0  0  0  0  0  0  0  0  0  0
    9.2579   -4.8756    1.1055 H   0  0  0  0  0  0  0  0  0  0  0  0
    7.3114   -5.0692   -0.4089 H   0  0  0  0  0  0  0  0  0  0  0  0
    6.1129   -3.0543   -1.1564 H   0  0  0  0  0  0  0  0  0  0  0  0
    5.6542   -1.7261    2.6932 H   0  0  0  0  0  0  0  0  0  0  0  0
    6.8510   -0.5307    3.2481 H   0  0  0  0  0  0  0  0  0  0  0  0
  1  2  1  0
  2  3  1  0
  2  4  1  0
  4  5  1  0
  4  6  1  0
  6  7  2  0
  6  8  1  0
  8  9  1  0
  9 10  1  0
 10 11  1  0
 11 12  2  0
 12 13  1  0
 13 14  2  0
 14 15  1  0
 15 16  2  0
  9 17  1  0
 17 18  2  0
 17 19  1  0
 19 20  1  0
 20 21  1  0
 21 22  1  0
 22 23  1  0
 23 24  1  0
 24 25  2  3
 25 26  1  0
 25 27  1  0
 20 28  1  0
 28 29  2  0
 28 30  1  0
 30 31  1  0
 31 32  1  0
 32 33  1  0
 33 34  1  0
 33 35  2  0
 31 36  1  0
 36 37  2  0
 36 38  1  0
 38 39  1  0
 39 40  1  0
 40 41  1  0
 41 42  2  0
 42 43  1  0
 43 44  2  0
 44 45  1  0
 45 46  2  0
 39 47  1  0
 47 48  1  0
 47 49  2  0
 16 11  1  0
 46 41  1  0
  1 50  1  0
  1 51  1  0
  1 52  1  0
  2 53  1  1
  3 54  1  0
  4 55  1  6
  5 56  1  0
  5 57  1  0
  8 58  1  0
  9 59  1  1
 10 60  1  0
 10 61  1  0
 12 62  1  0
 13 63  1  0
 14 64  1  0
 15 65  1  0
 16 66  1  0
 19 67  1  0
 20 68  1  6
 21 69  1  0
 21 70  1  0
 22 71  1  0
 22 72  1  0
 23 73  1  0
 23 74  1  0
 26 75  1  0
 26 76  1  0
 27 77  1  0
 27 78  1  0
 30 79  1  0
 31 80  1  6
 32 81  1  0
 32 82  1  0
 34 83  1  0
 34 84  1  0
 38 85  1  0
 39 86  1  1
 40 87  1  0
 40 88  1  0
 42 89  1  0
 43 90  1  0
 44 91  1  0
 45 92  1  0
 46 93  1  0
 48 94  1  0
 48 95  1  0
M  END
$$$$
[H]c1nc([H])c2sc(C(=O)N([H])C([H])([H])[H])c([H])c2c1Oc1c([H])c([H])c(N([H])C(=O)c2c([H])c([H])c(C(F)(F)F)c([H])c2[H])c([H])c1[H]
     RDKit          3D

 49 52  0  0  0  0  0  0  0  0999 V2000
   -9.3298    1.2903    1.7503 C   0  0  0  0  0  0  0  0  0  0  0  0
   -8.0490    0.9211    1.1965 N   0  0  0  0  0  0  0  0  0  0  0  0
   -7.9803    0.0042    0.1539 C   0  0  0  0  0  0  0  0  0  0  0  0
   -9.0485   -0.4848   -0.2847 O   0  0  0  0  0  0  0  0  0  0  0  0
   -6.7407   -0.4534   -0.5157 C   0  0  0  0  0  0  0  0  0  0  0  0
   -5.4550   -0.0767   -0.2352 C   0  0  0  0  0  0  0  0  0  0  0  0
   -4.4646   -0.6476   -0.9723 C   0  0  0  0  0  0  0  0  0  0  0  0
   -3.0975   -0.4214   -0.9013 C   0  0  0  0  0  0  0  0  0  0  0  0
   -2.5463    0.4874    0.0437 O   0  0  0  0  0  0  0  0  0  0  0  0
   -1.1696    0.6694    0.0603 C   0  0  0  0  0  0  0  0  0  0  0  0
   -0.4097   -0.1841    0.8262 C   0  0  0  0  0  0  0  0  0  0  0  0
    0.9777   -0.0607    0.8852 C   0  0  0  0  0  0  0  0  0  0  0  0
    1.6441    0.9143    0.1779 C   0  0  0  0  0  0  0  0  0  0  0  0
    3.0668    1.0122    0.1614 N   0  0  0  0  0  0  0  0  0  0  0  0
    3.9125   -0.0989    0.2031 C   0  0  0  0  0  0  0  0  0  0  0  0
    3.3610   -1.2665    0.2375 O   0  0  0  0  0  0  0  0  0  0  0  0
    5.3522   -0.1257    0.2017 C   0  0  0  0  0  0  0  0  0  0  0  0
    6.1304    0.3956    1.2071 C   0  0  0  0  0  0  0  0  0  0  0  0
    7.5203    0.2990    1.1763 C   0  0  0  0  0  0  0  0  0  0  0  0
    8.1859   -0.3199    0.1300 C   0  0  0  0  0  0  0  0  0  0  0  0
    7.4009   -0.8345   -0.8787 C   0  0  0  0  0  0  0  0  0  0  0  0
    6.0467   -0.7475   -0.8546 C   0  0  0  0  0  0  0  0  0  0  0  0
    9.6695   -0.4377    0.0774 C   0  0  0  0  0  0  0  0  0  0  0  0
   10.1866   -0.8815    1.2647 F   0  0  0  0  0  0  0  0  0  0  0  0
   10.2609    0.6919   -0.3638 F   0  0  0  0  0  0  0  0  0  0  0  0
    9.9444   -1.4823   -0.8175 F   0  0  0  0  0  0  0  0  0  0  0  0
    0.8821    1.7701   -0.5773 C   0  0  0  0  0  0  0  0  0  0  0  0
   -0.5009    1.6408   -0.6293 C   0  0  0  0  0  0  0  0  0  0  0  0
   -2.2422   -1.0913   -1.7613 C   0  0  0  0  0  0  0  0  0  0  0  0
   -2.6427   -1.9685   -2.6865 N   0  0  0  0  0  0  0  0  0  0  0  0
   -3.9645   -2.2046   -2.7707 C   0  0  0  0  0  0  0  0  0  0  0  0
   -4.8717   -1.5522   -1.9280 C   0  0  0  0  0  0  0  0  0  0  0  0
   -6.5626   -1.5625   -1.7662 S   0  0  0  0  0  0  0  0  0  0  0  0
   -9.2241    2.1693    2.3930 H   0  0  0  0  0  0  0  0  0  0  0  0
   -9.7878    0.4576    2.3166 H   0  0  0  0  0  0  0  0  0  0  0  0
   -9.9854    1.5196    0.8377 H   0  0  0  0  0  0  0  0  0  0  0  0
   -7.1940    1.3410    1.6047 H   0  0  0  0  0  0  0  0  0  0  0  0
   -5.2665    0.6757    0.5488 H   0  0  0  0  0  0  0  0  0  0  0  0
   -0.8846   -0.9403    1.3926 H   0  0  0  0  0  0  0  0  0  0  0  0
    1.5158   -0.7376    1.5080 H   0  0  0  0  0  0  0  0  0  0  0  0
    3.4767    1.9860    0.1065 H   0  0  0  0  0  0  0  0  0  0  0  0
    5.6315    0.8975    2.0249 H   0  0  0  0  0  0  0  0  0  0  0  0
    8.0743    0.7521    1.9791 H   0  0  0  0  0  0  0  0  0  0  0  0
    7.9415   -1.3007   -1.7083 H   0  0  0  0  0  0  0  0  0  0  0  0
    5.4088   -1.1541   -1.6388 H   0  0  0  0  0  0  0  0  0  0  0  0
    1.3846    2.5710   -1.1223 H   0  0  0  0  0  0  0  0  0  0  0  0
   -1.0734    2.3288   -1.2238 H   0  0  0  0  0  0  0  0  0  0  0  0
   -1.1617   -0.8814   -1.6760 H   0  0  0  0  0  0  0  0  0  0  0  0
   -4.3221   -2.8781   -3.4946 H   0  0  0  0  0  0  0  0  0  0  0  0
  1  2  1  0
  2  3  1  0
  3  4  2  0
  3  5  1  0
  5  6  2  0
  6  7  1  0
  7  8  2  0
  8  9  1  0
  9 10  1  0
 10 11  2  0
 11 12  1  0
 12 13  2  0
 13 14  1  0
 14 15  1  0
 15 16  2  0
 15 17  1  0
 17 18  2  0
 18 19  1  0
 19 20  2  0
 20 21  1  0
 21 22  2  0
 20 23  1  0
 23 24  1  0
 23 25  1  0
 23 26  1  0
 13 27  1  0
 27 28  2  0
  8 29  1  0
 29 30  2  0
 30 31  1  0
 31 32  2  0
 32 33  1  0
 33  5  1  0
 32  7  1  0
 28 10  1  0
 22 17  1  0
  1 34  1  0
  1 35  1  0
  1 36  1  0
  2 37  1  0
  6 38  1  0
 11 39  1  0
 12 40  1  0
 14 41  1  0
 18 42  1  0
 19 43  1  0
 21 44  1  0
 22 45  1  0
 27 46  1  0
 28 47  1  0
 29 48  1  0
 31 49  1  0
M  END
$$$$
[H]OC(=O)c1c([H])c([H])c([C@@]([H])(N([H])C(=O)[C@@]([H])(N([H])C(=O)OC([H])([H])c2c([H])c([H])c([H])c([H])c2[H])C([H])(c2c([H])c([H])c([H])c([H])c2[H])c2c([H])c([H])c([H])c([H])c2[H])C([H])([H])[H])c([H])c1[H]
     RDKit          3D

 69 72  0  0  0  0  0  0  0  0999 V2000
    3.3538    2.5605    2.3519 C   0  0  0  0  0  0  0  0  0  0  0  0
    3.1198    1.9328    0.9785 C   0  0  2  0  0  0  0  0  0  0  0  0
    1.9701    1.0400    1.1316 N   0  0  0  0  0  0  0  0  0  0  0  0
    0.7613    1.2344    0.4510 C   0  0  0  0  0  0  0  0  0  0  0  0
    0.6997    2.2491   -0.3259 O   0  0  0  0  0  0  0  0  0  0  0  0
   -0.3848    0.3299    0.6105 C   0  0  1  0  0  0  0  0  0  0  0  0
   -1.5410    0.6867   -0.1374 N   0  0  0  0  0  0  0  0  0  0  0  0
   -2.7800    0.8994    0.5718 C   0  0  0  0  0  0  0  0  0  0  0  0
   -2.8389    0.7703    1.8222 O   0  0  0  0  0  0  0  0  0  0  0  0
   -3.9574    1.2515   -0.0672 O   0  0  0  0  0  0  0  0  0  0  0  0
   -5.1451    1.4417    0.6783 C   0  0  0  0  0  0  0  0  0  0  0  0
   -6.2866    1.8229   -0.1784 C   0  0  0  0  0  0  0  0  0  0  0  0
   -6.6319    3.1622   -0.2579 C   0  0  0  0  0  0  0  0  0  0  0  0
   -7.6884    3.5647   -1.0454 C   0  0  0  0  0  0  0  0  0  0  0  0
   -8.4283    2.6643   -1.7701 C   0  0  0  0  0  0  0  0  0  0  0  0
   -8.0996    1.3259   -1.7035 C   0  0  0  0  0  0  0  0  0  0  0  0
   -7.0425    0.9338   -0.9140 C   0  0  0  0  0  0  0  0  0  0  0  0
    0.0548   -1.0942    0.5288 C   0  0  0  0  0  0  0  0  0  0  0  0
   -1.0785   -2.0612    0.6592 C   0  0  0  0  0  0  0  0  0  0  0  0
   -1.9423   -2.1583   -0.3842 C   0  0  0  0  0  0  0  0  0  0  0  0
   -3.0215   -3.0133   -0.3365 C   0  0  0  0  0  0  0  0  0  0  0  0
   -3.2281   -3.7850    0.7911 C   0  0  0  0  0  0  0  0  0  0  0  0
   -2.3389   -3.6760    1.8452 C   0  0  0  0  0  0  0  0  0  0  0  0
   -1.2646   -2.8187    1.7879 C   0  0  0  0  0  0  0  0  0  0  0  0
    1.0126   -1.4527   -0.5043 C   0  0  0  0  0  0  0  0  0  0  0  0
    2.0535   -2.3585   -0.2432 C   0  0  0  0  0  0  0  0  0  0  0  0
    2.9645   -2.7066   -1.2129 C   0  0  0  0  0  0  0  0  0  0  0  0
    2.8933   -2.1765   -2.4924 C   0  0  0  0  0  0  0  0  0  0  0  0
    1.8858   -1.2947   -2.7591 C   0  0  0  0  0  0  0  0  0  0  0  0
    0.9716   -0.9495   -1.7747 C   0  0  0  0  0  0  0  0  0  0  0  0
    4.3319    1.1916    0.6237 C   0  0  0  0  0  0  0  0  0  0  0  0
    5.1446    1.6214   -0.3901 C   0  0  0  0  0  0  0  0  0  0  0  0
    6.3036    0.9378   -0.7472 C   0  0  0  0  0  0  0  0  0  0  0  0
    6.6554   -0.2009   -0.0729 C   0  0  0  0  0  0  0  0  0  0  0  0
    5.8334   -0.6358    0.9533 C   0  0  0  0  0  0  0  0  0  0  0  0
    4.6792    0.0580    1.2977 C   0  0  0  0  0  0  0  0  0  0  0  0
    7.8559   -0.9707   -0.3884 C   0  0  0  0  0  0  0  0  0  0  0  0
    8.6740   -0.5148   -1.4334 O   0  0  0  0  0  0  0  0  0  0  0  0
    8.1375   -2.0018    0.2573 O   0  0  0  0  0  0  0  0  0  0  0  0
    3.9543    1.8476    2.9523 H   0  0  0  0  0  0  0  0  0  0  0  0
    2.4059    2.7091    2.8921 H   0  0  0  0  0  0  0  0  0  0  0  0
    3.8623    3.5494    2.2342 H   0  0  0  0  0  0  0  0  0  0  0  0
    2.8917    2.7369    0.2397 H   0  0  0  0  0  0  0  0  0  0  0  0
    2.1018    0.2377    1.7863 H   0  0  0  0  0  0  0  0  0  0  0  0
   -0.6924    0.4656    1.7112 H   0  0  0  0  0  0  0  0  0  0  0  0
   -1.6244    0.8256   -1.1651 H   0  0  0  0  0  0  0  0  0  0  0  0
   -5.0127    2.1491    1.5184 H   0  0  0  0  0  0  0  0  0  0  0  0
   -5.3918    0.4531    1.1279 H   0  0  0  0  0  0  0  0  0  0  0  0
   -6.0907    3.9185    0.2866 H   0  0  0  0  0  0  0  0  0  0  0  0
   -7.9393    4.6074   -1.0926 H   0  0  0  0  0  0  0  0  0  0  0  0
   -9.2580    2.9759   -2.3858 H   0  0  0  0  0  0  0  0  0  0  0  0
   -8.7035    0.6454   -2.2898 H   0  0  0  0  0  0  0  0  0  0  0  0
   -6.8066   -0.1172   -0.8785 H   0  0  0  0  0  0  0  0  0  0  0  0
    0.6320   -1.2590    1.5140 H   0  0  0  0  0  0  0  0  0  0  0  0
   -1.8201   -1.5663   -1.3136 H   0  0  0  0  0  0  0  0  0  0  0  0
   -3.6958   -3.0596   -1.2029 H   0  0  0  0  0  0  0  0  0  0  0  0
   -4.0803   -4.4324    0.7800 H   0  0  0  0  0  0  0  0  0  0  0  0
   -2.5321   -4.2995    2.7222 H   0  0  0  0  0  0  0  0  0  0  0  0
   -0.5741   -2.7549    2.6436 H   0  0  0  0  0  0  0  0  0  0  0  0
    2.1473   -2.7909    0.7261 H   0  0  0  0  0  0  0  0  0  0  0  0
    3.7688   -3.4030   -1.0173 H   0  0  0  0  0  0  0  0  0  0  0  0
    3.6213   -2.4622   -3.2499 H   0  0  0  0  0  0  0  0  0  0  0  0
    1.8268   -0.8759   -3.7640 H   0  0  0  0  0  0  0  0  0  0  0  0
    0.2214   -0.2584   -2.0663 H   0  0  0  0  0  0  0  0  0  0  0  0
    4.9312    2.5058   -0.9623 H   0  0  0  0  0  0  0  0  0  0  0  0
    6.9540    1.2619   -1.5426 H   0  0  0  0  0  0  0  0  0  0  0  0
    6.0695   -1.5208    1.5068 H   0  0  0  0  0  0  0  0  0  0  0  0
    4.0542   -0.2951    2.0956 H   0  0  0  0  0  0  0  0  0  0  0  0
    9.1213    0.3966   -1.3607 H   0  0  0  0  0  0  0  0  0  0  0  0
  1  2  1  0
  2  3  1  0
  3  4  1  0
  4  5  2  0
  4  6  1  0
  6  7  1  0
  7  8  1  0
  8  9  2  0
  8 10  1  0
 10 11  1  0
 11 12  1  0
 12 13  2  0
 13 14  1  0
 14 15  2  0
 15 16  1  0
 16 17  2  0
  6 18  1  0
 18 19  1  0
 19 20  2  0
 20 21  1  0
 21 22  2  0
 22 23  1  0
 23 24  2  0
 18 25  1  0
 25 26  2  0
 26 27  1  0
 27 28  2  0
 28 29  1  0
 29 30  2  0
  2 31  1  0
 31 32  2  0
 32 33  1  0
 33 34  2  0
 34 35  1  0
 35 36  2  0
 34 37  1  0
 37 38  1  0
 37 39  2  0
 17 12  1  0
 24 19  1  0
 30 25  1  0
 36 31  1  0
  1 40  1  0
  1 41  1  0
  1 42  1  0
  2 43  1  6
  3 44  1  0
  6 45  1  1
  7 46  1  0
 11 47  1  0
 11 48  1  0
 13 49  1  0
 14 50  1  0
 15 51  1  0
 16 52  1  0
 17 53  1  0
 18 54  1  0
 20 55  1  0
 21 56  1  0
 22 57  1  0
 23 58  1  0
 24 59  1  0
 26 60  1  0
 27 61  1  0
 28 62  1  0
 29 63  1  0
 30 64  1  0
 32 65  1  0
 33 66  1  0
 35 67  1  0
 36 68  1  0
 38 69  1  0
M  END
$$$$
[H]C1=C(C(=O)[O-])N2C(=O)/C(=C(\[H])c3nc4n(c3[H])C([H])([H])C([H])([H])C([H])([H])C4([H])[H])[C@@]2([H])S1
     RDKit          3D

 33 36  0  0  0  0  0  0  0  0999 V2000
    6.6567   -0.8372    1.8600 O   0  0  0  0  0  0  0  0  0  0  0  0
    5.9911   -0.5668    0.6797 C   0  0  0  0  0  0  0  0  0  0  0  0
    6.6922   -0.5324   -0.3627 O   0  0  0  0  0  0  0  0  0  0  0  0
    4.5458   -0.3423    0.7096 C   0  0  0  0  0  0  0  0  0  0  0  0
    3.8516   -0.3883    1.8207 C   0  0  0  0  0  0  0  0  0  0  0  0
    2.1517   -0.0559    1.3794 S   0  0  0  0  0  0  0  0  0  0  0  0
    2.5883    0.6708   -0.2598 C   0  0  1  0  0  0  0  0  0  0  0  0
    3.8221   -0.0820   -0.4541 N   0  0  0  0  0  0  0  0  0  0  0  0
    3.4878   -0.0881   -1.8578 C   0  0  0  0  0  0  0  0  0  0  0  0
    4.0741   -0.1204   -2.9669 O   0  0  0  0  0  0  0  0  0  0  0  0
    2.0738   -0.0367   -1.4190 C   0  0  0  0  0  0  0  0  0  0  0  0
    0.9361   -0.4490   -1.8920 C   0  0  0  0  0  0  0  0  0  0  0  0
   -0.2879   -0.1997   -1.1453 C   0  0  0  0  0  0  0  0  0  0  0  0
   -1.3491   -1.0723   -1.0428 C   0  0  0  0  0  0  0  0  0  0  0  0
   -2.3077   -0.5200   -0.2862 N   0  0  0  0  0  0  0  0  0  0  0  0
   -3.5832   -1.1080    0.0701 C   0  0  0  0  0  0  0  0  0  0  0  0
   -4.5218   -0.1403    0.6923 C   0  0  0  0  0  0  0  0  0  0  0  0
   -4.1506    1.2939    0.5548 C   0  0  0  0  0  0  0  0  0  0  0  0
   -2.7145    1.5534    0.9482 C   0  0  0  0  0  0  0  0  0  0  0  0
   -1.8707    0.6711    0.0843 C   0  0  0  0  0  0  0  0  0  0  0  0
   -0.6453    0.8683   -0.4356 N   0  0  0  0  0  0  0  0  0  0  0  0
    4.1823   -0.5799    2.8108 H   0  0  0  0  0  0  0  0  0  0  0  0
    2.6773    1.7509   -0.2755 H   0  0  0  0  0  0  0  0  0  0  0  0
    0.9127   -0.9758   -2.8412 H   0  0  0  0  0  0  0  0  0  0  0  0
   -1.3496   -2.0558   -1.5311 H   0  0  0  0  0  0  0  0  0  0  0  0
   -3.3803   -1.9219    0.7991 H   0  0  0  0  0  0  0  0  0  0  0  0
   -4.0233   -1.5852   -0.8510 H   0  0  0  0  0  0  0  0  0  0  0  0
   -5.5280   -0.2736    0.1941 H   0  0  0  0  0  0  0  0  0  0  0  0
   -4.7254   -0.3693    1.7706 H   0  0  0  0  0  0  0  0  0  0  0  0
   -4.3319    1.7200   -0.4540 H   0  0  0  0  0  0  0  0  0  0  0  0
   -4.7806    1.8682    1.2839 H   0  0  0  0  0  0  0  0  0  0  0  0
   -2.5199    2.6270    0.7369 H   0  0  0  0  0  0  0  0  0  0  0  0
   -2.5739    1.2773    2.0079 H   0  0  0  0  0  0  0  0  0  0  0  0
  1  2  1  0
  2  3  2  0
  2  4  1  0
  4  5  2  0
  5  6  1  0
  6  7  1  0
  7  8  1  0
  8  9  1  0
  9 10  2  0
  9 11  1  0
 11 12  2  0
 12 13  1  0
 13 14  2  0
 14 15  1  0
 15 16  1  0
 16 17  1  0
 17 18  1  0
 18 19  1  0
 19 20  1  0
 20 21  2  0
  8  4  1  0
 21 13  1  0
 11  7  1  0
 20 15  1  0
  5 22  1  0
  7 23  1  1
 12 24  1  0
 14 25  1  0
 16 26  1  0
 16 27  1  0
 17 28  1  0
 17 29  1  0
 18 30  1  0
 18 31  1  0
 19 32  1  0
 19 33  1  0
M  CHG  1   1  -1
M  END
$$$$
[H]OC([H])([H])C([H])([H])Oc1nc([H])c(-c2c(C([H])([H])[H])nc([H])c(N([H])C(=O)c3c([H])c([H])c([H])c(C(F)(F)F)c3[H])c2[H])c([H])c1N1C([H])([H])C([H])([H])OC([H])([H])C1([H])[H]
     RDKit          3D

 61 64  0  0  0  0  0  0  0  0999 V2000
   -1.0478   -1.6207    3.5053 C   0  0  0  0  0  0  0  0  0  0  0  0
    0.1766   -1.1925    2.7955 C   0  0  0  0  0  0  0  0  0  0  0  0
    1.3257   -1.0825    3.4680 N   0  0  0  0  0  0  0  0  0  0  0  0
    2.4807   -0.7144    2.9087 C   0  0  0  0  0  0  0  0  0  0  0  0
    2.5518   -0.4133    1.5431 C   0  0  0  0  0  0  0  0  0  0  0  0
    3.8026   -0.0344    1.0189 N   0  0  0  0  0  0  0  0  0  0  0  0
    4.0530    0.4836   -0.2595 C   0  0  0  0  0  0  0  0  0  0  0  0
    3.2193    0.7059   -1.1649 O   0  0  0  0  0  0  0  0  0  0  0  0
    5.4466    0.8175   -0.6170 C   0  0  0  0  0  0  0  0  0  0  0  0
    5.6539    1.9033   -1.4294 C   0  0  0  0  0  0  0  0  0  0  0  0
    6.9225    2.2945   -1.8348 C   0  0  0  0  0  0  0  0  0  0  0  0
    7.9585    1.5341   -1.3822 C   0  0  0  0  0  0  0  0  0  0  0  0
    7.8315    0.4297   -0.5664 C   0  0  0  0  0  0  0  0  0  0  0  0
    6.5312    0.0968   -0.1967 C   0  0  0  0  0  0  0  0  0  0  0  0
    9.0106   -0.3453   -0.1284 C   0  0  0  0  0  0  0  0  0  0  0  0
    9.4558   -1.1528   -1.1713 F   0  0  0  0  0  0  0  0  0  0  0  0
   10.0124    0.5505    0.2423 F   0  0  0  0  0  0  0  0  0  0  0  0
    8.7145   -1.1484    0.9535 F   0  0  0  0  0  0  0  0  0  0  0  0
    1.3746   -0.5263    0.8625 C   0  0  0  0  0  0  0  0  0  0  0  0
    0.1808   -0.9090    1.4443 C   0  0  0  0  0  0  0  0  0  0  0  0
   -1.0432   -0.9973    0.6608 C   0  0  0  0  0  0  0  0  0  0  0  0
   -1.4183   -2.1600    0.0278 C   0  0  0  0  0  0  0  0  0  0  0  0
   -2.5655   -2.1624   -0.6691 N   0  0  0  0  0  0  0  0  0  0  0  0
   -3.3794   -1.1038   -0.7919 C   0  0  0  0  0  0  0  0  0  0  0  0
   -4.5558   -1.0701   -1.4924 O   0  0  0  0  0  0  0  0  0  0  0  0
   -5.0857   -2.1506   -2.1861 C   0  0  0  0  0  0  0  0  0  0  0  0
   -5.4131   -3.3579   -1.3258 C   0  0  0  0  0  0  0  0  0  0  0  0
   -5.9426   -4.3749   -2.1589 O   0  0  0  0  0  0  0  0  0  0  0  0
   -3.0378    0.1092   -0.1636 C   0  0  0  0  0  0  0  0  0  0  0  0
   -1.8739    0.1199    0.5470 C   0  0  0  0  0  0  0  0  0  0  0  0
   -3.8882    1.2294   -0.3014 N   0  0  0  0  0  0  0  0  0  0  0  0
   -5.2777    1.2118    0.0904 C   0  0  0  0  0  0  0  0  0  0  0  0
   -5.6339    2.5594    0.6664 C   0  0  0  0  0  0  0  0  0  0  0  0
   -4.4326    3.1334    1.1555 O   0  0  0  0  0  0  0  0  0  0  0  0
   -3.8201    3.6757    0.0156 C   0  0  0  0  0  0  0  0  0  0  0  0
   -3.3787    2.4904   -0.8543 C   0  0  0  0  0  0  0  0  0  0  0  0
   -1.2820   -2.6748    3.2915 H   0  0  0  0  0  0  0  0  0  0  0  0
   -0.8857   -1.5084    4.5786 H   0  0  0  0  0  0  0  0  0  0  0  0
   -1.9209   -0.9514    3.2327 H   0  0  0  0  0  0  0  0  0  0  0  0
    3.3841   -0.6344    3.5059 H   0  0  0  0  0  0  0  0  0  0  0  0
    4.6577   -0.1410    1.6460 H   0  0  0  0  0  0  0  0  0  0  0  0
    4.8240    2.4720   -1.7626 H   0  0  0  0  0  0  0  0  0  0  0  0
    7.0474    3.1633   -2.4788 H   0  0  0  0  0  0  0  0  0  0  0  0
    8.9680    1.8112   -1.6749 H   0  0  0  0  0  0  0  0  0  0  0  0
    6.3854   -0.7591    0.4425 H   0  0  0  0  0  0  0  0  0  0  0  0
    1.3685   -0.3109   -0.2160 H   0  0  0  0  0  0  0  0  0  0  0  0
   -0.8031   -3.0537    0.0943 H   0  0  0  0  0  0  0  0  0  0  0  0
   -4.3815   -2.5223   -2.9838 H   0  0  0  0  0  0  0  0  0  0  0  0
   -6.0624   -1.8779   -2.6725 H   0  0  0  0  0  0  0  0  0  0  0  0
   -4.4848   -3.7720   -0.9182 H   0  0  0  0  0  0  0  0  0  0  0  0
   -6.1557   -3.1436   -0.5532 H   0  0  0  0  0  0  0  0  0  0  0  0
   -6.5425   -4.9618   -1.6134 H   0  0  0  0  0  0  0  0  0  0  0  0
   -1.5579    1.0327    1.0458 H   0  0  0  0  0  0  0  0  0  0  0  0
   -5.8699    1.1153   -0.8704 H   0  0  0  0  0  0  0  0  0  0  0  0
   -5.5229    0.4543    0.8320 H   0  0  0  0  0  0  0  0  0  0  0  0
   -6.4021    2.5252    1.4491 H   0  0  0  0  0  0  0  0  0  0  0  0
   -6.0386    3.2531   -0.1241 H   0  0  0  0  0  0  0  0  0  0  0  0
   -2.9601    4.3300    0.2566 H   0  0  0  0  0  0  0  0  0  0  0  0
   -4.5658    4.2977   -0.4931 H   0  0  0  0  0  0  0  0  0  0  0  0
   -3.8185    2.5672   -1.8721 H   0  0  0  0  0  0  0  0  0  0  0  0
   -2.2892    2.4610   -0.9211 H   0  0  0  0  0  0  0  0  0  0  0  0
  1  2  1  0
  2  3  2  0
  3  4  1  0
  4  5  2  0
  5  6  1  0
  6  7  1  0
  7  8  2  0
  7  9  1  0
  9 10  2  0
 10 11  1  0
 11 12  2  0
 12 13  1  0
 13 14  2  0
 13 15  1  0
 15 16  1  0
 15 17  1  0
 15 18  1  0
  5 19  1  0
 19 20  2  0
 20 21  1  0
 21 22  2  0
 22 23  1  0
 23 24  2  0
 24 25  1  0
 25 26  1  0
 26 27  1  0
 27 28  1  0
 24 29  1  0
 29 30  2  0
 29 31  1  0
 31 32  1  0
 32 33  1  0
 33 34  1  0
 34 35  1  0
 35 36  1  0
 20  2  1  0
 30 21  1  0
 36 31  1  0
 14  9  1  0
  1 37  1  0
  1 38  1  0
  1 39  1  0
  4 40  1  0
  6 41  1  0
 10 42  1  0
 11 43  1  0
 12 44  1  0
 14 45  1  0
 19 46  1  0
 22 47  1  0
 26 48  1  0
 26 49  1  0
 27 50  1  0
 27 51  1  0
 28 52  1  0
 30 53  1  0
 32 54  1  0
 32 55  1  0
 33 56  1  0
 33 57  1  0
 35 58  1  0
 35 59  1  0
 36 60  1  0
 36 61  1  0
M  END
$$$$
[H]ON([H])C(=O)[C@@]([H])(N([H])S(=O)(=O)c1c([H])c([H])c(-c2c([H])c([H])c([H])c([H])c2[H])c([H])c1[H])C([H])(C([H])([H])[H])C([H])([H])[H]
     RDKit          3D

 44 45  0  0  0  0  0  0  0  0999 V2000
   -5.1229    1.3594   -0.8374 C   0  0  0  0  0  0  0  0  0  0  0  0
   -4.6555    0.7139    0.4037 C   0  0  0  0  0  0  0  0  0  0  0  0
   -5.7321   -0.1254    1.0095 C   0  0  0  0  0  0  0  0  0  0  0  0
   -3.3287    0.0680    0.4645 C   0  0  2  0  0  0  0  0  0  0  0  0
   -2.1737    0.6890    0.2776 N   0  0  0  0  0  0  0  0  0  0  0  0
   -0.9093    1.2006    1.1679 S   0  0  0  0  0  0  0  0  0  0  0  0
   -1.0392    1.3303    2.6495 O   0  0  0  0  0  0  0  0  0  0  0  0
   -0.7150    2.7400    0.7296 O   0  0  0  0  0  0  0  0  0  0  0  0
    0.6804    0.5689    0.8257 C   0  0  0  0  0  0  0  0  0  0  0  0
    0.9939   -0.5780    0.1586 C   0  0  0  0  0  0  0  0  0  0  0  0
    2.3268   -0.9268   -0.1053 C   0  0  0  0  0  0  0  0  0  0  0  0
    3.3739   -0.1327    0.3026 C   0  0  0  0  0  0  0  0  0  0  0  0
    3.0561    1.0424    1.0199 C   0  0  0  0  0  0  0  0  0  0  0  0
    1.7403    1.3691    1.2598 C   0  0  0  0  0  0  0  0  0  0  0  0
    4.7762   -0.3634    0.0162 C   0  0  0  0  0  0  0  0  0  0  0  0
    5.2805   -0.9260   -1.1244 C   0  0  0  0  0  0  0  0  0  0  0  0
    6.5891   -1.0381   -1.3855 C   0  0  0  0  0  0  0  0  0  0  0  0
    7.5623   -0.5939   -0.4898 C   0  0  0  0  0  0  0  0  0  0  0  0
    7.1048   -0.0281    0.6499 C   0  0  0  0  0  0  0  0  0  0  0  0
    5.7386    0.1012    0.9345 C   0  0  0  0  0  0  0  0  0  0  0  0
   -3.3617   -1.3197   -0.1794 C   0  0  0  0  0  0  0  0  0  0  0  0
   -3.0190   -2.3342    0.4928 O   0  0  0  0  0  0  0  0  0  0  0  0
   -3.7678   -1.4285   -1.5444 N   0  0  0  0  0  0  0  0  0  0  0  0
   -4.0665   -1.9022   -2.6877 O   0  0  0  0  0  0  0  0  0  0  0  0
   -5.3576    0.7491   -1.7083 H   0  0  0  0  0  0  0  0  0  0  0  0
   -4.5285    2.3111   -1.0810 H   0  0  0  0  0  0  0  0  0  0  0  0
   -6.1237    1.8419   -0.5404 H   0  0  0  0  0  0  0  0  0  0  0  0
   -4.6334    1.6314    1.1708 H   0  0  0  0  0  0  0  0  0  0  0  0
   -6.3263   -0.7027    0.3154 H   0  0  0  0  0  0  0  0  0  0  0  0
   -6.4705    0.6238    1.4763 H   0  0  0  0  0  0  0  0  0  0  0  0
   -5.3752   -0.6824    1.8893 H   0  0  0  0  0  0  0  0  0  0  0  0
   -3.3040   -0.2706    1.6367 H   0  0  0  0  0  0  0  0  0  0  0  0
   -1.8190    0.4847   -0.7428 H   0  0  0  0  0  0  0  0  0  0  0  0
    0.2222   -1.2179   -0.2124 H   0  0  0  0  0  0  0  0  0  0  0  0
    2.5754   -1.8160   -0.6485 H   0  0  0  0  0  0  0  0  0  0  0  0
    3.8982    1.6356    1.3429 H   0  0  0  0  0  0  0  0  0  0  0  0
    1.5405    2.2623    1.7808 H   0  0  0  0  0  0  0  0  0  0  0  0
    4.5174   -1.2963   -1.8331 H   0  0  0  0  0  0  0  0  0  0  0  0
    6.9148   -1.5082   -2.3183 H   0  0  0  0  0  0  0  0  0  0  0  0
    8.5676   -0.7098   -0.7574 H   0  0  0  0  0  0  0  0  0  0  0  0
    7.8562    0.3630    1.3724 H   0  0  0  0  0  0  0  0  0  0  0  0
    5.5200    0.5671    1.8613 H   0  0  0  0  0  0  0  0  0  0  0  0
   -4.5667   -2.5524   -1.0587 H   0  0  0  0  0  0  0  0  0  0  0  0
   -4.4388   -1.1996   -3.3165 H   0  0  0  0  0  0  0  0  0  0  0  0
  1  2  1  0
  2  3  1  0
  2  4  1  0
  4  5  1  0
  5  6  1  0
  6  7  2  0
  6  8  2  0
  6  9  1  0
  9 10  2  0
 10 11  1  0
 11 12  2  0
 12 13  1  0
 13 14  2  0
 12 15  1  0
 15 16  2  0
 16 17  1  0
 17 18  2  0
 18 19  1  0
 19 20  2  0
  4 21  1  0
 21 22  2  0
 21 23  1  0
 23 24  1  0
 14  9  1  0
 20 15  1  0
  1 25  1  0
  1 26  1  0
  1 27  1  0
  2 28  1  0
  3 29  1  0
  3 30  1  0
  3 31  1  0
  4 32  1  1
  5 33  1  0
 10 34  1  0
 11 35  1  0
 13 36  1  0
 14 37  1  0
 16 38  1  0
 17 39  1  0
 18 40  1  0
 19 41  1  0
 20 42  1  0
 23 43  1  0
 24 44  1  0
M  END
$$$$
[H]C1=C([H])C([H])(F)C([H])([H])C([H])=C1N([H])C(=O)C1(C(=O)N([H])c2c([H])c([H])c(Oc3c([H])c([H])nc4c([H])c(OC([H])([H])C([H])([H])C([H])([H])N5C([H])([H])C([H])([H])OC([H])([H])C5([H])[H])c(OC([H])([H])[H])c([H])c34)c(F)c2[H])C([H])([H])C1([H])[H]
     RDKit          3D

 82 87  0  0  0  0  0  0  0  0999 V2000
    3.9666    3.0495   -1.7322 C   0  0  0  0  0  0  0  0  0  0  0  0
    4.8184    1.9472   -1.5191 O   0  0  0  0  0  0  0  0  0  0  0  0
    4.2779    0.7150   -1.2054 C   0  0  0  0  0  0  0  0  0  0  0  0
    2.9355    0.4830   -1.0834 C   0  0  0  0  0  0  0  0  0  0  0  0
    2.5057   -0.7878   -0.7673 C   0  0  0  0  0  0  0  0  0  0  0  0
    1.1302   -1.0757   -0.6337 C   0  0  0  0  0  0  0  0  0  0  0  0
    0.2693   -0.0306   -0.8259 O   0  0  0  0  0  0  0  0  0  0  0  0
   -1.0898   -0.1642   -0.6451 C   0  0  0  0  0  0  0  0  0  0  0  0
   -1.9847   -0.0120   -1.6950 C   0  0  0  0  0  0  0  0  0  0  0  0
   -3.3381   -0.1282   -1.5809 C   0  0  0  0  0  0  0  0  0  0  0  0
   -3.8905   -0.4214   -0.3289 C   0  0  0  0  0  0  0  0  0  0  0  0
   -5.3238   -0.4986   -0.2135 N   0  0  0  0  0  0  0  0  0  0  0  0
   -5.9613   -1.3830    0.6262 C   0  0  0  0  0  0  0  0  0  0  0  0
   -5.1921   -2.1849    1.2964 O   0  0  0  0  0  0  0  0  0  0  0  0
   -7.4011   -1.5958    0.9101 C   0  0  0  0  0  0  0  0  0  0  0  0
   -7.6820   -2.4618    2.1265 C   0  0  0  0  0  0  0  0  0  0  0  0
   -7.8126   -3.1190    0.8294 C   0  0  0  0  0  0  0  0  0  0  0  0
   -8.4706   -0.6963    0.4763 C   0  0  0  0  0  0  0  0  0  0  0  0
   -9.6747   -1.1656    0.7176 O   0  0  0  0  0  0  0  0  0  0  0  0
   -8.4814    0.5528   -0.1324 N   0  0  0  0  0  0  0  0  0  0  0  0
   -9.7446    1.2195   -0.4499 C   0  0  0  0  0  0  0  0  0  0  0  0
   -9.9496    2.4040    0.0799 C   0  0  0  0  0  0  0  0  0  0  0  0
  -11.1350    3.2347   -0.1097 C   0  0  0  0  0  0  0  0  0  0  0  0
  -12.2008    2.6387   -0.9439 C   0  0  0  0  0  0  0  0  0  0  0  0
  -12.4721    3.4850   -2.0494 F   0  0  0  0  0  0  0  0  0  0  0  0
  -11.8730    1.3187   -1.4859 C   0  0  0  0  0  0  0  0  0  0  0  0
  -10.7586    0.6480   -1.2759 C   0  0  0  0  0  0  0  0  0  0  0  0
   -3.0432   -0.5784    0.7341 C   0  0  0  0  0  0  0  0  0  0  0  0
   -1.6522   -0.4525    0.5863 C   0  0  0  0  0  0  0  0  0  0  0  0
   -0.8827   -0.5957    1.6903 F   0  0  0  0  0  0  0  0  0  0  0  0
    0.7223   -2.3515   -0.3227 C   0  0  0  0  0  0  0  0  0  0  0  0
    1.6378   -3.3635   -0.1352 C   0  0  0  0  0  0  0  0  0  0  0  0
    2.9451   -3.0865   -0.2619 N   0  0  0  0  0  0  0  0  0  0  0  0
    3.3732   -1.8309   -0.5703 C   0  0  0  0  0  0  0  0  0  0  0  0
    4.7330   -1.5901   -0.6954 C   0  0  0  0  0  0  0  0  0  0  0  0
    5.1920   -0.3333   -1.0085 C   0  0  0  0  0  0  0  0  0  0  0  0
    6.5206   -0.0853   -1.1253 O   0  0  0  0  0  0  0  0  0  0  0  0
    7.5310   -0.9938   -0.8772 C   0  0  0  0  0  0  0  0  0  0  0  0
    7.6262   -1.3701    0.5948 C   0  0  0  0  0  0  0  0  0  0  0  0
    7.9359   -0.0985    1.3961 C   0  0  0  0  0  0  0  0  0  0  0  0
    9.1945    0.4265    0.9288 N   0  0  0  0  0  0  0  0  0  0  0  0
    9.4053    1.7864    1.4776 C   0  0  0  0  0  0  0  0  0  0  0  0
   10.8161    2.1639    1.0165 C   0  0  0  0  0  0  0  0  0  0  0  0
   11.2632    1.3549   -0.0281 O   0  0  0  0  0  0  0  0  0  0  0  0
   11.4615    0.0232    0.3872 C   0  0  0  0  0  0  0  0  0  0  0  0
   10.3466   -0.3576    1.3702 C   0  0  0  0  0  0  0  0  0  0  0  0
    4.5770    3.9509   -1.9692 H   0  0  0  0  0  0  0  0  0  0  0  0
    3.3066    3.2216   -0.8582 H   0  0  0  0  0  0  0  0  0  0  0  0
    3.3086    2.7911   -2.5987 H   0  0  0  0  0  0  0  0  0  0  0  0
    2.2243    1.2761   -1.2311 H   0  0  0  0  0  0  0  0  0  0  0  0
   -1.5528    0.2161   -2.6750 H   0  0  0  0  0  0  0  0  0  0  0  0
   -4.0246   -0.0039   -2.4200 H   0  0  0  0  0  0  0  0  0  0  0  0
   -5.8260    0.1518   -0.8369 H   0  0  0  0  0  0  0  0  0  0  0  0
   -6.8106   -2.7138    2.7607 H   0  0  0  0  0  0  0  0  0  0  0  0
   -8.5985   -2.2800    2.7131 H   0  0  0  0  0  0  0  0  0  0  0  0
   -7.0275   -3.7752    0.4011 H   0  0  0  0  0  0  0  0  0  0  0  0
   -8.7992   -3.3162    0.3639 H   0  0  0  0  0  0  0  0  0  0  0  0
   -7.6334    1.0911   -0.3743 H   0  0  0  0  0  0  0  0  0  0  0  0
   -9.1652    2.8388    0.7401 H   0  0  0  0  0  0  0  0  0  0  0  0
  -11.5358    3.5321    0.9159 H   0  0  0  0  0  0  0  0  0  0  0  0
  -10.8538    4.2484   -0.5572 H   0  0  0  0  0  0  0  0  0  0  0  0
  -13.1586    2.5647   -0.3407 H   0  0  0  0  0  0  0  0  0  0  0  0
  -12.6648    0.8691   -2.1323 H   0  0  0  0  0  0  0  0  0  0  0  0
  -10.6018   -0.3227   -1.7168 H   0  0  0  0  0  0  0  0  0  0  0  0
   -3.4037   -0.7893    1.7394 H   0  0  0  0  0  0  0  0  0  0  0  0
   -0.3200   -2.5956   -0.2356 H   0  0  0  0  0  0  0  0  0  0  0  0
    1.2680   -4.3480    0.1079 H   0  0  0  0  0  0  0  0  0  0  0  0
    5.3620   -2.4538   -0.5623 H   0  0  0  0  0  0  0  0  0  0  0  0
    7.4424   -1.9223   -1.5038 H   0  0  0  0  0  0  0  0  0  0  0  0
    8.4920   -0.5348   -1.2249 H   0  0  0  0  0  0  0  0  0  0  0  0
    6.7751   -1.8921    1.0071 H   0  0  0  0  0  0  0  0  0  0  0  0
    8.4922   -2.0400    0.6815 H   0  0  0  0  0  0  0  0  0  0  0  0
    7.1233    0.6400    1.3255 H   0  0  0  0  0  0  0  0  0  0  0  0
    8.0487   -0.4301    2.4644 H   0  0  0  0  0  0  0  0  0  0  0  0
    9.4079    1.7624    2.5778 H   0  0  0  0  0  0  0  0  0  0  0  0
    8.6320    2.4413    1.0296 H   0  0  0  0  0  0  0  0  0  0  0  0
   11.5508    2.0414    1.8480 H   0  0  0  0  0  0  0  0  0  0  0  0
   10.8264    3.2054    0.6080 H   0  0  0  0  0  0  0  0  0  0  0  0
   11.3001   -0.6008   -0.5146 H   0  0  0  0  0  0  0  0  0  0  0  0
   12.4569   -0.1361    0.8078 H   0  0  0  0  0  0  0  0  0  0  0  0
   10.1090   -1.3943    1.4038 H   0  0  0  0  0  0  0  0  0  0  0  0
   10.6797    0.0679    2.3647 H   0  0  0  0  0  0  0  0  0  0  0  0
  1  2  1  0
  2  3  1  0
  3  4  2  0
  4  5  1  0
  5  6  2  0
  6  7  1  0
  7  8  1  0
  8  9  2  0
  9 10  1  0
 10 11  2  0
 11 12  1  0
 12 13  1  0
 13 14  2  0
 13 15  1  0
 15 16  1  0
 16 17  1  0
 15 18  1  0
 18 19  2  0
 18 20  1  0
 20 21  1  0
 21 22  2  0
 22 23  1  0
 23 24  1  0
 24 25  1  0
 24 26  1  0
 26 27  2  0
 11 28  1  0
 28 29  2  0
 29 30  1  0
  6 31  1  0
 31 32  2  0
 32 33  1  0
 33 34  2  0
 34 35  1  0
 35 36  2  0
 36 37  1  0
 37 38  1  0
 38 39  1  0
 39 40  1  0
 40 41  1  0
 41 42  1  0
 42 43  1  0
 43 44  1  0
 44 45  1  0
 45 46  1  0
 36  3  1  0
 46 41  1  0
 34  5  1  0
 29  8  1  0
 17 15  1  0
 27 21  1  0
  1 47  1  0
  1 48  1  0
  1 49  1  0
  4 50  1  0
  9 51  1  0
 10 52  1  0
 12 53  1  0
 16 54  1  0
 16 55  1  0
 17 56  1  0
 17 57  1  0
 20 58  1  0
 22 59  1  0
 23 60  1  0
 23 61  1  0
 24 62  1  0
 26 63  1  0
 27 64  1  0
 28 65  1  0
 31 66  1  0
 32 67  1  0
 35 68  1  0
 38 69  1  0
 38 70  1  0
 39 71  1  0
 39 72  1  0
 40 73  1  0
 40 74  1  0
 42 75  1  0
 42 76  1  0
 43 77  1  0
 43 78  1  0
 45 79  1  0
 45 80  1  0
 46 81  1  0
 46 82  1  0
M  END
$$$$
[H]c1nc(N([H])c2c([H])c([H])c(C(=O)N3C([H])([H])C([H])([H])OC([H])([H])C3([H])[H])c([H])c2OC([H])([H])[H])nc(N([H])c2c([H])c([H])c([H])c([H])c2S(=O)(=O)C([H])(C([H])([H])[H])C([H])([H])[H])c1Cl
     RDKit          3D

 65 68  0  0  0  0  0  0  0  0999 V2000
    2.4700   -4.1731    0.0786 C   0  0  0  0  0  0  0  0  0  0  0  0
    1.8302   -2.9327    0.2177 O   0  0  0  0  0  0  0  0  0  0  0  0
    2.5051   -1.7249    0.2756 C   0  0  0  0  0  0  0  0  0  0  0  0
    3.8629   -1.6373    0.2010 C   0  0  0  0  0  0  0  0  0  0  0  0
    4.5901   -0.4320    0.2555 C   0  0  0  0  0  0  0  0  0  0  0  0
    3.8350    0.6956    0.3928 C   0  0  0  0  0  0  0  0  0  0  0  0
    2.4325    0.6274    0.4717 C   0  0  0  0  0  0  0  0  0  0  0  0
    1.7574   -0.5572    0.4158 C   0  0  0  0  0  0  0  0  0  0  0  0
    0.3529   -0.6573    0.4926 N   0  0  0  0  0  0  0  0  0  0  0  0
   -0.5890    0.3825    0.6328 C   0  0  0  0  0  0  0  0  0  0  0  0
   -0.3612    1.6875    0.7234 N   0  0  0  0  0  0  0  0  0  0  0  0
   -1.3224    2.6083    0.8552 C   0  0  0  0  0  0  0  0  0  0  0  0
   -2.6469    2.2538    0.9070 C   0  0  0  0  0  0  0  0  0  0  0  0
   -3.9170    3.4459    1.0892 Cl  0  0  0  0  0  0  0  0  0  0  0  0
   -2.9344    0.8742    0.8138 C   0  0  0  0  0  0  0  0  0  0  0  0
   -4.2929    0.5160    0.8200 N   0  0  0  0  0  0  0  0  0  0  0  0
   -4.8150   -0.7947    0.7980 C   0  0  0  0  0  0  0  0  0  0  0  0
   -4.0306   -1.8630    1.2204 C   0  0  0  0  0  0  0  0  0  0  0  0
   -4.6211   -3.1240    1.3097 C   0  0  0  0  0  0  0  0  0  0  0  0
   -5.9372   -3.3226    0.9946 C   0  0  0  0  0  0  0  0  0  0  0  0
   -6.6823   -2.2522    0.5817 C   0  0  0  0  0  0  0  0  0  0  0  0
   -6.1500   -0.9540    0.4671 C   0  0  0  0  0  0  0  0  0  0  0  0
   -7.1530    0.2929   -0.1717 S   0  0  0  0  0  0  0  0  0  0  0  0
   -8.6032   -0.2627   -0.1646 O   0  0  0  0  0  0  0  0  0  0  0  0
   -7.2789    1.5017    0.7289 O   0  0  0  0  0  0  0  0  0  0  0  0
   -6.8666    0.7508   -1.8355 C   0  0  0  0  0  0  0  0  0  0  0  0
   -7.9409    1.7746   -2.2932 C   0  0  0  0  0  0  0  0  0  0  0  0
   -5.5677    1.3636   -2.1389 C   0  0  0  0  0  0  0  0  0  0  0  0
   -1.9090    0.0362    0.6849 N   0  0  0  0  0  0  0  0  0  0  0  0
    6.0026   -0.4992    0.1602 C   0  0  0  0  0  0  0  0  0  0  0  0
    6.4870   -1.7206    0.0073 O   0  0  0  0  0  0  0  0  0  0  0  0
    6.9684    0.4983    0.1999 N   0  0  0  0  0  0  0  0  0  0  0  0
    6.7780    1.8983    0.3565 C   0  0  0  0  0  0  0  0  0  0  0  0
    8.1664    2.5695    0.3493 C   0  0  0  0  0  0  0  0  0  0  0  0
    8.8964    2.2812   -0.7696 O   0  0  0  0  0  0  0  0  0  0  0  0
    8.9472    0.9403   -1.0713 C   0  0  0  0  0  0  0  0  0  0  0  0
    8.4059    0.1054    0.0642 C   0  0  0  0  0  0  0  0  0  0  0  0
    3.3646   -4.2165    0.7079 H   0  0  0  0  0  0  0  0  0  0  0  0
    2.8017   -4.2647   -0.9776 H   0  0  0  0  0  0  0  0  0  0  0  0
    1.7274   -4.9645    0.3135 H   0  0  0  0  0  0  0  0  0  0  0  0
    4.4010   -2.5708    0.0929 H   0  0  0  0  0  0  0  0  0  0  0  0
    4.2865    1.6605    0.4416 H   0  0  0  0  0  0  0  0  0  0  0  0
    1.9388    1.5888    0.5798 H   0  0  0  0  0  0  0  0  0  0  0  0
   -0.0326   -1.6675    0.4349 H   0  0  0  0  0  0  0  0  0  0  0  0
   -1.1077    3.6754    0.9277 H   0  0  0  0  0  0  0  0  0  0  0  0
   -4.9789    1.3236    0.8648 H   0  0  0  0  0  0  0  0  0  0  0  0
   -2.9925   -1.7607    1.5024 H   0  0  0  0  0  0  0  0  0  0  0  0
   -4.0074   -3.9445    1.6363 H   0  0  0  0  0  0  0  0  0  0  0  0
   -6.3859   -4.3151    1.0706 H   0  0  0  0  0  0  0  0  0  0  0  0
   -7.7419   -2.4218    0.3297 H   0  0  0  0  0  0  0  0  0  0  0  0
   -7.0038   -0.1679   -2.4629 H   0  0  0  0  0  0  0  0  0  0  0  0
   -7.8998    2.6105   -1.5708 H   0  0  0  0  0  0  0  0  0  0  0  0
   -8.9181    1.2877   -2.3546 H   0  0  0  0  0  0  0  0  0  0  0  0
   -7.5634    2.1654   -3.2602 H   0  0  0  0  0  0  0  0  0  0  0  0
   -5.3402    2.1651   -1.4094 H   0  0  0  0  0  0  0  0  0  0  0  0
   -5.5595    1.8908   -3.1405 H   0  0  0  0  0  0  0  0  0  0  0  0
   -4.7197    0.6338   -2.1061 H   0  0  0  0  0  0  0  0  0  0  0  0
    6.2322    2.3363   -0.5296 H   0  0  0  0  0  0  0  0  0  0  0  0
    6.3102    2.1590    1.3298 H   0  0  0  0  0  0  0  0  0  0  0  0
    8.0209    3.6759    0.4656 H   0  0  0  0  0  0  0  0  0  0  0  0
    8.6794    2.2519    1.2676 H   0  0  0  0  0  0  0  0  0  0  0  0
    8.4172    0.6812   -2.0138 H   0  0  0  0  0  0  0  0  0  0  0  0
   10.0355    0.6697   -1.1621 H   0  0  0  0  0  0  0  0  0  0  0  0
    8.9642    0.2887    0.9783 H   0  0  0  0  0  0  0  0  0  0  0  0
    8.4029   -0.9665   -0.2422 H   0  0  0  0  0  0  0  0  0  0  0  0
  1  2  1  0
  2  3  1  0
  3  4  2  0
  4  5  1  0
  5  6  2  0
  6  7  1  0
  7  8  2  0
  8  9  1  0
  9 10  1  0
 10 11  2  0
 11 12  1  0
 12 13  2  0
 13 14  1  0
 13 15  1  0
 15 16  1  0
 16 17  1  0
 17 18  2  0
 18 19  1  0
 19 20  2  0
 20 21  1  0
 21 22  2  0
 22 23  1  0
 23 24  2  0
 23 25  2  0
 23 26  1  0
 26 27  1  0
 26 28  1  0
 15 29  2  0
  5 30  1  0
 30 31  2  0
 30 32  1  0
 32 33  1  0
 33 34  1  0
 34 35  1  0
 35 36  1  0
 36 37  1  0
  8  3  1  0
 29 10  1  0
 37 32  1  0
 22 17  1  0
  1 38  1  0
  1 39  1  0
  1 40  1  0
  4 41  1  0
  6 42  1  0
  7 43  1  0
  9 44  1  0
 12 45  1  0
 16 46  1  0
 18 47  1  0
 19 48  1  0
 20 49  1  0
 21 50  1  0
 26 51  1  0
 27 52  1  0
 27 53  1  0
 27 54  1  0
 28 55  1  0
 28 56  1  0
 28 57  1  0
 33 58  1  0
 33 59  1  0
 34 60  1  0
 34 61  1  0
 36 62  1  0
 36 63  1  0
 37 64  1  0
 37 65  1  0
M  END
$$$$
[H]c1c([H])c(N([H])C(=O)N([H])c2c([H])c([H])c(-c3c([H])c([H])c([H])c4c3c(N([H])[H])nn4[H])c([H])c2[H])c([H])c(C(F)(F)F)c1[H]
     RDKit          3D

 46 49  0  0  0  0  0  0  0  0999 V2000
   -4.0605    1.9129   -1.1031 N   0  0  0  0  0  0  0  0  0  0  0  0
   -5.1876    1.2698   -0.5327 C   0  0  0  0  0  0  0  0  0  0  0  0
   -6.4016    1.7605   -0.3192 N   0  0  0  0  0  0  0  0  0  0  0  0
   -7.2039    0.8613    0.1994 N   0  0  0  0  0  0  0  0  0  0  0  0
   -6.4704   -0.3031    0.3380 C   0  0  0  0  0  0  0  0  0  0  0  0
   -6.7958   -1.5060    0.8106 C   0  0  0  0  0  0  0  0  0  0  0  0
   -5.8556   -2.4904    0.8286 C   0  0  0  0  0  0  0  0  0  0  0  0
   -4.5693   -2.2953    0.3774 C   0  0  0  0  0  0  0  0  0  0  0  0
   -4.2178   -1.0216   -0.1193 C   0  0  0  0  0  0  0  0  0  0  0  0
   -2.8099   -0.8608   -0.4208 C   0  0  0  0  0  0  0  0  0  0  0  0
   -2.0375   -0.4096    0.6832 C   0  0  0  0  0  0  0  0  0  0  0  0
   -0.6895   -0.3104    0.5457 C   0  0  0  0  0  0  0  0  0  0  0  0
   -0.0067   -0.6345   -0.6471 C   0  0  0  0  0  0  0  0  0  0  0  0
    1.3907   -0.5482   -0.5047 N   0  0  0  0  0  0  0  0  0  0  0  0
    1.7887    0.8874   -0.1043 C   0  0  0  0  0  0  0  0  0  0  0  0
    0.9493    1.6503   -0.1204 O   0  0  0  0  0  0  0  0  0  0  0  0
    3.1638    0.8899    0.2101 N   0  0  0  0  0  0  0  0  0  0  0  0
    4.4081    0.9399    0.5069 C   0  0  0  0  0  0  0  0  0  0  0  0
    4.9349    1.5635    1.6790 C   0  0  0  0  0  0  0  0  0  0  0  0
    6.2247    1.5729    2.0419 C   0  0  0  0  0  0  0  0  0  0  0  0
    7.1712    0.9453    1.2555 C   0  0  0  0  0  0  0  0  0  0  0  0
    6.7062    0.3255    0.1088 C   0  0  0  0  0  0  0  0  0  0  0  0
    5.4182    0.3089   -0.2627 C   0  0  0  0  0  0  0  0  0  0  0  0
    7.7342   -0.3724   -0.7394 C   0  0  0  0  0  0  0  0  0  0  0  0
    8.0322   -1.5461   -0.0776 F   0  0  0  0  0  0  0  0  0  0  0  0
    8.8902    0.4135   -0.7791 F   0  0  0  0  0  0  0  0  0  0  0  0
    7.1915   -0.5841   -1.9568 F   0  0  0  0  0  0  0  0  0  0  0  0
   -0.7319   -1.0588   -1.6804 C   0  0  0  0  0  0  0  0  0  0  0  0
   -2.1639   -1.1666   -1.5481 C   0  0  0  0  0  0  0  0  0  0  0  0
   -5.1873   -0.0609   -0.1181 C   0  0  0  0  0  0  0  0  0  0  0  0
   -3.2292    2.1105   -0.5134 H   0  0  0  0  0  0  0  0  0  0  0  0
   -4.0237    2.1971   -2.1089 H   0  0  0  0  0  0  0  0  0  0  0  0
   -8.2273    0.9485    0.4785 H   0  0  0  0  0  0  0  0  0  0  0  0
   -7.8111   -1.7421    1.1461 H   0  0  0  0  0  0  0  0  0  0  0  0
   -6.0792   -3.5200    1.1862 H   0  0  0  0  0  0  0  0  0  0  0  0
   -3.8284   -3.0725    0.3704 H   0  0  0  0  0  0  0  0  0  0  0  0
   -2.5564   -0.1900    1.5757 H   0  0  0  0  0  0  0  0  0  0  0  0
   -0.0552    0.0452    1.3850 H   0  0  0  0  0  0  0  0  0  0  0  0
    2.0972   -1.2411   -0.6168 H   0  0  0  0  0  0  0  0  0  0  0  0
    3.0836    2.3140    0.2175 H   0  0  0  0  0  0  0  0  0  0  0  0
    4.1611    2.0733    2.2822 H   0  0  0  0  0  0  0  0  0  0  0  0
    6.5595    2.0812    2.9524 H   0  0  0  0  0  0  0  0  0  0  0  0
    8.2196    0.8905    1.4830 H   0  0  0  0  0  0  0  0  0  0  0  0
    5.0883   -0.1698   -1.1701 H   0  0  0  0  0  0  0  0  0  0  0  0
   -0.3057   -1.3570   -2.6568 H   0  0  0  0  0  0  0  0  0  0  0  0
   -2.7080   -1.5007   -2.3938 H   0  0  0  0  0  0  0  0  0  0  0  0
  1  2  1  0
  2  3  2  0
  3  4  1  0
  4  5  1  0
  5  6  2  0
  6  7  1  0
  7  8  2  0
  8  9  1  0
  9 10  1  0
 10 11  2  0
 11 12  1  0
 12 13  2  0
 13 14  1  0
 14 15  1  0
 15 16  2  0
 15 17  1  0
 17 18  1  0
 18 19  2  0
 19 20  1  0
 20 21  2  0
 21 22  1  0
 22 23  2  0
 22 24  1  0
 24 25  1  0
 24 26  1  0
 24 27  1  0
 13 28  1  0
 28 29  2  0
  9 30  2  0
 30  2  1  0
 30  5  1  0
 29 10  1  0
 23 18  1  0
  1 31  1  0
  1 32  1  0
  4 33  1  0
  6 34  1  0
  7 35  1  0
  8 36  1  0
 11 37  1  0
 12 38  1  0
 14 39  1  0
 17 40  1  0
 19 41  1  0
 20 42  1  0
 21 43  1  0
 23 44  1  0
 28 45  1  0
 29 46  1  0
M  END
$$$$
[H]c1c([H])c(C(=O)N([H])c2nnc(-c3c([H])c([H])c(Oc4c([H])c([H])c([N+](=O)[O-])c([H])c4Br)c([H])c3[H])s2)c([H])c([H])c1Br
     RDKit          3D

 44 47  0  0  0  0  0  0  0  0999 V2000
  -10.3313    0.0711    1.6863 O   0  0  0  0  0  0  0  0  0  0  0  0
   -9.3462    0.9946    1.5745 N   0  0  0  0  0  0  0  0  0  0  0  0
   -9.4532    2.0793    2.1646 O   0  0  0  0  0  0  0  0  0  0  0  0
   -8.1890    0.7346    0.7872 C   0  0  0  0  0  0  0  0  0  0  0  0
   -8.0395   -0.4776    0.1107 C   0  0  0  0  0  0  0  0  0  0  0  0
   -6.9197   -0.7032   -0.6386 C   0  0  0  0  0  0  0  0  0  0  0  0
   -5.9010    0.2470   -0.7566 C   0  0  0  0  0  0  0  0  0  0  0  0
   -4.8371   -0.0717   -1.5190 O   0  0  0  0  0  0  0  0  0  0  0  0
   -3.5073   -0.1669   -1.2345 C   0  0  0  0  0  0  0  0  0  0  0  0
   -3.0139   -1.1728   -0.4169 C   0  0  0  0  0  0  0  0  0  0  0  0
   -1.6547   -1.2837   -0.1202 C   0  0  0  0  0  0  0  0  0  0  0  0
   -0.7622   -0.3798   -0.6435 C   0  0  0  0  0  0  0  0  0  0  0  0
   -1.2779    0.6039   -1.4488 C   0  0  0  0  0  0  0  0  0  0  0  0
   -2.6185    0.7353   -1.7581 C   0  0  0  0  0  0  0  0  0  0  0  0
    0.6829   -0.4430   -0.3678 C   0  0  0  0  0  0  0  0  0  0  0  0
    1.3599   -1.3103    0.3775 N   0  0  0  0  0  0  0  0  0  0  0  0
    2.6095   -1.1967    0.4922 N   0  0  0  0  0  0  0  0  0  0  0  0
    3.2524   -0.2124   -0.1298 C   0  0  0  0  0  0  0  0  0  0  0  0
    4.6492    0.0888   -0.1297 N   0  0  0  0  0  0  0  0  0  0  0  0
    5.5460   -0.7134    0.6025 C   0  0  0  0  0  0  0  0  0  0  0  0
    5.1317   -1.7164    1.2739 O   0  0  0  0  0  0  0  0  0  0  0  0
    6.9608   -0.4071    0.6020 C   0  0  0  0  0  0  0  0  0  0  0  0
    7.8277   -1.3346    1.1779 C   0  0  0  0  0  0  0  0  0  0  0  0
    9.1954   -1.1502    1.2392 C   0  0  0  0  0  0  0  0  0  0  0  0
    9.7325    0.0083    0.7046 C   0  0  0  0  0  0  0  0  0  0  0  0
   11.6227    0.2485    0.7968 Br  0  0  0  0  0  0  0  0  0  0  0  0
    8.9085    0.9493    0.1267 C   0  0  0  0  0  0  0  0  0  0  0  0
    7.5283    0.7298    0.0820 C   0  0  0  0  0  0  0  0  0  0  0  0
    1.9516    0.5734   -0.9141 S   0  0  0  0  0  0  0  0  0  0  0  0
   -6.0594    1.4213   -0.0932 C   0  0  0  0  0  0  0  0  0  0  0  0
   -4.7853    2.8192   -0.1296 Br  0  0  0  0  0  0  0  0  0  0  0  0
   -7.2077    1.6723    0.6845 C   0  0  0  0  0  0  0  0  0  0  0  0
   -8.8447   -1.2000    0.2179 H   0  0  0  0  0  0  0  0  0  0  0  0
   -6.8352   -1.6459   -1.1466 H   0  0  0  0  0  0  0  0  0  0  0  0
   -3.7073   -1.8905    0.0011 H   0  0  0  0  0  0  0  0  0  0  0  0
   -1.2787   -2.0630    0.5123 H   0  0  0  0  0  0  0  0  0  0  0  0
   -0.5502    1.3172   -1.8581 H   0  0  0  0  0  0  0  0  0  0  0  0
   -2.9473    1.5512   -2.4315 H   0  0  0  0  0  0  0  0  0  0  0  0
    4.9939    0.8941   -0.6674 H   0  0  0  0  0  0  0  0  0  0  0  0
    7.4090   -2.2475    1.5992 H   0  0  0  0  0  0  0  0  0  0  0  0
    9.8583   -1.8766    1.6885 H   0  0  0  0  0  0  0  0  0  0  0  0
    9.3005    1.8603   -0.2972 H   0  0  0  0  0  0  0  0  0  0  0  0
    6.8684    1.4616   -0.3673 H   0  0  0  0  0  0  0  0  0  0  0  0
   -7.3218    2.6024    1.2033 H   0  0  0  0  0  0  0  0  0  0  0  0
  1  2  1  0
  2  3  2  0
  2  4  1  0
  4  5  2  0
  5  6  1  0
  6  7  2  0
  7  8  1  0
  8  9  1  0
  9 10  2  0
 10 11  1  0
 11 12  2  0
 12 13  1  0
 13 14  2  0
 12 15  1  0
 15 16  2  0
 16 17  1  0
 17 18  2  0
 18 19  1  0
 19 20  1  0
 20 21  2  0
 20 22  1  0
 22 23  2  0
 23 24  1  0
 24 25  2  0
 25 26  1  0
 25 27  1  0
 27 28  2  0
 18 29  1  0
  7 30  1  0
 30 31  1  0
 30 32  2  0
 32  4  1  0
 14  9  1  0
 29 15  1  0
 28 22  1  0
  5 33  1  0
  6 34  1  0
 10 35  1  0
 11 36  1  0
 13 37  1  0
 14 38  1  0
 19 39  1  0
 23 40  1  0
 24 41  1  0
 27 42  1  0
 28 43  1  0
 32 44  1  0
M  CHG  2   1  -1   2   1
M  END
$$$$
[H]c1nc2c([H])c(C([H])([H])[H])c(-c3c(C([H])(C([H])([H])[H])C([H])([H])[H])c4c([H])c(C5([H])C([H])([H])C([H])([H])N(C([H])([H])c6c([H])nn(C([H])([H])[H])c6[H])C([H])([H])C5([H])[H])c([H])c([H])c4n3[H])c([H])n2n1
     RDKit          3D

 68 73  0  0  0  0  0  0  0  0999 V2000
   -2.2540   -2.2053   -1.2825 C   0  0  0  0  0  0  0  0  0  0  0  0
   -3.2687   -1.4238   -0.5148 C   0  0  0  0  0  0  0  0  0  0  0  0
   -3.4382   -2.1481    0.8717 C   0  0  0  0  0  0  0  0  0  0  0  0
   -2.9694   -0.0369   -0.1908 C   0  0  0  0  0  0  0  0  0  0  0  0
   -3.8967    0.9638    0.1261 C   0  0  0  0  0  0  0  0  0  0  0  0
   -3.1873    2.0385    0.4866 N   0  0  0  0  0  0  0  0  0  0  0  0
   -1.8674    1.7893    0.4160 C   0  0  0  0  0  0  0  0  0  0  0  0
   -0.7986    2.6048    0.6830 C   0  0  0  0  0  0  0  0  0  0  0  0
    0.5057    2.1241    0.5241 C   0  0  0  0  0  0  0  0  0  0  0  0
    0.7301    0.8433    0.1043 C   0  0  0  0  0  0  0  0  0  0  0  0
   -0.3914    0.0503   -0.1536 C   0  0  0  0  0  0  0  0  0  0  0  0
   -1.6859    0.4960   -0.0076 C   0  0  0  0  0  0  0  0  0  0  0  0
    2.0857    0.3264   -0.1026 C   0  0  0  0  0  0  0  0  0  0  0  0
    2.2504   -0.2324   -1.5221 C   0  0  0  0  0  0  0  0  0  0  0  0
    3.6047   -0.8539   -1.5934 C   0  0  0  0  0  0  0  0  0  0  0  0
    4.4581   -0.3624   -0.4714 N   0  0  0  0  0  0  0  0  0  0  0  0
    5.7795   -0.7010   -0.8462 C   0  0  0  0  0  0  0  0  0  0  0  0
    6.8726   -0.2378    0.0079 C   0  0  0  0  0  0  0  0  0  0  0  0
    6.9378    0.4189    1.2024 C   0  0  0  0  0  0  0  0  0  0  0  0
    8.2196    0.5969    1.4995 N   0  0  0  0  0  0  0  0  0  0  0  0
    8.9916    0.0943    0.5657 N   0  0  0  0  0  0  0  0  0  0  0  0
   10.4425    0.0780    0.4939 C   0  0  0  0  0  0  0  0  0  0  0  0
    8.2012   -0.4287   -0.3689 C   0  0  0  0  0  0  0  0  0  0  0  0
    3.9360   -1.1019    0.6730 C   0  0  0  0  0  0  0  0  0  0  0  0
    2.4621   -0.7876    0.8300 C   0  0  0  0  0  0  0  0  0  0  0  0
   -5.3722    0.9122    0.1327 C   0  0  0  0  0  0  0  0  0  0  0  0
   -6.0605    0.2582   -0.8652 C   0  0  0  0  0  0  0  0  0  0  0  0
   -7.3941    0.1566   -0.8027 N   0  0  0  0  0  0  0  0  0  0  0  0
   -8.2846   -0.4108   -1.6237 N   0  0  0  0  0  0  0  0  0  0  0  0
   -9.5221   -0.2473   -1.1311 C   0  0  0  0  0  0  0  0  0  0  0  0
   -9.4138    0.4262    0.0050 N   0  0  0  0  0  0  0  0  0  0  0  0
   -8.1003    0.6729    0.2024 C   0  0  0  0  0  0  0  0  0  0  0  0
   -7.4520    1.3263    1.2029 C   0  0  0  0  0  0  0  0  0  0  0  0
   -6.0612    1.4603    1.1887 C   0  0  0  0  0  0  0  0  0  0  0  0
   -5.4531    2.1707    2.3386 C   0  0  0  0  0  0  0  0  0  0  0  0
   -1.5851   -2.7355   -0.6059 H   0  0  0  0  0  0  0  0  0  0  0  0
   -1.6947   -1.6243   -2.0301 H   0  0  0  0  0  0  0  0  0  0  0  0
   -2.7991   -2.9829   -1.9425 H   0  0  0  0  0  0  0  0  0  0  0  0
   -4.2392   -1.5855   -0.9876 H   0  0  0  0  0  0  0  0  0  0  0  0
   -4.0611   -3.0510    0.7261 H   0  0  0  0  0  0  0  0  0  0  0  0
   -3.9125   -1.3902    1.5182 H   0  0  0  0  0  0  0  0  0  0  0  0
   -2.4222   -2.4449    1.1692 H   0  0  0  0  0  0  0  0  0  0  0  0
   -3.5672    2.9889    0.7822 H   0  0  0  0  0  0  0  0  0  0  0  0
   -0.9363    3.6130    1.0124 H   0  0  0  0  0  0  0  0  0  0  0  0
    1.3236    2.7894    0.7418 H   0  0  0  0  0  0  0  0  0  0  0  0
   -0.1969   -0.9411   -0.4641 H   0  0  0  0  0  0  0  0  0  0  0  0
    2.8639    1.1274    0.0143 H   0  0  0  0  0  0  0  0  0  0  0  0
    2.0862    0.5790   -2.2691 H   0  0  0  0  0  0  0  0  0  0  0  0
    1.4378   -0.9787   -1.6530 H   0  0  0  0  0  0  0  0  0  0  0  0
    3.5027   -1.9428   -1.4151 H   0  0  0  0  0  0  0  0  0  0  0  0
    4.1127   -0.7477   -2.5545 H   0  0  0  0  0  0  0  0  0  0  0  0
    5.9545   -0.2281   -1.8617 H   0  0  0  0  0  0  0  0  0  0  0  0
    5.8602   -1.8103   -1.0673 H   0  0  0  0  0  0  0  0  0  0  0  0
    6.0527    0.7236    1.7639 H   0  0  0  0  0  0  0  0  0  0  0  0
   10.8642   -0.9317    0.5601 H   0  0  0  0  0  0  0  0  0  0  0  0
   10.7075    0.4401   -0.5457 H   0  0  0  0  0  0  0  0  0  0  0  0
   10.9205    0.7044    1.2549 H   0  0  0  0  0  0  0  0  0  0  0  0
    8.5461   -0.9157   -1.2703 H   0  0  0  0  0  0  0  0  0  0  0  0
    4.4734   -0.9721    1.6014 H   0  0  0  0  0  0  0  0  0  0  0  0
    4.0334   -2.1869    0.3739 H   0  0  0  0  0  0  0  0  0  0  0  0
    2.2292   -0.4981    1.8813 H   0  0  0  0  0  0  0  0  0  0  0  0
    1.8541   -1.6991    0.5895 H   0  0  0  0  0  0  0  0  0  0  0  0
   -5.5502   -0.1437   -1.7465 H   0  0  0  0  0  0  0  0  0  0  0  0
  -10.4618   -0.6032   -1.5766 H   0  0  0  0  0  0  0  0  0  0  0  0
   -7.9902    1.7748    2.0566 H   0  0  0  0  0  0  0  0  0  0  0  0
   -6.1247    1.9965    3.2237 H   0  0  0  0  0  0  0  0  0  0  0  0
   -5.4110    3.2736    2.1960 H   0  0  0  0  0  0  0  0  0  0  0  0
   -4.4764    1.7728    2.6460 H   0  0  0  0  0  0  0  0  0  0  0  0
  1  2  1  0
  2  3  1  0
  2  4  1  0
  4  5  2  0
  5  6  1  0
  6  7  1  0
  7  8  2  0
  8  9  1  0
  9 10  2  0
 10 11  1  0
 11 12  2  0
 10 13  1  0
 13 14  1  0
 14 15  1  0
 15 16  1  0
 16 17  1  0
 17 18  1  0
 18 19  1  0
 19 20  2  0
 20 21  1  0
 21 22  1  0
 21 23  1  0
 16 24  1  0
 24 25  1  0
  5 26  1  0
 26 27  2  0
 27 28  1  0
 28 29  1  0
 29 30  2  0
 30 31  1  0
 31 32  2  0
 32 33  1  0
 33 34  2  0
 34 35  1  0
 12  4  1  0
 25 13  1  0
 34 26  1  0
 12  7  1  0
 23 18  2  0
 32 28  1  0
  1 36  1  0
  1 37  1  0
  1 38  1  0
  2 39  1  0
  3 40  1  0
  3 41  1  0
  3 42  1  0
  6 43  1  0
  8 44  1  0
  9 45  1  0
 11 46  1  0
 13 47  1  0
 14 48  1  0
 14 49  1  0
 15 50  1  0
 15 51  1  0
 17 52  1  0
 17 53  1  0
 19 54  1  0
 22 55  1  0
 22 56  1  0
 22 57  1  0
 23 58  1  0
 24 59  1  0
 24 60  1  0
 25 61  1  0
 25 62  1  0
 27 63  1  0
 30 64  1  0
 33 65  1  0
 35 66  1  0
 35 67  1  0
 35 68  1  0
M  END
$$$$
[H]OC(=O)C([H])([H])C([H])(C(=O)C([H])([H])F)N([H])C(=O)[C@@]([H])(N([H])C(=O)OC([H])([H])c1c([H])c([H])c([H])c([H])c1[H])C([H])(C([H])([H])[H])C([H])([H])[H]
     RDKit          3D

 50 50  0  0  0  0  0  0  0  0999 V2000
    1.7723   -2.4070    0.2860 C   0  0  0  0  0  0  0  0  0  0  0  0
    0.4374   -1.9519    0.8431 C   0  0  0  0  0  0  0  0  0  0  0  0
    0.3678   -2.0594    2.3436 C   0  0  0  0  0  0  0  0  0  0  0  0
    0.0436   -0.6028    0.3349 C   0  0  2  0  0  0  0  0  0  0  0  0
    1.0157    0.4111    0.6914 N   0  0  0  0  0  0  0  0  0  0  0  0
    1.7075    1.2085   -0.2319 C   0  0  0  0  0  0  0  0  0  0  0  0
    1.5008    1.0702   -1.4531 O   0  0  0  0  0  0  0  0  0  0  0  0
    2.6150    2.1460    0.1928 O   0  0  0  0  0  0  0  0  0  0  0  0
    3.3607    2.9997   -0.6323 C   0  0  0  0  0  0  0  0  0  0  0  0
    4.2496    2.3052   -1.5878 C   0  0  0  0  0  0  0  0  0  0  0  0
    4.7958    2.9760   -2.6762 C   0  0  0  0  0  0  0  0  0  0  0  0
    5.6229    2.3409   -3.5640 C   0  0  0  0  0  0  0  0  0  0  0  0
    5.9457    1.0202   -3.4159 C   0  0  0  0  0  0  0  0  0  0  0  0
    5.4278    0.3306   -2.3589 C   0  0  0  0  0  0  0  0  0  0  0  0
    4.5894    0.9764   -1.4601 C   0  0  0  0  0  0  0  0  0  0  0  0
   -1.3240   -0.2245    0.7018 C   0  0  0  0  0  0  0  0  0  0  0  0
   -1.4869    0.9031    1.2602 O   0  0  0  0  0  0  0  0  0  0  0  0
   -2.4637   -1.0226    0.4772 N   0  0  0  0  0  0  0  0  0  0  0  0
   -3.8277   -0.6171    0.8486 C   0  0  0  0  0  0  0  0  0  0  0  0
   -4.2535   -1.6032    1.9133 C   0  0  0  0  0  0  0  0  0  0  0  0
   -5.5974   -1.4154    2.4478 C   0  0  0  0  0  0  0  0  0  0  0  0
   -5.8553   -0.4125    3.3579 O   0  0  0  0  0  0  0  0  0  0  0  0
   -6.5289   -2.1684    2.0808 O   0  0  0  0  0  0  0  0  0  0  0  0
   -4.6927   -0.5982   -0.3509 C   0  0  0  0  0  0  0  0  0  0  0  0
   -4.2933   -1.0822   -1.4322 O   0  0  0  0  0  0  0  0  0  0  0  0
   -6.0632   -0.0314   -0.4266 C   0  0  0  0  0  0  0  0  0  0  0  0
   -5.8930    1.2267   -1.0518 F   0  0  0  0  0  0  0  0  0  0  0  0
    2.5229   -2.6064    1.0710 H   0  0  0  0  0  0  0  0  0  0  0  0
    2.1452   -1.6151   -0.4000 H   0  0  0  0  0  0  0  0  0  0  0  0
    1.6660   -3.3300   -0.3184 H   0  0  0  0  0  0  0  0  0  0  0  0
   -0.3223   -2.6861    0.4576 H   0  0  0  0  0  0  0  0  0  0  0  0
    0.2238   -1.0323    2.7702 H   0  0  0  0  0  0  0  0  0  0  0  0
   -0.5226   -2.6456    2.6939 H   0  0  0  0  0  0  0  0  0  0  0  0
    1.2556   -2.5619    2.7709 H   0  0  0  0  0  0  0  0  0  0  0  0
    0.0637   -0.6379   -0.7942 H   0  0  0  0  0  0  0  0  0  0  0  0
    1.2042    0.5469    1.7055 H   0  0  0  0  0  0  0  0  0  0  0  0
    2.6492    3.6587   -1.1987 H   0  0  0  0  0  0  0  0  0  0  0  0
    3.9791    3.6495    0.0547 H   0  0  0  0  0  0  0  0  0  0  0  0
    4.5370    4.0281   -2.7913 H   0  0  0  0  0  0  0  0  0  0  0  0
    6.0228    2.8970   -4.3918 H   0  0  0  0  0  0  0  0  0  0  0  0
    6.5976    0.5146   -4.1145 H   0  0  0  0  0  0  0  0  0  0  0  0
    5.6698   -0.7011   -2.2307 H   0  0  0  0  0  0  0  0  0  0  0  0
    4.2052    0.3769   -0.6327 H   0  0  0  0  0  0  0  0  0  0  0  0
   -2.3513   -1.9434    0.0301 H   0  0  0  0  0  0  0  0  0  0  0  0
   -3.8572    0.3899    1.3051 H   0  0  0  0  0  0  0  0  0  0  0  0
   -4.0560   -2.6456    1.5722 H   0  0  0  0  0  0  0  0  0  0  0  0
   -3.5434   -1.4184    2.7747 H   0  0  0  0  0  0  0  0  0  0  0  0
   -6.0170    0.5454    3.0582 H   0  0  0  0  0  0  0  0  0  0  0  0
   -6.5200    0.1820    0.5486 H   0  0  0  0  0  0  0  0  0  0  0  0
   -6.7245   -0.6257   -1.0780 H   0  0  0  0  0  0  0  0  0  0  0  0
  1  2  1  0
  2  3  1  0
  2  4  1  0
  4  5  1  0
  5  6  1  0
  6  7  2  0
  6  8  1  0
  8  9  1  0
  9 10  1  0
 10 11  2  0
 11 12  1  0
 12 13  2  0
 13 14  1  0
 14 15  2  0
  4 16  1  0
 16 17  2  0
 16 18  1  0
 18 19  1  0
 19 20  1  0
 20 21  1  0
 21 22  1  0
 21 23  2  0
 19 24  1  0
 24 25  2  0
 24 26  1  0
 26 27  1  0
 15 10  1  0
  1 28  1  0
  1 29  1  0
  1 30  1  0
  2 31  1  0
  3 32  1  0
  3 33  1  0
  3 34  1  0
  4 35  1  6
  5 36  1  0
  9 37  1  0
  9 38  1  0
 11 39  1  0
 12 40  1  0
 13 41  1  0
 14 42  1  0
 15 43  1  0
 18 44  1  0
 19 45  1  0
 20 46  1  0
 20 47  1  0
 22 48  1  0
 26 49  1  0
 26 50  1  0
M  END
$$$$
[H]C1=C([H])C([H])(F)C([H])([H])C([H])=C1N([H])C(=O)C1(C(=O)N([H])c2c([H])c([H])c(Oc3c([H])c([H])nc4c([H])c(OC([H])([H])C([H])([H])C([H])([H])N5C([H])([H])C([H])([H])OC([H])([H])C5([H])[H])c(OC([H])([H])[H])c([H])c34)c(F)c2[H])C([H])([H])C1([H])[H]
     RDKit          3D

 82 87  0  0  0  0  0  0  0  0999 V2000
    3.9666    3.0495   -1.7322 C   0  0  0  0  0  0  0  0  0  0  0  0
    4.8184    1.9472   -1.5191 O   0  0  0  0  0  0  0  0  0  0  0  0
    4.2779    0.7150   -1.2054 C   0  0  0  0  0  0  0  0  0  0  0  0
    2.9355    0.4830   -1.0834 C   0  0  0  0  0  0  0  0  0  0  0  0
    2.5057   -0.7878   -0.7673 C   0  0  0  0  0  0  0  0  0  0  0  0
    1.1302   -1.0757   -0.6337 C   0  0  0  0  0  0  0  0  0  0  0  0
    0.2693   -0.0306   -0.8259 O   0  0  0  0  0  0  0  0  0  0  0  0
   -1.0898   -0.1642   -0.6451 C   0  0  0  0  0  0  0  0  0  0  0  0
   -1.9847   -0.0120   -1.6950 C   0  0  0  0  0  0  0  0  0  0  0  0
   -3.3381   -0.1282   -1.5809 C   0  0  0  0  0  0  0  0  0  0  0  0
   -3.8905   -0.4214   -0.3289 C   0  0  0  0  0  0  0  0  0  0  0  0
   -5.3238   -0.4986   -0.2135 N   0  0  0  0  0  0  0  0  0  0  0  0
   -5.9613   -1.3830    0.6262 C   0  0  0  0  0  0  0  0  0  0  0  0
   -5.1921   -2.1849    1.2964 O   0  0  0  0  0  0  0  0  0  0  0  0
   -7.4011   -1.5958    0.9101 C   0  0  0  0  0  0  0  0  0  0  0  0
   -7.6820   -2.4618    2.1265 C   0  0  0  0  0  0  0  0  0  0  0  0
   -7.8126   -3.1190    0.8294 C   0  0  0  0  0  0  0  0  0  0  0  0
   -8.4706   -0.6963    0.4763 C   0  0  0  0  0  0  0  0  0  0  0  0
   -9.6747   -1.1656    0.7176 O   0  0  0  0  0  0  0  0  0  0  0  0
   -8.4814    0.5528   -0.1324 N   0  0  0  0  0  0  0  0  0  0  0  0
   -9.7446    1.2195   -0.4499 C   0  0  0  0  0  0  0  0  0  0  0  0
   -9.9496    2.4040    0.0799 C   0  0  0  0  0  0  0  0  0  0  0  0
  -11.1350    3.2347   -0.1097 C   0  0  0  0  0  0  0  0  0  0  0  0
  -12.2008    2.6387   -0.9439 C   0  0  0  0  0  0  0  0  0  0  0  0
  -12.4721    3.4850   -2.0494 F   0  0  0  0  0  0  0  0  0  0  0  0
  -11.8730    1.3187   -1.4859 C   0  0  0  0  0  0  0  0  0  0  0  0
  -10.7586    0.6480   -1.2759 C   0  0  0  0  0  0  0  0  0  0  0  0
   -3.0432   -0.5784    0.7341 C   0  0  0  0  0  0  0  0  0  0  0  0
   -1.6522   -0.4525    0.5863 C   0  0  0  0  0  0  0  0  0  0  0  0
   -0.8827   -0.5957    1.6903 F   0  0  0  0  0  0  0  0  0  0  0  0
    0.7223   -2.3515   -0.3227 C   0  0  0  0  0  0  0  0  0  0  0  0
    1.6378   -3.3635   -0.1352 C   0  0  0  0  0  0  0  0  0  0  0  0
    2.9451   -3.0865   -0.2619 N   0  0  0  0  0  0  0  0  0  0  0  0
    3.3732   -1.8309   -0.5703 C   0  0  0  0  0  0  0  0  0  0  0  0
    4.7330   -1.5901   -0.6954 C   0  0  0  0  0  0  0  0  0  0  0  0
    5.1920   -0.3333   -1.0085 C   0  0  0  0  0  0  0  0  0  0  0  0
    6.5206   -0.0853   -1.1253 O   0  0  0  0  0  0  0  0  0  0  0  0
    7.5310   -0.9938   -0.8772 C   0  0  0  0  0  0  0  0  0  0  0  0
    7.6262   -1.3701    0.5948 C   0  0  0  0  0  0  0  0  0  0  0  0
    7.9359   -0.0985    1.3961 C   0  0  0  0  0  0  0  0  0  0  0  0
    9.1945    0.4265    0.9288 N   0  0  0  0  0  0  0  0  0  0  0  0
    9.4053    1.7864    1.4776 C   0  0  0  0  0  0  0  0  0  0  0  0
   10.8161    2.1639    1.0165 C   0  0  0  0  0  0  0  0  0  0  0  0
   11.2632    1.3549   -0.0281 O   0  0  0  0  0  0  0  0  0  0  0  0
   11.4615    0.0232    0.3872 C   0  0  0  0  0  0  0  0  0  0  0  0
   10.3466   -0.3576    1.3702 C   0  0  0  0  0  0  0  0  0  0  0  0
    4.5770    3.9509   -1.9692 H   0  0  0  0  0  0  0  0  0  0  0  0
    3.3066    3.2216   -0.8582 H   0  0  0  0  0  0  0  0  0  0  0  0
    3.3086    2.7911   -2.5987 H   0  0  0  0  0  0  0  0  0  0  0  0
    2.2243    1.2761   -1.2311 H   0  0  0  0  0  0  0  0  0  0  0  0
   -1.5528    0.2161   -2.6750 H   0  0  0  0  0  0  0  0  0  0  0  0
   -4.0246   -0.0039   -2.4200 H   0  0  0  0  0  0  0  0  0  0  0  0
   -5.8260    0.1518   -0.8369 H   0  0  0  0  0  0  0  0  0  0  0  0
   -6.8106   -2.7138    2.7607 H   0  0  0  0  0  0  0  0  0  0  0  0
   -8.5985   -2.2800    2.7131 H   0  0  0  0  0  0  0  0  0  0  0  0
   -7.0275   -3.7752    0.4011 H   0  0  0  0  0  0  0  0  0  0  0  0
   -8.7992   -3.3162    0.3639 H   0  0  0  0  0  0  0  0  0  0  0  0
   -7.6334    1.0911   -0.3743 H   0  0  0  0  0  0  0  0  0  0  0  0
   -9.1652    2.8388    0.7401 H   0  0  0  0  0  0  0  0  0  0  0  0
  -11.5358    3.5321    0.9159 H   0  0  0  0  0  0  0  0  0  0  0  0
  -10.8538    4.2484   -0.5572 H   0  0  0  0  0  0  0  0  0  0  0  0
  -13.1586    2.5647   -0.3407 H   0  0  0  0  0  0  0  0  0  0  0  0
  -12.6648    0.8691   -2.1323 H   0  0  0  0  0  0  0  0  0  0  0  0
  -10.6018   -0.3227   -1.7168 H   0  0  0  0  0  0  0  0  0  0  0  0
   -3.4037   -0.7893    1.7394 H   0  0  0  0  0  0  0  0  0  0  0  0
   -0.3200   -2.5956   -0.2356 H   0  0  0  0  0  0  0  0  0  0  0  0
    1.2680   -4.3480    0.1079 H   0  0  0  0  0  0  0  0  0  0  0  0
    5.3620   -2.4538   -0.5623 H   0  0  0  0  0  0  0  0  0  0  0  0
    7.4424   -1.9223   -1.5038 H   0  0  0  0  0  0  0  0  0  0  0  0
    8.4920   -0.5348   -1.2249 H   0  0  0  0  0  0  0  0  0  0  0  0
    6.7751   -1.8921    1.0071 H   0  0  0  0  0  0  0  0  0  0  0  0
    8.4922   -2.0400    0.6815 H   0  0  0  0  0  0  0  0  0  0  0  0
    7.1233    0.6400    1.3255 H   0  0  0  0  0  0  0  0  0  0  0  0
    8.0487   -0.4301    2.4644 H   0  0  0  0  0  0  0  0  0  0  0  0
    9.4079    1.7624    2.5778 H   0  0  0  0  0  0  0  0  0  0  0  0
    8.6320    2.4413    1.0296 H   0  0  0  0  0  0  0  0  0  0  0  0
   11.5508    2.0414    1.8480 H   0  0  0  0  0  0  0  0  0  0  0  0
   10.8264    3.2054    0.6080 H   0  0  0  0  0  0  0  0  0  0  0  0
   11.3001   -0.6008   -0.5146 H   0  0  0  0  0  0  0  0  0  0  0  0
   12.4569   -0.1361    0.8078 H   0  0  0  0  0  0  0  0  0  0  0  0
   10.1090   -1.3943    1.4038 H   0  0  0  0  0  0  0  0  0  0  0  0
   10.6797    0.0679    2.3647 H   0  0  0  0  0  0  0  0  0  0  0  0
  1  2  1  0
  2  3  1  0
  3  4  2  0
  4  5  1  0
  5  6  2  0
  6  7  1  0
  7  8  1  0
  8  9  2  0
  9 10  1  0
 10 11  2  0
 11 12  1  0
 12 13  1  0
 13 14  2  0
 13 15  1  0
 15 16  1  0
 16 17  1  0
 15 18  1  0
 18 19  2  0
 18 20  1  0
 20 21  1  0
 21 22  2  0
 22 23  1  0
 23 24  1  0
 24 25  1  0
 24 26  1  0
 26 27  2  0
 11 28  1  0
 28 29  2  0
 29 30  1  0
  6 31  1  0
 31 32  2  0
 32 33  1  0
 33 34  2  0
 34 35  1  0
 35 36  2  0
 36 37  1  0
 37 38  1  0
 38 39  1  0
 39 40  1  0
 40 41  1  0
 41 42  1  0
 42 43  1  0
 43 44  1  0
 44 45  1  0
 45 46  1  0
 36  3  1  0
 46 41  1  0
 34  5  1  0
 29  8  1  0
 17 15  1  0
 27 21  1  0
  1 47  1  0
  1 48  1  0
  1 49  1  0
  4 50  1  0
  9 51  1  0
 10 52  1  0
 12 53  1  0
 16 54  1  0
 16 55  1  0
 17 56  1  0
 17 57  1  0
 20 58  1  0
 22 59  1  0
 23 60  1  0
 23 61  1  0
 24 62  1  0
 26 63  1  0
 27 64  1  0
 28 65  1  0
 31 66  1  0
 32 67  1  0
 35 68  1  0
 38 69  1  0
 38 70  1  0
 39 71  1  0
 39 72  1  0
 40 73  1  0
 40 74  1  0
 42 75  1  0
 42 76  1  0
 43 77  1  0
 43 78  1  0
 45 79  1  0
 45 80  1  0
 46 81  1  0
 46 82  1  0
M  END
$$$$
[H]Oc1c([H])c([H])c(C([H])([H])[C@@]2([H])C(=O)N([H])[C@@]([H])(C([H])([H])c3c([H])n([H])c4c([H])c([H])c([H])c([H])c34)C(=O)N3C([H])([H])C([H])([H])C([H])([H])[C@@]3([H])C(=O)N([H])[C@@]([H])(C([H])([H])c3c([H])n([H])c4c([H])c([H])c([H])c([H])c34)C(=O)N([H])[C@@]([H])(C([H])(C([H])([H])[H])C([H])([H])[H])C(=O)N2[H])c([H])c1[H]
     RDKit          3D

 99105  0  0  0  0  0  0  0  0999 V2000
    3.0849    4.8766    1.2331 C   0  0  0  0  0  0  0  0  0  0  0  0
    3.1913    3.7572    0.2495 C   0  0  0  0  0  0  0  0  0  0  0  0
    3.4438    4.2154   -1.1664 C   0  0  0  0  0  0  0  0  0  0  0  0
    1.9668    2.8245    0.3355 C   0  0  2  0  0  0  0  0  0  0  0  0
    2.1008    1.7776   -0.6167 N   0  0  0  0  0  0  0  0  0  0  0  0
    2.7200    0.5187   -0.4640 C   0  0  0  0  0  0  0  0  0  0  0  0
    3.1510   -0.0359   -1.5087 O   0  0  0  0  0  0  0  0  0  0  0  0
    2.9048   -0.2034    0.8189 C   0  0  2  0  0  0  0  0  0  0  0  0
    3.8346   -1.3865    0.7121 C   0  0  0  0  0  0  0  0  0  0  0  0
    5.2042   -1.0243    0.2824 C   0  0  0  0  0  0  0  0  0  0  0  0
    5.7805    0.2004    0.0671 C   0  0  0  0  0  0  0  0  0  0  0  0
    7.0576    0.0233   -0.3111 N   0  0  0  0  0  0  0  0  0  0  0  0
    7.3409   -1.3038   -0.3510 C   0  0  0  0  0  0  0  0  0  0  0  0
    8.4925   -1.9759   -0.6751 C   0  0  0  0  0  0  0  0  0  0  0  0
    8.5189   -3.3476   -0.6369 C   0  0  0  0  0  0  0  0  0  0  0  0
    7.3534   -4.0087   -0.2637 C   0  0  0  0  0  0  0  0  0  0  0  0
    6.2041   -3.3533    0.0604 C   0  0  0  0  0  0  0  0  0  0  0  0
    6.1834   -1.9563    0.0196 C   0  0  0  0  0  0  0  0  0  0  0  0
    1.6888   -0.4585    1.5106 N   0  0  0  0  0  0  0  0  0  0  0  0
    0.8467   -1.5557    1.5802 C   0  0  0  0  0  0  0  0  0  0  0  0
    0.4122   -1.8099    2.7887 O   0  0  0  0  0  0  0  0  0  0  0  0
    0.3186   -2.5035    0.6511 C   0  0  2  0  0  0  0  0  0  0  0  0
    0.4529   -2.3694   -0.7970 C   0  0  0  0  0  0  0  0  0  0  0  0
   -0.4999   -3.4663   -1.3067 C   0  0  0  0  0  0  0  0  0  0  0  0
   -1.0775   -4.0782   -0.0186 C   0  0  0  0  0  0  0  0  0  0  0  0
   -1.1142   -2.8373    0.7814 N   0  0  0  0  0  0  0  0  0  0  0  0
   -2.1053   -2.1513    1.4685 C   0  0  0  0  0  0  0  0  0  0  0  0
   -2.5046   -2.7603    2.5532 O   0  0  0  0  0  0  0  0  0  0  0  0
   -2.7983   -0.8882    1.2358 C   0  0  2  0  0  0  0  0  0  0  0  0
   -4.2814   -1.0442    0.9867 C   0  0  0  0  0  0  0  0  0  0  0  0
   -4.6867   -1.8180   -0.1741 C   0  0  0  0  0  0  0  0  0  0  0  0
   -4.8260   -1.2268   -1.4446 C   0  0  0  0  0  0  0  0  0  0  0  0
   -5.1422   -2.2032   -2.2925 N   0  0  0  0  0  0  0  0  0  0  0  0
   -5.2195   -3.3876   -1.6610 C   0  0  0  0  0  0  0  0  0  0  0  0
   -5.5373   -4.6429   -2.1589 C   0  0  0  0  0  0  0  0  0  0  0  0
   -5.5720   -5.6925   -1.2895 C   0  0  0  0  0  0  0  0  0  0  0  0
   -5.2932   -5.4750    0.0433 C   0  0  0  0  0  0  0  0  0  0  0  0
   -4.9806   -4.2398    0.5275 C   0  0  0  0  0  0  0  0  0  0  0  0
   -4.9349   -3.1590   -0.3224 C   0  0  0  0  0  0  0  0  0  0  0  0
   -2.3240   -0.1638    0.0646 N   0  0  0  0  0  0  0  0  0  0  0  0
   -2.0506    1.1754   -0.0970 C   0  0  0  0  0  0  0  0  0  0  0  0
   -2.5454    1.7305   -1.1538 O   0  0  0  0  0  0  0  0  0  0  0  0
   -1.2706    2.1034    0.7464 C   0  0  2  0  0  0  0  0  0  0  0  0
   -2.1913    2.8865    1.6399 C   0  0  0  0  0  0  0  0  0  0  0  0
   -3.1805    3.7213    0.9287 C   0  0  0  0  0  0  0  0  0  0  0  0
   -4.4521    3.2926    0.6141 C   0  0  0  0  0  0  0  0  0  0  0  0
   -5.3439    4.0973   -0.0482 C   0  0  0  0  0  0  0  0  0  0  0  0
   -4.9932    5.3646   -0.4205 C   0  0  0  0  0  0  0  0  0  0  0  0
   -5.8619    6.2353   -1.1008 O   0  0  0  0  0  0  0  0  0  0  0  0
   -3.7273    5.7959   -0.1088 C   0  0  0  0  0  0  0  0  0  0  0  0
   -2.8125    5.0169    0.5522 C   0  0  0  0  0  0  0  0  0  0  0  0
   -0.5675    3.0884   -0.0719 N   0  0  0  0  0  0  0  0  0  0  0  0
    0.7189    3.5710    0.0685 C   0  0  0  0  0  0  0  0  0  0  0  0
    0.8621    4.8409   -0.0473 O   0  0  0  0  0  0  0  0  0  0  0  0
    2.2760    4.6363    1.9589 H   0  0  0  0  0  0  0  0  0  0  0  0
    4.0130    4.9621    1.8317 H   0  0  0  0  0  0  0  0  0  0  0  0
    2.9422    5.8772    0.7662 H   0  0  0  0  0  0  0  0  0  0  0  0
    4.1000    3.1520    0.5406 H   0  0  0  0  0  0  0  0  0  0  0  0
    4.5443    4.4289   -1.2450 H   0  0  0  0  0  0  0  0  0  0  0  0
    2.8397    5.0661   -1.4824 H   0  0  0  0  0  0  0  0  0  0  0  0
    3.2734    3.3084   -1.8170 H   0  0  0  0  0  0  0  0  0  0  0  0
    1.9407    2.5329    1.3969 H   0  0  0  0  0  0  0  0  0  0  0  0
    1.6713    1.9856   -1.5760 H   0  0  0  0  0  0  0  0  0  0  0  0
    3.5266    0.5384    1.4336 H   0  0  0  0  0  0  0  0  0  0  0  0
    3.8628   -1.9375    1.6792 H   0  0  0  0  0  0  0  0  0  0  0  0
    3.4666   -2.0719   -0.0976 H   0  0  0  0  0  0  0  0  0  0  0  0
    5.3066    1.1405    0.1775 H   0  0  0  0  0  0  0  0  0  0  0  0
    7.7569    0.7614   -0.5465 H   0  0  0  0  0  0  0  0  0  0  0  0
    9.3703   -1.4226   -0.9581 H   0  0  0  0  0  0  0  0  0  0  0  0
    9.4242   -3.8773   -0.8922 H   0  0  0  0  0  0  0  0  0  0  0  0
    7.3568   -5.1074   -0.2278 H   0  0  0  0  0  0  0  0  0  0  0  0
    5.2839   -3.8567    0.3545 H   0  0  0  0  0  0  0  0  0  0  0  0
    1.3548    0.3749    2.1104 H   0  0  0  0  0  0  0  0  0  0  0  0
    0.8254   -3.5055    0.9225 H   0  0  0  0  0  0  0  0  0  0  0  0
    1.4531   -2.6766   -1.2006 H   0  0  0  0  0  0  0  0  0  0  0  0
    0.1045   -1.4259   -1.2220 H   0  0  0  0  0  0  0  0  0  0  0  0
   -1.3277   -3.0499   -1.8839 H   0  0  0  0  0  0  0  0  0  0  0  0
    0.0213   -4.2555   -1.8607 H   0  0  0  0  0  0  0  0  0  0  0  0
   -1.9780   -4.6193   -0.1377 H   0  0  0  0  0  0  0  0  0  0  0  0
   -0.3110   -4.7172    0.4742 H   0  0  0  0  0  0  0  0  0  0  0  0
   -2.7375   -0.2052    2.1407 H   0  0  0  0  0  0  0  0  0  0  0  0
   -4.7636   -0.0463    0.9428 H   0  0  0  0  0  0  0  0  0  0  0  0
   -4.7035   -1.5132    1.9236 H   0  0  0  0  0  0  0  0  0  0  0  0
   -4.7020   -0.1792   -1.6963 H   0  0  0  0  0  0  0  0  0  0  0  0
   -5.3087   -2.0653   -3.3189 H   0  0  0  0  0  0  0  0  0  0  0  0
   -5.7472   -4.7487   -3.2220 H   0  0  0  0  0  0  0  0  0  0  0  0
   -5.8223   -6.6733   -1.6905 H   0  0  0  0  0  0  0  0  0  0  0  0
   -5.3401   -6.3590    0.6817 H   0  0  0  0  0  0  0  0  0  0  0  0
   -4.7763   -4.0737    1.5677 H   0  0  0  0  0  0  0  0  0  0  0  0
   -2.1926   -0.8006   -0.7822 H   0  0  0  0  0  0  0  0  0  0  0  0
   -0.5672    1.5709    1.4203 H   0  0  0  0  0  0  0  0  0  0  0  0
   -1.5787    3.5233    2.3482 H   0  0  0  0  0  0  0  0  0  0  0  0
   -2.7805    2.2295    2.3189 H   0  0  0  0  0  0  0  0  0  0  0  0
   -4.7858    2.2887    0.8930 H   0  0  0  0  0  0  0  0  0  0  0  0
   -6.3513    3.7745   -0.3039 H   0  0  0  0  0  0  0  0  0  0  0  0
   -6.4787    6.8655   -0.6178 H   0  0  0  0  0  0  0  0  0  0  0  0
   -3.4108    6.7963   -0.3880 H   0  0  0  0  0  0  0  0  0  0  0  0
   -1.8199    5.3329    0.8112 H   0  0  0  0  0  0  0  0  0  0  0  0
   -1.1701    3.4545   -0.8727 H   0  0  0  0  0  0  0  0  0  0  0  0
  1  2  1  0
  2  3  1  0
  2  4  1  0
  4  5  1  0
  5  6  1  0
  6  7  2  0
  6  8  1  0
  8  9  1  0
  9 10  1  0
 10 11  2  0
 11 12  1  0
 12 13  1  0
 13 14  2  0
 14 15  1  0
 15 16  2  0
 16 17  1  0
 17 18  2  0
  8 19  1  0
 19 20  1  0
 20 21  2  0
 20 22  1  0
 22 23  1  0
 23 24  1  0
 24 25  1  0
 25 26  1  0
 26 27  1  0
 27 28  2  0
 27 29  1  0
 29 30  1  0
 30 31  1  0
 31 32  2  0
 32 33  1  0
 33 34  1  0
 34 35  2  0
 35 36  1  0
 36 37  2  0
 37 38  1  0
 38 39  2  0
 29 40  1  0
 40 41  1  0
 41 42  2  0
 41 43  1  0
 43 44  1  0
 44 45  1  0
 45 46  2  0
 46 47  1  0
 47 48  2  0
 48 49  1  0
 48 50  1  0
 50 51  2  0
 43 52  1  0
 52 53  1  0
 53 54  2  0
 53  4  1  0
 18 10  1  0
 26 22  1  0
 39 31  1  0
 51 45  1  0
 18 13  1  0
 39 34  1  0
  1 55  1  0
  1 56  1  0
  1 57  1  0
  2 58  1  0
  3 59  1  0
  3 60  1  0
  3 61  1  0
  4 62  1  1
  5 63  1  0
  8 64  1  1
  9 65  1  0
  9 66  1  0
 11 67  1  0
 12 68  1  0
 14 69  1  0
 15 70  1  0
 16 71  1  0
 17 72  1  0
 19 73  1  0
 22 74  1  1
 23 75  1  0
 23 76  1  0
 24 77  1  0
 24 78  1  0
 25 79  1  0
 25 80  1  0
 29 81  1  1
 30 82  1  0
 30 83  1  0
 32 84  1  0
 33 85  1  0
 35 86  1  0
 36 87  1  0
 37 88  1  0
 38 89  1  0
 40 90  1  0
 43 91  1  1
 44 92  1  0
 44 93  1  0
 46 94  1  0
 47 95  1  0
 49 96  1  0
 50 97  1  0
 51 98  1  0
 52 99  1  0
M  END
$$$$
[H]OC(=O)C([H])([H])[C@@]([H])(C(=O)O[H])N([H])C(=O)[C@@]([H])(N([H])C(=O)C([H])([H])[C@]([H])(O[H])[C@@]([H])(N([H])C(=O)[C@@]([H])(N([H])C(=O)[C@@]([H])(N([H])C(=O)C([H])([H])C([H])(C([H])([H])[H])C([H])([H])[H])C([H])(C([H])([H])[H])C([H])([H])[H])C([H])(C([H])([H])[H])C([H])([H])[H])C([H])([H])C([H])(C([H])([H])[H])C([H])([H])[H])[C@@]([H])(C([H])([H])[H])C([H])([H])C([H])([H])[H]
     RDKit          3D

107106  0  0  0  0  0  0  0  0999 V2000
   -8.4275   -3.5309   -1.3949 C   0  0  0  0  0  0  0  0  0  0  0  0
   -7.2552   -2.5635   -1.2877 C   0  0  0  0  0  0  0  0  0  0  0  0
   -7.6753   -1.2850   -0.6278 C   0  0  2  0  0  0  0  0  0  0  0  0
   -8.7673   -0.6486   -1.4588 C   0  0  0  0  0  0  0  0  0  0  0  0
   -6.5493   -0.2951   -0.4956 C   0  0  2  0  0  0  0  0  0  0  0  0
   -5.4485   -0.7517    0.2895 N   0  0  0  0  0  0  0  0  0  0  0  0
   -4.1077   -0.6477   -0.0925 C   0  0  0  0  0  0  0  0  0  0  0  0
   -3.8643   -0.1272   -1.2052 O   0  0  0  0  0  0  0  0  0  0  0  0
   -2.9706   -1.1313    0.7748 C   0  0  0  0  0  0  0  0  0  0  0  0
   -1.7423   -0.9858   -0.0189 C   0  0  2  0  0  0  0  0  0  0  0  0
   -1.9048   -1.7676   -1.1962 O   0  0  0  0  0  0  0  0  0  0  0  0
   -0.4060   -1.1371    0.5399 C   0  0  2  0  0  0  0  0  0  0  0  0
   -0.0849   -0.9134    1.9575 C   0  0  0  0  0  0  0  0  0  0  0  0
   -0.7269   -1.8021    2.9600 C   0  0  0  0  0  0  0  0  0  0  0  0
   -0.4013   -3.2884    2.7433 C   0  0  0  0  0  0  0  0  0  0  0  0
   -0.2389   -1.4472    4.3823 C   0  0  0  0  0  0  0  0  0  0  0  0
    0.6495   -0.6368   -0.3762 N   0  0  0  0  0  0  0  0  0  0  0  0
    1.8607   -1.3327   -0.5955 C   0  0  0  0  0  0  0  0  0  0  0  0
    2.0919   -2.3907   -0.0204 O   0  0  0  0  0  0  0  0  0  0  0  0
    2.9016   -0.7819   -1.5470 C   0  0  1  0  0  0  0  0  0  0  0  0
    4.1818   -0.8572   -1.0401 N   0  0  0  0  0  0  0  0  0  0  0  0
    5.4430   -0.9348   -0.5388 C   0  0  0  0  0  0  0  0  0  0  0  0
    5.9200   -1.8912    0.1720 O   0  0  0  0  0  0  0  0  0  0  0  0
    6.4847    0.1483   -0.7560 C   0  0  1  0  0  0  0  0  0  0  0  0
    7.5927   -0.0240    0.1785 N   0  0  0  0  0  0  0  0  0  0  0  0
    7.9937    0.9828    1.0636 C   0  0  0  0  0  0  0  0  0  0  0  0
    7.3484    2.0767    1.0252 O   0  0  0  0  0  0  0  0  0  0  0  0
    9.0976    0.8797    2.0355 C   0  0  0  0  0  0  0  0  0  0  0  0
    9.2161    2.1229    2.8833 C   0  0  0  0  0  0  0  0  0  0  0  0
   10.3316    2.0476    3.8862 C   0  0  0  0  0  0  0  0  0  0  0  0
    9.4623    3.3372    2.0030 C   0  0  0  0  0  0  0  0  0  0  0  0
    7.0895   -0.0529   -2.1183 C   0  0  0  0  0  0  0  0  0  0  0  0
    6.1484    0.0423   -3.2693 C   0  0  0  0  0  0  0  0  0  0  0  0
    8.3107    0.8542   -2.3126 C   0  0  0  0  0  0  0  0  0  0  0  0
    2.6149   -1.4077   -2.8655 C   0  0  0  0  0  0  0  0  0  0  0  0
    1.2200   -1.1187   -3.3682 C   0  0  0  0  0  0  0  0  0  0  0  0
    2.9568   -2.8664   -2.9191 C   0  0  0  0  0  0  0  0  0  0  0  0
   -7.2063    0.9448    0.1581 C   0  0  0  0  0  0  0  0  0  0  0  0
   -7.3398    0.8207    1.3661 O   0  0  0  0  0  0  0  0  0  0  0  0
   -7.5523    2.0199   -0.6453 N   0  0  0  0  0  0  0  0  0  0  0  0
   -8.2027    3.2761   -0.2721 C   0  0  1  0  0  0  0  0  0  0  0  0
   -8.0335    3.4505    1.2305 C   0  0  0  0  0  0  0  0  0  0  0  0
   -8.6833    4.6566    1.7318 C   0  0  0  0  0  0  0  0  0  0  0  0
   -8.4825    5.0162    3.0705 O   0  0  0  0  0  0  0  0  0  0  0  0
   -9.4086    5.3835    1.0451 O   0  0  0  0  0  0  0  0  0  0  0  0
   -7.6299    4.3424   -1.0837 C   0  0  0  0  0  0  0  0  0  0  0  0
   -7.8700    5.6892   -1.0819 O   0  0  0  0  0  0  0  0  0  0  0  0
   -6.7411    3.9688   -1.9525 O   0  0  0  0  0  0  0  0  0  0  0  0
   -9.1649   -3.3474   -0.5598 H   0  0  0  0  0  0  0  0  0  0  0  0
   -8.0622   -4.5789   -1.2521 H   0  0  0  0  0  0  0  0  0  0  0  0
   -8.9174   -3.4913   -2.3748 H   0  0  0  0  0  0  0  0  0  0  0  0
   -6.5124   -3.0734   -0.6475 H   0  0  0  0  0  0  0  0  0  0  0  0
   -6.8862   -2.3967   -2.3094 H   0  0  0  0  0  0  0  0  0  0  0  0
   -8.1067   -1.5119    0.3905 H   0  0  0  0  0  0  0  0  0  0  0  0
   -9.2897    0.1530   -0.8982 H   0  0  0  0  0  0  0  0  0  0  0  0
   -9.5682   -1.3795   -1.7091 H   0  0  0  0  0  0  0  0  0  0  0  0
   -8.3961   -0.2399   -2.3963 H   0  0  0  0  0  0  0  0  0  0  0  0
   -6.2382    0.0378   -1.4800 H   0  0  0  0  0  0  0  0  0  0  0  0
   -5.6358   -1.2053    1.2335 H   0  0  0  0  0  0  0  0  0  0  0  0
   -2.9826   -0.3761    1.6348 H   0  0  0  0  0  0  0  0  0  0  0  0
   -3.2505   -2.1380    1.1019 H   0  0  0  0  0  0  0  0  0  0  0  0
   -1.8077    0.0859   -0.4617 H   0  0  0  0  0  0  0  0  0  0  0  0
   -1.8293   -1.2555   -2.0094 H   0  0  0  0  0  0  0  0  0  0  0  0
   -0.1869   -2.3007    0.4382 H   0  0  0  0  0  0  0  0  0  0  0  0
    1.0358   -1.0983    2.0615 H   0  0  0  0  0  0  0  0  0  0  0  0
   -0.1549    0.1737    2.2649 H   0  0  0  0  0  0  0  0  0  0  0  0
   -1.8066   -1.7179    3.0059 H   0  0  0  0  0  0  0  0  0  0  0  0
   -1.2415   -3.7056    2.1702 H   0  0  0  0  0  0  0  0  0  0  0  0
    0.5561   -3.4238    2.2178 H   0  0  0  0  0  0  0  0  0  0  0  0
   -0.3911   -3.7633    3.7530 H   0  0  0  0  0  0  0  0  0  0  0  0
   -0.9930   -1.7857    5.1114 H   0  0  0  0  0  0  0  0  0  0  0  0
    0.6835   -2.0293    4.5324 H   0  0  0  0  0  0  0  0  0  0  0  0
   -0.1072   -0.3513    4.4645 H   0  0  0  0  0  0  0  0  0  0  0  0
    0.4904    0.2536   -0.8709 H   0  0  0  0  0  0  0  0  0  0  0  0
    2.6463    0.3381   -1.6507 H   0  0  0  0  0  0  0  0  0  0  0  0
    3.9502   -2.1253   -0.5959 H   0  0  0  0  0  0  0  0  0  0  0  0
    6.0041    1.1323   -0.6505 H   0  0  0  0  0  0  0  0  0  0  0  0
    8.0754   -0.9404    0.1581 H   0  0  0  0  0  0  0  0  0  0  0  0
   10.0831    0.7430    1.5331 H   0  0  0  0  0  0  0  0  0  0  0  0
    8.9968    0.0188    2.7329 H   0  0  0  0  0  0  0  0  0  0  0  0
    8.2236    2.2663    3.3744 H   0  0  0  0  0  0  0  0  0  0  0  0
   10.7298    1.0353    4.0579 H   0  0  0  0  0  0  0  0  0  0  0  0
   11.2060    2.6807    3.5511 H   0  0  0  0  0  0  0  0  0  0  0  0
   10.0359    2.5304    4.8552 H   0  0  0  0  0  0  0  0  0  0  0  0
   10.3171    3.9161    2.3917 H   0  0  0  0  0  0  0  0  0  0  0  0
    9.7682    3.0080    0.9862 H   0  0  0  0  0  0  0  0  0  0  0  0
    8.5631    3.9875    1.9651 H   0  0  0  0  0  0  0  0  0  0  0  0
    7.5431   -1.0940   -2.1906 H   0  0  0  0  0  0  0  0  0  0  0  0
    5.7170   -0.9161   -3.6059 H   0  0  0  0  0  0  0  0  0  0  0  0
    5.2927    0.7055   -3.0026 H   0  0  0  0  0  0  0  0  0  0  0  0
    6.7301    0.4946   -4.1173 H   0  0  0  0  0  0  0  0  0  0  0  0
    8.6582    0.6622   -3.3577 H   0  0  0  0  0  0  0  0  0  0  0  0
    9.0811    0.4850   -1.6244 H   0  0  0  0  0  0  0  0  0  0  0  0
    8.0834    1.9154   -2.2377 H   0  0  0  0  0  0  0  0  0  0  0  0
    3.2751   -0.9270   -3.6649 H   0  0  0  0  0  0  0  0  0  0  0  0
    0.4929   -1.7000   -2.7632 H   0  0  0  0  0  0  0  0  0  0  0  0
    0.9465   -0.0696   -3.3231 H   0  0  0  0  0  0  0  0  0  0  0  0
    1.1084   -1.4671   -4.4289 H   0  0  0  0  0  0  0  0  0  0  0  0
    2.4241   -3.4610   -2.1844 H   0  0  0  0  0  0  0  0  0  0  0  0
    2.6926   -3.2947   -3.9308 H   0  0  0  0  0  0  0  0  0  0  0  0
    4.0533   -3.0351   -2.8065 H   0  0  0  0  0  0  0  0  0  0  0  0
   -7.3332    1.9460   -1.6748 H   0  0  0  0  0  0  0  0  0  0  0  0
   -9.2882    3.1693   -0.4071 H   0  0  0  0  0  0  0  0  0  0  0  0
   -6.9974    3.3386    1.5214 H   0  0  0  0  0  0  0  0  0  0  0  0
   -8.6284    2.5764    1.6570 H   0  0  0  0  0  0  0  0  0  0  0  0
   -7.6315    4.7649    3.5002 H   0  0  0  0  0  0  0  0  0  0  0  0
   -7.2513    6.3390   -0.5882 H   0  0  0  0  0  0  0  0  0  0  0  0
  1  2  1  0
  2  3  1  0
  3  4  1  0
  3  5  1  0
  5  6  1  0
  6  7  1  0
  7  8  2  0
  7  9  1  0
  9 10  1  0
 10 11  1  0
 10 12  1  0
 12 13  1  0
 13 14  1  0
 14 15  1  0
 14 16  1  0
 12 17  1  0
 17 18  1  0
 18 19  2  0
 18 20  1  0
 20 21  1  0
 21 22  1  0
 22 23  2  0
 22 24  1  0
 24 25  1  0
 25 26  1  0
 26 27  2  0
 26 28  1  0
 28 29  1  0
 29 30  1  0
 29 31  1  0
 24 32  1  0
 32 33  1  0
 32 34  1  0
 20 35  1  0
 35 36  1  0
 35 37  1  0
  5 38  1  0
 38 39  2  0
 38 40  1  0
 40 41  1  0
 41 42  1  0
 42 43  1  0
 43 44  1  0
 43 45  2  0
 41 46  1  0
 46 47  1  0
 46 48  2  0
  1 49  1  0
  1 50  1  0
  1 51  1  0
  2 52  1  0
  2 53  1  0
  3 54  1  1
  4 55  1  0
  4 56  1  0
  4 57  1  0
  5 58  1  6
  6 59  1  0
  9 60  1  0
  9 61  1  0
 10 62  1  6
 11 63  1  0
 12 64  1  1
 13 65  1  0
 13 66  1  0
 14 67  1  0
 15 68  1  0
 15 69  1  0
 15 70  1  0
 16 71  1  0
 16 72  1  0
 16 73  1  0
 17 74  1  0
 20 75  1  6
 21 76  1  0
 24 77  1  6
 25 78  1  0
 28 79  1  0
 28 80  1  0
 29 81  1  0
 30 82  1  0
 30 83  1  0
 30 84  1  0
 31 85  1  0
 31 86  1  0
 31 87  1  0
 32 88  1  0
 33 89  1  0
 33 90  1  0
 33 91  1  0
 34 92  1  0
 34 93  1  0
 34 94  1  0
 35 95  1  0
 36 96  1  0
 36 97  1  0
 36 98  1  0
 37 99  1  0
 37100  1  0
 37101  1  0
 40102  1  0
 41103  1  1
 42104  1  0
 42105  1  0
 44106  1  0
 47107  1  0
M  END
$$$$
[H]OC(=O)c1c([H])c([H])c(-c2c([H])nc(N3C([H])([H])C([H])([H])OC([H])([H])C3([H])[H])c3nc(/C([H])=C(\[H])c4nc5c([H])c([H])c([H])c([H])c5c([H])c4[H])c([H])n23)c([H])c1[H]
     RDKit          3D

 59 64  0  0  0  0  0  0  0  0999 V2000
   -3.1315    6.8337    1.3712 O   0  0  0  0  0  0  0  0  0  0  0  0
   -3.0644    6.1782    0.1648 C   0  0  0  0  0  0  0  0  0  0  0  0
   -3.0042    6.8598   -0.8880 O   0  0  0  0  0  0  0  0  0  0  0  0
   -3.0605    4.7175    0.0617 C   0  0  0  0  0  0  0  0  0  0  0  0
   -2.9920    4.0999   -1.1688 C   0  0  0  0  0  0  0  0  0  0  0  0
   -2.9855    2.7199   -1.3167 C   0  0  0  0  0  0  0  0  0  0  0  0
   -3.0496    1.9110   -0.1976 C   0  0  0  0  0  0  0  0  0  0  0  0
   -3.1181    2.5336    1.0322 C   0  0  0  0  0  0  0  0  0  0  0  0
   -3.1242    3.9047    1.1739 C   0  0  0  0  0  0  0  0  0  0  0  0
   -3.0455    0.4555   -0.3046 C   0  0  0  0  0  0  0  0  0  0  0  0
   -4.2112   -0.2620   -0.4234 C   0  0  0  0  0  0  0  0  0  0  0  0
   -4.1608   -1.5866   -0.5182 N   0  0  0  0  0  0  0  0  0  0  0  0
   -2.9967   -2.3109   -0.5057 C   0  0  0  0  0  0  0  0  0  0  0  0
   -3.0339   -3.7191   -0.6178 N   0  0  0  0  0  0  0  0  0  0  0  0
   -4.3758   -4.3402   -0.6478 C   0  0  0  0  0  0  0  0  0  0  0  0
   -4.1788   -5.6491    0.1314 C   0  0  0  0  0  0  0  0  0  0  0  0
   -3.2278   -5.4852    1.1306 O   0  0  0  0  0  0  0  0  0  0  0  0
   -1.9197   -5.3918    0.6309 C   0  0  0  0  0  0  0  0  0  0  0  0
   -1.9513   -4.6324   -0.7078 C   0  0  0  0  0  0  0  0  0  0  0  0
   -1.8567   -1.5506   -0.3851 C   0  0  0  0  0  0  0  0  0  0  0  0
   -0.5629   -1.8912   -0.3340 N   0  0  0  0  0  0  0  0  0  0  0  0
    0.2157   -0.8173   -0.2091 C   0  0  0  0  0  0  0  0  0  0  0  0
    1.6753   -0.8348   -0.1244 C   0  0  0  0  0  0  0  0  0  0  0  0
    2.3409    0.2926   -0.0023 C   0  0  0  0  0  0  0  0  0  0  0  0
    3.8033    0.3646    0.0890 C   0  0  0  0  0  0  0  0  0  0  0  0
    4.6203   -0.7345    0.0563 C   0  0  0  0  0  0  0  0  0  0  0  0
    5.9881   -0.6320    0.1444 C   0  0  0  0  0  0  0  0  0  0  0  0
    6.5534    0.6188    0.2696 C   0  0  0  0  0  0  0  0  0  0  0  0
    7.9251    0.7404    0.3592 C   0  0  0  0  0  0  0  0  0  0  0  0
    8.4767    1.9931    0.4838 C   0  0  0  0  0  0  0  0  0  0  0  0
    7.6473    3.0879    0.5155 C   0  0  0  0  0  0  0  0  0  0  0  0
    6.2810    2.9621    0.4258 C   0  0  0  0  0  0  0  0  0  0  0  0
    5.6842    1.6978    0.2978 C   0  0  0  0  0  0  0  0  0  0  0  0
    4.3561    1.5940    0.2120 N   0  0  0  0  0  0  0  0  0  0  0  0
   -0.6183    0.2658   -0.1784 C   0  0  0  0  0  0  0  0  0  0  0  0
   -1.8822   -0.2177   -0.2883 N   0  0  0  0  0  0  0  0  0  0  0  0
   -4.0625    6.9000    1.8049 H   0  0  0  0  0  0  0  0  0  0  0  0
   -2.9417    4.7350   -2.0470 H   0  0  0  0  0  0  0  0  0  0  0  0
   -2.9309    2.2475   -2.2973 H   0  0  0  0  0  0  0  0  0  0  0  0
   -3.1679    1.8692    1.9017 H   0  0  0  0  0  0  0  0  0  0  0  0
   -3.1782    4.3707    2.1435 H   0  0  0  0  0  0  0  0  0  0  0  0
   -5.1408    0.2709   -0.4367 H   0  0  0  0  0  0  0  0  0  0  0  0
   -5.1338   -3.6998   -0.2026 H   0  0  0  0  0  0  0  0  0  0  0  0
   -4.6756   -4.5833   -1.6855 H   0  0  0  0  0  0  0  0  0  0  0  0
   -3.8646   -6.4164   -0.6037 H   0  0  0  0  0  0  0  0  0  0  0  0
   -5.1138   -5.9729    0.6034 H   0  0  0  0  0  0  0  0  0  0  0  0
   -1.5039   -6.3947    0.4026 H   0  0  0  0  0  0  0  0  0  0  0  0
   -1.3009   -4.8425    1.3700 H   0  0  0  0  0  0  0  0  0  0  0  0
   -2.2381   -5.4026   -1.4979 H   0  0  0  0  0  0  0  0  0  0  0  0
   -0.9792   -4.2608   -0.9971 H   0  0  0  0  0  0  0  0  0  0  0  0
    2.2020   -1.7833   -0.1632 H   0  0  0  0  0  0  0  0  0  0  0  0
    1.7338    1.2003    0.0287 H   0  0  0  0  0  0  0  0  0  0  0  0
    4.1706   -1.7086   -0.0418 H   0  0  0  0  0  0  0  0  0  0  0  0
    6.6150   -1.5117    0.1166 H   0  0  0  0  0  0  0  0  0  0  0  0
    8.5126   -0.1489    0.3284 H   0  0  0  0  0  0  0  0  0  0  0  0
    9.5658    2.1377    0.5585 H   0  0  0  0  0  0  0  0  0  0  0  0
    8.1222    4.0769    0.6161 H   0  0  0  0  0  0  0  0  0  0  0  0
    5.6324    3.8270    0.4512 H   0  0  0  0  0  0  0  0  0  0  0  0
   -0.3384    1.3149   -0.0847 H   0  0  0  0  0  0  0  0  0  0  0  0
  1  2  1  0
  2  3  2  0
  2  4  1  0
  4  5  2  0
  5  6  1  0
  6  7  2  0
  7  8  1  0
  8  9  2  0
  7 10  1  0
 10 11  2  0
 11 12  1  0
 12 13  2  0
 13 14  1  0
 14 15  1  0
 15 16  1  0
 16 17  1  0
 17 18  1  0
 18 19  1  0
 13 20  1  0
 20 21  2  0
 21 22  1  0
 22 23  1  0
 23 24  2  0
 24 25  1  0
 25 26  2  0
 26 27  1  0
 27 28  2  0
 28 29  1  0
 29 30  2  0
 30 31  1  0
 31 32  2  0
 32 33  1  0
 33 34  2  0
 22 35  2  0
 35 36  1  0
  9  4  1  0
 36 10  1  0
 19 14  1  0
 36 20  1  0
 34 25  1  0
 33 28  1  0
  1 37  1  0
  5 38  1  0
  6 39  1  0
  8 40  1  0
  9 41  1  0
 11 42  1  0
 15 43  1  0
 15 44  1  0
 16 45  1  0
 16 46  1  0
 18 47  1  0
 18 48  1  0
 19 49  1  0
 19 50  1  0
 23 51  1  0
 24 52  1  0
 26 53  1  0
 27 54  1  0
 29 55  1  0
 30 56  1  0
 31 57  1  0
 32 58  1  0
 35 59  1  0
M  END
$$$$
[H]c1nc([H])c(C([H])([H])[H])c(C(=O)N([H])c2c([H])c([H])c(Oc3c([H])nc([H])c4sc(C(=O)N([H])C([H])([H])[H])c([H])c34)c([H])c2[H])c1C([H])([H])[H]
     RDKit          3D

 51 54  0  0  0  0  0  0  0  0999 V2000
    8.7498    1.7626   -1.3130 C   0  0  0  0  0  0  0  0  0  0  0  0
    7.5973    1.0341   -0.8332 N   0  0  0  0  0  0  0  0  0  0  0  0
    7.7524   -0.0910   -0.0262 C   0  0  0  0  0  0  0  0  0  0  0  0
    8.8955   -0.4878    0.2956 O   0  0  0  0  0  0  0  0  0  0  0  0
    6.6055   -0.8711    0.4907 C   0  0  0  0  0  0  0  0  0  0  0  0
    5.2733   -0.6380    0.2792 C   0  0  0  0  0  0  0  0  0  0  0  0
    4.3949   -1.4878    0.8548 C   0  0  0  0  0  0  0  0  0  0  0  0
    2.9881   -1.4536    0.7825 C   0  0  0  0  0  0  0  0  0  0  0  0
    2.3496   -0.4516    0.0467 O   0  0  0  0  0  0  0  0  0  0  0  0
    0.9687   -0.4221   -0.0213 C   0  0  0  0  0  0  0  0  0  0  0  0
    0.2562    0.2758    0.9040 C   0  0  0  0  0  0  0  0  0  0  0  0
   -1.1276    0.3052    0.8355 C   0  0  0  0  0  0  0  0  0  0  0  0
   -1.8660   -0.3321   -0.1217 C   0  0  0  0  0  0  0  0  0  0  0  0
   -3.2798   -0.3031   -0.2516 N   0  0  0  0  0  0  0  0  0  0  0  0
   -4.0390    0.8084    0.1020 C   0  0  0  0  0  0  0  0  0  0  0  0
   -3.3792    1.8145    0.5561 O   0  0  0  0  0  0  0  0  0  0  0  0
   -5.4754    0.9775    0.0303 C   0  0  0  0  0  0  0  0  0  0  0  0
   -6.0821    1.8369    0.9336 C   0  0  0  0  0  0  0  0  0  0  0  0
   -5.3058    2.5085    1.9847 C   0  0  0  0  0  0  0  0  0  0  0  0
   -7.4620    2.0958    0.9073 C   0  0  0  0  0  0  0  0  0  0  0  0
   -8.2389    1.5055   -0.0098 N   0  0  0  0  0  0  0  0  0  0  0  0
   -7.6950    0.6748   -0.8938 C   0  0  0  0  0  0  0  0  0  0  0  0
   -6.3185    0.3982   -0.8919 C   0  0  0  0  0  0  0  0  0  0  0  0
   -5.7666   -0.5045   -1.9352 C   0  0  0  0  0  0  0  0  0  0  0  0
   -1.1062   -1.0505   -1.0710 C   0  0  0  0  0  0  0  0  0  0  0  0
    0.2636   -1.0817   -1.0052 C   0  0  0  0  0  0  0  0  0  0  0  0
    2.2378   -2.3926    1.4260 C   0  0  0  0  0  0  0  0  0  0  0  0
    2.7596   -3.3936    2.1571 N   0  0  0  0  0  0  0  0  0  0  0  0
    4.0997   -3.4560    2.2472 C   0  0  0  0  0  0  0  0  0  0  0  0
    4.9104   -2.5072    1.5987 C   0  0  0  0  0  0  0  0  0  0  0  0
    6.5951   -2.2591    1.4794 S   0  0  0  0  0  0  0  0  0  0  0  0
    9.6137    1.0614   -1.4949 H   0  0  0  0  0  0  0  0  0  0  0  0
    9.1148    2.5041   -0.5552 H   0  0  0  0  0  0  0  0  0  0  0  0
    8.4890    2.3007   -2.2360 H   0  0  0  0  0  0  0  0  0  0  0  0
    6.6470    1.3796   -1.1117 H   0  0  0  0  0  0  0  0  0  0  0  0
    4.9907    0.2363   -0.3535 H   0  0  0  0  0  0  0  0  0  0  0  0
    0.7716    0.8080    1.6937 H   0  0  0  0  0  0  0  0  0  0  0  0
   -1.6376    0.8650    1.6306 H   0  0  0  0  0  0  0  0  0  0  0  0
   -3.6870   -1.2206   -0.6168 H   0  0  0  0  0  0  0  0  0  0  0  0
   -6.0156    2.9059    2.7924 H   0  0  0  0  0  0  0  0  0  0  0  0
   -4.7618    3.4168    1.6575 H   0  0  0  0  0  0  0  0  0  0  0  0
   -4.6449    1.8224    2.5702 H   0  0  0  0  0  0  0  0  0  0  0  0
   -7.9233    2.7695    1.6181 H   0  0  0  0  0  0  0  0  0  0  0  0
   -8.3140    0.2004   -1.6290 H   0  0  0  0  0  0  0  0  0  0  0  0
   -5.7642   -1.5513   -1.6289 H   0  0  0  0  0  0  0  0  0  0  0  0
   -6.5228   -0.4696   -2.7901 H   0  0  0  0  0  0  0  0  0  0  0  0
   -4.8061   -0.1317   -2.3416 H   0  0  0  0  0  0  0  0  0  0  0  0
   -1.6799   -1.5587   -1.8314 H   0  0  0  0  0  0  0  0  0  0  0  0
    0.8112   -1.6430   -1.7506 H   0  0  0  0  0  0  0  0  0  0  0  0
    1.1384   -2.3000    1.3226 H   0  0  0  0  0  0  0  0  0  0  0  0
    4.6252   -4.2096    2.8021 H   0  0  0  0  0  0  0  0  0  0  0  0
  1  2  1  0
  2  3  1  0
  3  4  2  0
  3  5  1  0
  5  6  2  0
  6  7  1  0
  7  8  2  0
  8  9  1  0
  9 10  1  0
 10 11  2  0
 11 12  1  0
 12 13  2  0
 13 14  1  0
 14 15  1  0
 15 16  2  0
 15 17  1  0
 17 18  2  0
 18 19  1  0
 18 20  1  0
 20 21  2  0
 21 22  1  0
 22 23  2  0
 23 24  1  0
 13 25  1  0
 25 26  2  0
  8 27  1  0
 27 28  2  0
 28 29  1  0
 29 30  2  0
 30 31  1  0
 31  5  1  0
 30  7  1  0
 26 10  1  0
 23 17  1  0
  1 32  1  0
  1 33  1  0
  1 34  1  0
  2 35  1  0
  6 36  1  0
 11 37  1  0
 12 38  1  0
 14 39  1  0
 19 40  1  0
 19 41  1  0
 19 42  1  0
 20 43  1  0
 22 44  1  0
 24 45  1  0
 24 46  1  0
 24 47  1  0
 25 48  1  0
 26 49  1  0
 27 50  1  0
 29 51  1  0
M  END
$$$$
