[H]c1c([H])c(N2C([H])([H])C([H])([H])N(c3nc4c([H])c(C(=O)N([H])[H])c([H])c([H])c4n3[H])C([H])([H])[C@@]2([H])C([H])([H])[H])c([H])c([H])c1F
     RDKit          3D

 46 49  0  0  0  0  0  0  0  0999 V2000
   -2.5647   -1.9284   -0.6813 C   0  0  0  0  0  0  0  0  0  0  0  0
   -1.7675   -0.7036   -0.3127 C   0  0  2  0  0  0  0  0  0  0  0  0
   -0.6537   -1.0099    0.6481 C   0  0  0  0  0  0  0  0  0  0  0  0
    0.0609    0.2287    0.8006 N   0  0  0  0  0  0  0  0  0  0  0  0
   -0.6140    1.3622    1.3755 C   0  0  0  0  0  0  0  0  0  0  0  0
   -1.9962    1.5270    0.7778 C   0  0  0  0  0  0  0  0  0  0  0  0
   -2.5821    0.3459    0.2424 N   0  0  0  0  0  0  0  0  0  0  0  0
   -4.0193    0.1662    0.2219 C   0  0  0  0  0  0  0  0  0  0  0  0
   -4.6723    0.8540   -0.7793 C   0  0  0  0  0  0  0  0  0  0  0  0
   -6.0259    0.7620   -0.9117 C   0  0  0  0  0  0  0  0  0  0  0  0
   -6.6985   -0.0460   -0.0013 C   0  0  0  0  0  0  0  0  0  0  0  0
   -8.0370   -0.1549   -0.1173 F   0  0  0  0  0  0  0  0  0  0  0  0
   -6.0469   -0.7372    1.0044 C   0  0  0  0  0  0  0  0  0  0  0  0
   -4.6659   -0.6337    1.1272 C   0  0  0  0  0  0  0  0  0  0  0  0
    1.3835    0.3186    0.3550 C   0  0  0  0  0  0  0  0  0  0  0  0
    2.4387   -0.2615    0.9338 N   0  0  0  0  0  0  0  0  0  0  0  0
    3.5479    0.0316    0.2580 C   0  0  0  0  0  0  0  0  0  0  0  0
    4.8872   -0.2906    0.3971 C   0  0  0  0  0  0  0  0  0  0  0  0
    5.8464    0.1678   -0.4818 C   0  0  0  0  0  0  0  0  0  0  0  0
    5.4302    0.9834   -1.5398 C   0  0  0  0  0  0  0  0  0  0  0  0
    4.1030    1.3278   -1.7143 C   0  0  0  0  0  0  0  0  0  0  0  0
    3.1735    0.8417   -0.8051 C   0  0  0  0  0  0  0  0  0  0  0  0
    1.8487    1.0036   -0.7264 N   0  0  0  0  0  0  0  0  0  0  0  0
    7.2533   -0.1741   -0.3498 C   0  0  0  0  0  0  0  0  0  0  0  0
    7.6516   -1.1439    0.5887 N   0  0  0  0  0  0  0  0  0  0  0  0
    8.1006    0.4029   -1.0797 O   0  0  0  0  0  0  0  0  0  0  0  0
   -3.0090   -2.4579    0.1645 H   0  0  0  0  0  0  0  0  0  0  0  0
   -3.3644   -1.6105   -1.3738 H   0  0  0  0  0  0  0  0  0  0  0  0
   -1.8682   -2.5871   -1.2714 H   0  0  0  0  0  0  0  0  0  0  0  0
   -1.3049   -0.3328   -1.2636 H   0  0  0  0  0  0  0  0  0  0  0  0
    0.0177   -1.8136    0.2749 H   0  0  0  0  0  0  0  0  0  0  0  0
   -1.0544   -1.3241    1.6437 H   0  0  0  0  0  0  0  0  0  0  0  0
   -0.7136    1.2435    2.4951 H   0  0  0  0  0  0  0  0  0  0  0  0
   -0.0876    2.3281    1.2333 H   0  0  0  0  0  0  0  0  0  0  0  0
   -2.6630    1.9743    1.5699 H   0  0  0  0  0  0  0  0  0  0  0  0
   -1.9978    2.2926   -0.0549 H   0  0  0  0  0  0  0  0  0  0  0  0
   -4.1308    1.4806   -1.4852 H   0  0  0  0  0  0  0  0  0  0  0  0
   -6.5321    1.3043   -1.7006 H   0  0  0  0  0  0  0  0  0  0  0  0
   -6.5838   -1.3658    1.7118 H   0  0  0  0  0  0  0  0  0  0  0  0
   -4.1189   -1.1566    1.9002 H   0  0  0  0  0  0  0  0  0  0  0  0
    5.2176   -0.9185    1.2111 H   0  0  0  0  0  0  0  0  0  0  0  0
    6.1599    1.3612   -2.2481 H   0  0  0  0  0  0  0  0  0  0  0  0
    3.7923    1.9490   -2.5186 H   0  0  0  0  0  0  0  0  0  0  0  0
    1.2626    1.5618   -1.3806 H   0  0  0  0  0  0  0  0  0  0  0  0
    7.7969   -0.8804    1.5734 H   0  0  0  0  0  0  0  0  0  0  0  0
    7.8001   -2.1189    0.2891 H   0  0  0  0  0  0  0  0  0  0  0  0
  1  2  1  0
  2  3  1  0
  3  4  1  0
  4  5  1  0
  5  6  1  0
  6  7  1  0
  7  8  1  0
  8  9  2  0
  9 10  1  0
 10 11  2  0
 11 12  1  0
 11 13  1  0
 13 14  2  0
  4 15  1  0
 15 16  2  0
 16 17  1  0
 17 18  2  0
 18 19  1  0
 19 20  2  0
 20 21  1  0
 21 22  2  0
 22 23  1  0
 19 24  1  0
 24 25  1  0
 24 26  2  0
  7  2  1  0
 14  8  1  0
 23 15  1  0
 22 17  1  0
  1 27  1  0
  1 28  1  0
  1 29  1  0
  2 30  1  6
  3 31  1  0
  3 32  1  0
  5 33  1  0
  5 34  1  0
  6 35  1  0
  6 36  1  0
  9 37  1  0
 10 38  1  0
 13 39  1  0
 14 40  1  0
 18 41  1  0
 20 42  1  0
 21 43  1  0
 23 44  1  0
 25 45  1  0
 25 46  1  0
M  END
$$$$
[H]c1c([H])c(Oc2c([H])c([H])c(C(F)(F)F)c([H])c2[H])c(N2C([H])([H])C([H])([H])N(c3c([H])c([H])c(C#N)c([H])c3[H])[C@@]([H])(C([H])([H])[H])C2([H])[H])c([H])c1F
     RDKit          3D

 54 57  0  0  0  0  0  0  0  0999 V2000
    3.7590   -1.9485    0.1819 C   0  0  0  0  0  0  0  0  0  0  0  0
    2.4953   -1.2648   -0.1703 C   0  0  1  0  0  0  0  0  0  0  0  0
    1.4147   -1.3110    0.8954 C   0  0  0  0  0  0  0  0  0  0  0  0
    0.1810   -1.0130    0.1458 N   0  0  0  0  0  0  0  0  0  0  0  0
    0.1883    0.1025   -0.7296 C   0  0  0  0  0  0  0  0  0  0  0  0
    1.4602    0.8823   -0.7433 C   0  0  0  0  0  0  0  0  0  0  0  0
    2.6459    0.1746   -0.4116 N   0  0  0  0  0  0  0  0  0  0  0  0
    3.9105    0.7568   -0.2548 C   0  0  0  0  0  0  0  0  0  0  0  0
    4.7570    1.1087   -1.2816 C   0  0  0  0  0  0  0  0  0  0  0  0
    5.9919    1.6623   -1.0201 C   0  0  0  0  0  0  0  0  0  0  0  0
    6.4459    1.8946    0.2628 C   0  0  0  0  0  0  0  0  0  0  0  0
    5.6045    1.5462    1.3024 C   0  0  0  0  0  0  0  0  0  0  0  0
    4.3774    0.9963    1.0481 C   0  0  0  0  0  0  0  0  0  0  0  0
    7.7273    2.4623    0.5632 C   0  0  0  0  0  0  0  0  0  0  0  0
    8.7556    2.9060    0.8151 N   0  0  0  0  0  0  0  0  0  0  0  0
   -0.8891   -1.9251    0.3706 C   0  0  0  0  0  0  0  0  0  0  0  0
   -0.5921   -3.2624    0.6682 C   0  0  0  0  0  0  0  0  0  0  0  0
   -1.5571   -4.2131    0.9122 C   0  0  0  0  0  0  0  0  0  0  0  0
   -1.2433   -5.5046    1.2046 F   0  0  0  0  0  0  0  0  0  0  0  0
   -2.8716   -3.8356    0.8582 C   0  0  0  0  0  0  0  0  0  0  0  0
   -3.2129   -2.5457    0.5693 C   0  0  0  0  0  0  0  0  0  0  0  0
   -2.2222   -1.5727    0.3212 C   0  0  0  0  0  0  0  0  0  0  0  0
   -2.5509   -0.2974    0.0353 O   0  0  0  0  0  0  0  0  0  0  0  0
   -3.6720    0.4172   -0.0691 C   0  0  0  0  0  0  0  0  0  0  0  0
   -3.6797    1.6745    0.5613 C   0  0  0  0  0  0  0  0  0  0  0  0
   -4.7706    2.5098    0.5370 C   0  0  0  0  0  0  0  0  0  0  0  0
   -5.9193    2.1220   -0.1296 C   0  0  0  0  0  0  0  0  0  0  0  0
   -5.9533    0.9178   -0.7546 C   0  0  0  0  0  0  0  0  0  0  0  0
   -4.8368    0.0841   -0.7167 C   0  0  0  0  0  0  0  0  0  0  0  0
   -7.0801    3.0755   -0.1152 C   0  0  0  0  0  0  0  0  0  0  0  0
   -7.3908    3.3546   -1.4233 F   0  0  0  0  0  0  0  0  0  0  0  0
   -6.7047    4.2494    0.5149 F   0  0  0  0  0  0  0  0  0  0  0  0
   -8.1851    2.5113    0.4748 F   0  0  0  0  0  0  0  0  0  0  0  0
    4.5626   -1.4980   -0.4716 H   0  0  0  0  0  0  0  0  0  0  0  0
    4.0613   -1.9202    1.2335 H   0  0  0  0  0  0  0  0  0  0  0  0
    3.7205   -3.0149   -0.1609 H   0  0  0  0  0  0  0  0  0  0  0  0
    2.0699   -1.7026   -1.0923 H   0  0  0  0  0  0  0  0  0  0  0  0
    1.3946   -2.1655    1.5276 H   0  0  0  0  0  0  0  0  0  0  0  0
    1.5055   -0.4160    1.5840 H   0  0  0  0  0  0  0  0  0  0  0  0
   -0.0228   -0.2451   -1.7767 H   0  0  0  0  0  0  0  0  0  0  0  0
   -0.6134    0.8505   -0.4724 H   0  0  0  0  0  0  0  0  0  0  0  0
    1.3554    1.7559   -0.0335 H   0  0  0  0  0  0  0  0  0  0  0  0
    1.5270    1.3807   -1.7608 H   0  0  0  0  0  0  0  0  0  0  0  0
    4.4597    0.9548   -2.2999 H   0  0  0  0  0  0  0  0  0  0  0  0
    6.7065    1.9550   -1.8079 H   0  0  0  0  0  0  0  0  0  0  0  0
    5.9616    1.7276    2.3294 H   0  0  0  0  0  0  0  0  0  0  0  0
    3.7631    0.7360    1.9075 H   0  0  0  0  0  0  0  0  0  0  0  0
    0.4616   -3.5826    0.6991 H   0  0  0  0  0  0  0  0  0  0  0  0
   -3.6809   -4.5616    1.0449 H   0  0  0  0  0  0  0  0  0  0  0  0
   -4.2604   -2.2193    0.5335 H   0  0  0  0  0  0  0  0  0  0  0  0
   -2.8001    2.0136    1.0950 H   0  0  0  0  0  0  0  0  0  0  0  0
   -4.7662    3.4805    1.0308 H   0  0  0  0  0  0  0  0  0  0  0  0
   -6.8655    0.6336   -1.2659 H   0  0  0  0  0  0  0  0  0  0  0  0
   -4.9229   -0.8773   -1.2511 H   0  0  0  0  0  0  0  0  0  0  0  0
  1  2  1  0
  2  3  1  0
  3  4  1  0
  4  5  1  0
  5  6  1  0
  6  7  1  0
  7  8  1  0
  8  9  2  0
  9 10  1  0
 10 11  2  0
 11 12  1  0
 12 13  2  0
 11 14  1  0
 14 15  3  0
  4 16  1  0
 16 17  2  0
 17 18  1  0
 18 19  1  0
 18 20  2  0
 20 21  1  0
 21 22  2  0
 22 23  1  0
 23 24  1  0
 24 25  2  0
 25 26  1  0
 26 27  2  0
 27 28  1  0
 28 29  2  0
 27 30  1  0
 30 31  1  0
 30 32  1  0
 30 33  1  0
  7  2  1  0
 13  8  1  0
 22 16  1  0
 29 24  1  0
  1 34  1  0
  1 35  1  0
  1 36  1  0
  2 37  1  6
  3 38  1  0
  3 39  1  0
  5 40  1  0
  5 41  1  0
  6 42  1  0
  6 43  1  0
  9 44  1  0
 10 45  1  0
 12 46  1  0
 13 47  1  0
 17 48  1  0
 20 49  1  0
 21 50  1  0
 25 51  1  0
 26 52  1  0
 28 53  1  0
 29 54  1  0
M  END
$$$$
[H]c1c([H])c(C(F)(F)F)c([H])c([H])c1N1C([H])([H])C([H])([H])N(c2nc3c([H])c(F)c([H])c([H])c3c(=O)n2[H])C([H])([H])[C@@]1([H])C([H])([H])[H]
     RDKit          3D

 47 50  0  0  0  0  0  0  0  0999 V2000
    1.1417   -1.8907    0.5158 C   0  0  0  0  0  0  0  0  0  0  0  0
    0.6662   -0.5102    0.4513 C   0  0  2  0  0  0  0  0  0  0  0  0
   -0.3142   -0.2177   -0.7140 C   0  0  0  0  0  0  0  0  0  0  0  0
   -1.1086    0.8757   -0.1077 N   0  0  0  0  0  0  0  0  0  0  0  0
   -0.3858    2.0513    0.2560 C   0  0  0  0  0  0  0  0  0  0  0  0
    1.0911    1.9135    0.3342 C   0  0  0  0  0  0  0  0  0  0  0  0
    1.6157    0.5601    0.3263 N   0  0  0  0  0  0  0  0  0  0  0  0
    3.0117    0.3727    0.1651 C   0  0  0  0  0  0  0  0  0  0  0  0
    3.5461   -0.5784   -0.6621 C   0  0  0  0  0  0  0  0  0  0  0  0
    4.9039   -0.7497   -0.7508 C   0  0  0  0  0  0  0  0  0  0  0  0
    5.8050    0.0130   -0.0251 C   0  0  0  0  0  0  0  0  0  0  0  0
    5.2731    0.9702    0.8077 C   0  0  0  0  0  0  0  0  0  0  0  0
    3.8982    1.1398    0.8933 C   0  0  0  0  0  0  0  0  0  0  0  0
    7.2494   -0.1745   -0.1173 C   0  0  0  0  0  0  0  0  0  0  0  0
    7.7942   -0.1193    1.1321 F   0  0  0  0  0  0  0  0  0  0  0  0
    7.5397   -1.4421   -0.6430 F   0  0  0  0  0  0  0  0  0  0  0  0
    7.8586    0.7424   -0.9574 F   0  0  0  0  0  0  0  0  0  0  0  0
   -2.4621    0.6013    0.0670 C   0  0  0  0  0  0  0  0  0  0  0  0
   -3.1471   -0.0410   -0.9013 N   0  0  0  0  0  0  0  0  0  0  0  0
   -4.4277   -0.4168   -0.8061 C   0  0  0  0  0  0  0  0  0  0  0  0
   -5.0695   -1.0790   -1.8372 C   0  0  0  0  0  0  0  0  0  0  0  0
   -6.4011   -1.4832   -1.7454 C   0  0  0  0  0  0  0  0  0  0  0  0
   -7.0241   -2.1294   -2.7639 F   0  0  0  0  0  0  0  0  0  0  0  0
   -7.0589   -1.1945   -0.5790 C   0  0  0  0  0  0  0  0  0  0  0  0
   -6.4304   -0.5310    0.4626 C   0  0  0  0  0  0  0  0  0  0  0  0
   -5.1042   -0.1392    0.3528 C   0  0  0  0  0  0  0  0  0  0  0  0
   -4.4329    0.5177    1.3649 C   0  0  0  0  0  0  0  0  0  0  0  0
   -5.0257    0.7910    2.4427 O   0  0  0  0  0  0  0  0  0  0  0  0
   -3.1435    0.8685    1.2004 N   0  0  0  0  0  0  0  0  0  0  0  0
    0.4313   -2.4861    1.1787 H   0  0  0  0  0  0  0  0  0  0  0  0
    2.1249   -2.0602    0.9604 H   0  0  0  0  0  0  0  0  0  0  0  0
    1.0272   -2.3842   -0.4737 H   0  0  0  0  0  0  0  0  0  0  0  0
    0.0973   -0.2700    1.4124 H   0  0  0  0  0  0  0  0  0  0  0  0
   -0.9096   -1.0773   -0.9829 H   0  0  0  0  0  0  0  0  0  0  0  0
    0.2170    0.2361   -1.5607 H   0  0  0  0  0  0  0  0  0  0  0  0
   -0.7430    2.4352    1.2679 H   0  0  0  0  0  0  0  0  0  0  0  0
   -0.6215    2.8966   -0.4419 H   0  0  0  0  0  0  0  0  0  0  0  0
    1.4523    2.4828    1.2382 H   0  0  0  0  0  0  0  0  0  0  0  0
    1.5323    2.4575   -0.5584 H   0  0  0  0  0  0  0  0  0  0  0  0
    2.9329   -1.2031   -1.2701 H   0  0  0  0  0  0  0  0  0  0  0  0
    5.3520   -1.5052   -1.4150 H   0  0  0  0  0  0  0  0  0  0  0  0
    5.9105    1.6029    1.4143 H   0  0  0  0  0  0  0  0  0  0  0  0
    3.4929    1.8864    1.5588 H   0  0  0  0  0  0  0  0  0  0  0  0
   -4.5284   -1.2821   -2.7336 H   0  0  0  0  0  0  0  0  0  0  0  0
   -8.0961   -1.5138   -0.4857 H   0  0  0  0  0  0  0  0  0  0  0  0
   -6.9454   -0.2974    1.3891 H   0  0  0  0  0  0  0  0  0  0  0  0
   -2.5854    1.3612    1.9318 H   0  0  0  0  0  0  0  0  0  0  0  0
  1  2  1  0
  2  3  1  0
  3  4  1  0
  4  5  1  0
  5  6  1  0
  6  7  1  0
  7  8  1  0
  8  9  2  0
  9 10  1  0
 10 11  2  0
 11 12  1  0
 12 13  2  0
 11 14  1  0
 14 15  1  0
 14 16  1  0
 14 17  1  0
  4 18  1  0
 18 19  2  0
 19 20  1  0
 20 21  2  0
 21 22  1  0
 22 23  1  0
 22 24  2  0
 24 25  1  0
 25 26  2  0
 26 27  1  0
 27 28  2  0
 27 29  1  0
  7  2  1  0
 13  8  1  0
 29 18  1  0
 26 20  1  0
  1 30  1  0
  1 31  1  0
  1 32  1  0
  2 33  1  1
  3 34  1  0
  3 35  1  0
  5 36  1  0
  5 37  1  0
  6 38  1  0
  6 39  1  0
  9 40  1  0
 10 41  1  0
 12 42  1  0
 13 43  1  0
 21 44  1  0
 24 45  1  0
 25 46  1  0
 29 47  1  0
M  END
$$$$
[H]c1c([H])c(C(F)(F)F)c([H])c([H])c1N1C([H])([H])C([H])([H])N(c2nc3c([H])c(C#N)c([H])c([H])c3n2[H])C([H])([H])[C@@]1([H])C([H])([H])[H]
     RDKit          3D

 46 49  0  0  0  0  0  0  0  0999 V2000
    1.6785   -2.2108   -0.2030 C   0  0  0  0  0  0  0  0  0  0  0  0
    0.9628   -0.9640    0.3481 C   0  0  2  0  0  0  0  0  0  0  0  0
   -0.4906   -1.0909   -0.0599 C   0  0  0  0  0  0  0  0  0  0  0  0
   -1.1122    0.2164   -0.0292 N   0  0  0  0  0  0  0  0  0  0  0  0
   -0.3795    1.4493   -0.0659 C   0  0  0  0  0  0  0  0  0  0  0  0
    0.8580    1.1695   -0.9150 C   0  0  0  0  0  0  0  0  0  0  0  0
    1.6388    0.1769   -0.2075 N   0  0  0  0  0  0  0  0  0  0  0  0
    3.0463    0.3145   -0.0238 C   0  0  0  0  0  0  0  0  0  0  0  0
    3.9186    0.2819   -1.0807 C   0  0  0  0  0  0  0  0  0  0  0  0
    5.2926    0.4236   -0.9334 C   0  0  0  0  0  0  0  0  0  0  0  0
    5.8575    0.5927    0.2936 C   0  0  0  0  0  0  0  0  0  0  0  0
    5.0096    0.6382    1.4029 C   0  0  0  0  0  0  0  0  0  0  0  0
    3.6129    0.5074    1.2755 C   0  0  0  0  0  0  0  0  0  0  0  0
    7.3209    0.7410    0.4487 C   0  0  0  0  0  0  0  0  0  0  0  0
    7.8263   -0.3819    1.0818 F   0  0  0  0  0  0  0  0  0  0  0  0
    7.8724    0.9601   -0.7882 F   0  0  0  0  0  0  0  0  0  0  0  0
    7.5733    1.8380    1.2159 F   0  0  0  0  0  0  0  0  0  0  0  0
   -2.5446    0.2162    0.0378 C   0  0  0  0  0  0  0  0  0  0  0  0
   -3.3244    0.3269    1.1494 N   0  0  0  0  0  0  0  0  0  0  0  0
   -4.6180    0.1927    0.7616 C   0  0  0  0  0  0  0  0  0  0  0  0
   -5.8750    0.1955    1.3257 C   0  0  0  0  0  0  0  0  0  0  0  0
   -7.0489    0.0398    0.6521 C   0  0  0  0  0  0  0  0  0  0  0  0
   -6.9938   -0.1474   -0.7154 C   0  0  0  0  0  0  0  0  0  0  0  0
   -5.7564   -0.1672   -1.3609 C   0  0  0  0  0  0  0  0  0  0  0  0
   -4.5951    0.0024   -0.6183 C   0  0  0  0  0  0  0  0  0  0  0  0
   -3.3132    0.0264   -1.0298 N   0  0  0  0  0  0  0  0  0  0  0  0
   -8.3329    0.0727    1.2858 C   0  0  0  0  0  0  0  0  0  0  0  0
   -9.3764    0.0950    1.7968 N   0  0  0  0  0  0  0  0  0  0  0  0
    2.6600   -2.2950    0.2528 H   0  0  0  0  0  0  0  0  0  0  0  0
    1.6924   -2.0956   -1.2658 H   0  0  0  0  0  0  0  0  0  0  0  0
    1.0038   -3.0575    0.1370 H   0  0  0  0  0  0  0  0  0  0  0  0
    1.0156   -0.9582    1.4586 H   0  0  0  0  0  0  0  0  0  0  0  0
   -0.5151   -1.4883   -1.0907 H   0  0  0  0  0  0  0  0  0  0  0  0
   -0.9473   -1.8165    0.6226 H   0  0  0  0  0  0  0  0  0  0  0  0
   -0.0431    1.7594    0.9633 H   0  0  0  0  0  0  0  0  0  0  0  0
   -0.9596    2.2694   -0.5197 H   0  0  0  0  0  0  0  0  0  0  0  0
    0.5055    0.6983   -1.8558 H   0  0  0  0  0  0  0  0  0  0  0  0
    1.4392    2.0991   -1.0668 H   0  0  0  0  0  0  0  0  0  0  0  0
    3.5131    0.1391   -2.0654 H   0  0  0  0  0  0  0  0  0  0  0  0
    5.9725    0.4019   -1.7845 H   0  0  0  0  0  0  0  0  0  0  0  0
    5.4502    0.8015    2.3663 H   0  0  0  0  0  0  0  0  0  0  0  0
    3.0054    0.5557    2.1339 H   0  0  0  0  0  0  0  0  0  0  0  0
   -5.9246    0.3518    2.4337 H   0  0  0  0  0  0  0  0  0  0  0  0
   -7.8784   -0.3040   -1.2907 H   0  0  0  0  0  0  0  0  0  0  0  0
   -5.7235   -0.3007   -2.4344 H   0  0  0  0  0  0  0  0  0  0  0  0
   -2.9732   -0.1066   -2.0387 H   0  0  0  0  0  0  0  0  0  0  0  0
  1  2  1  0
  2  3  1  0
  3  4  1  0
  4  5  1  0
  5  6  1  0
  6  7  1  0
  7  8  1  0
  8  9  2  0
  9 10  1  0
 10 11  2  0
 11 12  1  0
 12 13  2  0
 11 14  1  0
 14 15  1  0
 14 16  1  0
 14 17  1  0
  4 18  1  0
 18 19  2  0
 19 20  1  0
 20 21  2  0
 21 22  1  0
 22 23  2  0
 23 24  1  0
 24 25  2  0
 25 26  1  0
 22 27  1  0
 27 28  3  0
  7  2  1  0
 13  8  1  0
 26 18  1  0
 25 20  1  0
  1 29  1  0
  1 30  1  0
  1 31  1  0
  2 32  1  1
  3 33  1  0
  3 34  1  0
  5 35  1  0
  5 36  1  0
  6 37  1  0
  6 38  1  0
  9 39  1  0
 10 40  1  0
 12 41  1  0
 13 42  1  0
 21 43  1  0
 23 44  1  0
 24 45  1  0
 26 46  1  0
M  END
$$$$
[H]c1c([H])c(N2C([H])([H])C([H])([H])N(c3nc4c([H])c(C(=O)N([H])[H])c([H])c([H])c4n3[H])C([H])([H])[C@]2([H])C([H])([H])[H])c([H])c([H])c1F
     RDKit          3D

 46 49  0  0  0  0  0  0  0  0999 V2000
   -2.5040   -2.4417   -0.0226 C   0  0  0  0  0  0  0  0  0  0  0  0
   -1.9546   -1.0822    0.4355 C   0  0  1  0  0  0  0  0  0  0  0  0
   -0.4935   -0.9992    0.0866 C   0  0  0  0  0  0  0  0  0  0  0  0
    0.0318    0.3182   -0.0187 N   0  0  0  0  0  0  0  0  0  0  0  0
   -0.8149    1.4673   -0.1009 C   0  0  0  0  0  0  0  0  0  0  0  0
   -2.0922    1.0669   -0.8238 C   0  0  0  0  0  0  0  0  0  0  0  0
   -2.7303   -0.0044   -0.1109 N   0  0  0  0  0  0  0  0  0  0  0  0
   -4.1263    0.0124    0.0662 C   0  0  0  0  0  0  0  0  0  0  0  0
   -4.9206    0.7440   -0.7869 C   0  0  0  0  0  0  0  0  0  0  0  0
   -6.2787    0.7763   -0.6084 C   0  0  0  0  0  0  0  0  0  0  0  0
   -6.8348    0.0722    0.4278 C   0  0  0  0  0  0  0  0  0  0  0  0
   -8.1736    0.0883    0.6240 F   0  0  0  0  0  0  0  0  0  0  0  0
   -6.0286   -0.6699    1.2927 C   0  0  0  0  0  0  0  0  0  0  0  0
   -4.6697   -0.7031    1.1159 C   0  0  0  0  0  0  0  0  0  0  0  0
    1.4430    0.5151   -0.0434 C   0  0  0  0  0  0  0  0  0  0  0  0
    2.3538   -0.4647    0.0325 N   0  0  0  0  0  0  0  0  0  0  0  0
    3.5761    0.0860   -0.0220 C   0  0  0  0  0  0  0  0  0  0  0  0
    4.8573   -0.4001    0.0099 C   0  0  0  0  0  0  0  0  0  0  0  0
    5.9773    0.4052   -0.0651 C   0  0  0  0  0  0  0  0  0  0  0  0
    5.7573    1.7598   -0.1770 C   0  0  0  0  0  0  0  0  0  0  0  0
    4.4909    2.3014   -0.2138 C   0  0  0  0  0  0  0  0  0  0  0  0
    3.3988    1.4528   -0.1353 C   0  0  0  0  0  0  0  0  0  0  0  0
    2.0963    1.6980   -0.1468 N   0  0  0  0  0  0  0  0  0  0  0  0
    7.3113   -0.1746   -0.0251 C   0  0  0  0  0  0  0  0  0  0  0  0
    7.4494   -1.5847    0.0857 N   0  0  0  0  0  0  0  0  0  0  0  0
    8.3381    0.5358   -0.0858 O   0  0  0  0  0  0  0  0  0  0  0  0
   -2.7643   -3.0741    0.8297 H   0  0  0  0  0  0  0  0  0  0  0  0
   -3.3745   -2.2383   -0.6483 H   0  0  0  0  0  0  0  0  0  0  0  0
   -1.7295   -2.9522   -0.6332 H   0  0  0  0  0  0  0  0  0  0  0  0
   -2.0289   -1.0367    1.5519 H   0  0  0  0  0  0  0  0  0  0  0  0
   -0.3685   -1.5768   -0.8702 H   0  0  0  0  0  0  0  0  0  0  0  0
    0.1283   -1.5728    0.8319 H   0  0  0  0  0  0  0  0  0  0  0  0
   -1.0478    1.9153    0.8911 H   0  0  0  0  0  0  0  0  0  0  0  0
   -0.3708    2.2980   -0.7064 H   0  0  0  0  0  0  0  0  0  0  0  0
   -2.7673    1.9625   -0.8602 H   0  0  0  0  0  0  0  0  0  0  0  0
   -1.8346    0.7903   -1.8574 H   0  0  0  0  0  0  0  0  0  0  0  0
   -4.4805    1.2975   -1.6122 H   0  0  0  0  0  0  0  0  0  0  0  0
   -6.8925    1.3550   -1.2857 H   0  0  0  0  0  0  0  0  0  0  0  0
   -6.4569   -1.2305    2.1157 H   0  0  0  0  0  0  0  0  0  0  0  0
   -4.0321   -1.2760    1.7892 H   0  0  0  0  0  0  0  0  0  0  0  0
    5.0135   -1.4689    0.0985 H   0  0  0  0  0  0  0  0  0  0  0  0
    6.6246    2.4197   -0.2384 H   0  0  0  0  0  0  0  0  0  0  0  0
    4.3172    3.3536   -0.3008 H   0  0  0  0  0  0  0  0  0  0  0  0
    1.6067    2.6156   -0.2208 H   0  0  0  0  0  0  0  0  0  0  0  0
    7.4835   -1.9756    1.0566 H   0  0  0  0  0  0  0  0  0  0  0  0
    7.5146   -2.2113   -0.7211 H   0  0  0  0  0  0  0  0  0  0  0  0
  1  2  1  0
  2  3  1  0
  3  4  1  0
  4  5  1  0
  5  6  1  0
  6  7  1  0
  7  8  1  0
  8  9  2  0
  9 10  1  0
 10 11  2  0
 11 12  1  0
 11 13  1  0
 13 14  2  0
  4 15  1  0
 15 16  2  0
 16 17  1  0
 17 18  2  0
 18 19  1  0
 19 20  2  0
 20 21  1  0
 21 22  2  0
 22 23  1  0
 19 24  1  0
 24 25  1  0
 24 26  2  0
  7  2  1  0
 14  8  1  0
 23 15  1  0
 22 17  1  0
  1 27  1  0
  1 28  1  0
  1 29  1  0
  2 30  1  1
  3 31  1  0
  3 32  1  0
  5 33  1  0
  5 34  1  0
  6 35  1  0
  6 36  1  0
  9 37  1  0
 10 38  1  0
 13 39  1  0
 14 40  1  0
 18 41  1  0
 20 42  1  0
 21 43  1  0
 23 44  1  0
 25 45  1  0
 25 46  1  0
M  END
$$$$
[H]c1c([H])c(N2C([H])([H])C([H])([H])N(c3nc4c([H])c(F)c([H])c([H])c4n3[H])C([H])([H])[C@]2([H])C([H])([H])[H])c([H])c([H])c1C#N
     RDKit          3D

 43 46  0  0  0  0  0  0  0  0999 V2000
    1.6229   -0.7782   -2.2667 C   0  0  0  0  0  0  0  0  0  0  0  0
    1.1989    0.4141   -1.4079 C   0  0  1  0  0  0  0  0  0  0  0  0
   -0.2807    0.6326   -1.5033 C   0  0  0  0  0  0  0  0  0  0  0  0
   -0.9781    0.7004   -0.2649 N   0  0  0  0  0  0  0  0  0  0  0  0
   -0.2389    1.1156    0.9072 C   0  0  0  0  0  0  0  0  0  0  0  0
    0.8654    0.0605    1.0772 C   0  0  0  0  0  0  0  0  0  0  0  0
    1.7116    0.1763   -0.0988 N   0  0  0  0  0  0  0  0  0  0  0  0
    3.1101    0.0500    0.1006 C   0  0  0  0  0  0  0  0  0  0  0  0
    3.9624    0.4588   -0.8903 C   0  0  0  0  0  0  0  0  0  0  0  0
    5.3432    0.3383   -0.7295 C   0  0  0  0  0  0  0  0  0  0  0  0
    5.8843   -0.1894    0.4181 C   0  0  0  0  0  0  0  0  0  0  0  0
    5.0049   -0.5902    1.3931 C   0  0  0  0  0  0  0  0  0  0  0  0
    3.6371   -0.4804    1.2548 C   0  0  0  0  0  0  0  0  0  0  0  0
    7.3138   -0.3140    0.5855 C   0  0  0  0  0  0  0  0  0  0  0  0
    8.4572   -0.4045    0.7121 N   0  0  0  0  0  0  0  0  0  0  0  0
   -2.3525    0.3800   -0.1401 C   0  0  0  0  0  0  0  0  0  0  0  0
   -3.1897   -0.0199   -1.1253 N   0  0  0  0  0  0  0  0  0  0  0  0
   -4.4173   -0.2315   -0.6237 C   0  0  0  0  0  0  0  0  0  0  0  0
   -5.6252   -0.6451   -1.1956 C   0  0  0  0  0  0  0  0  0  0  0  0
   -6.7206   -0.7626   -0.3757 C   0  0  0  0  0  0  0  0  0  0  0  0
   -7.9088   -1.1635   -0.9071 F   0  0  0  0  0  0  0  0  0  0  0  0
   -6.6779   -0.4921    0.9739 C   0  0  0  0  0  0  0  0  0  0  0  0
   -5.4926   -0.0858    1.5375 C   0  0  0  0  0  0  0  0  0  0  0  0
   -4.3767    0.0385    0.7261 C   0  0  0  0  0  0  0  0  0  0  0  0
   -3.0924    0.4094    0.9778 N   0  0  0  0  0  0  0  0  0  0  0  0
    2.0515   -0.3818   -3.2058 H   0  0  0  0  0  0  0  0  0  0  0  0
    2.3055   -1.4560   -1.7367 H   0  0  0  0  0  0  0  0  0  0  0  0
    0.6847   -1.3272   -2.5772 H   0  0  0  0  0  0  0  0  0  0  0  0
    1.6751    1.3114   -1.8500 H   0  0  0  0  0  0  0  0  0  0  0  0
   -0.6961   -0.1841   -2.1547 H   0  0  0  0  0  0  0  0  0  0  0  0
   -0.5389    1.5730   -2.0744 H   0  0  0  0  0  0  0  0  0  0  0  0
   -0.8337    1.2239    1.8146 H   0  0  0  0  0  0  0  0  0  0  0  0
    0.2397    2.0986    0.6256 H   0  0  0  0  0  0  0  0  0  0  0  0
    0.3424   -0.9135    1.1427 H   0  0  0  0  0  0  0  0  0  0  0  0
    1.3877    0.3608    2.0067 H   0  0  0  0  0  0  0  0  0  0  0  0
    3.6297    0.8945   -1.8412 H   0  0  0  0  0  0  0  0  0  0  0  0
    6.0068    0.6648   -1.5186 H   0  0  0  0  0  0  0  0  0  0  0  0
    5.4170   -1.0111    2.3111 H   0  0  0  0  0  0  0  0  0  0  0  0
    2.9859   -0.8270    2.0770 H   0  0  0  0  0  0  0  0  0  0  0  0
   -5.6409   -0.8540   -2.2580 H   0  0  0  0  0  0  0  0  0  0  0  0
   -7.5911   -0.6046    1.5838 H   0  0  0  0  0  0  0  0  0  0  0  0
   -5.4021    0.1391    2.5886 H   0  0  0  0  0  0  0  0  0  0  0  0
   -2.7840    0.6758    1.9585 H   0  0  0  0  0  0  0  0  0  0  0  0
  1  2  1  0
  2  3  1  0
  3  4  1  0
  4  5  1  0
  5  6  1  0
  6  7  1  0
  7  8  1  0
  8  9  2  0
  9 10  1  0
 10 11  2  0
 11 12  1  0
 12 13  2  0
 11 14  1  0
 14 15  3  0
  4 16  1  0
 16 17  2  0
 17 18  1  0
 18 19  2  0
 19 20  1  0
 20 21  1  0
 20 22  2  0
 22 23  1  0
 23 24  2  0
 24 25  1  0
  7  2  1  0
 13  8  1  0
 25 16  1  0
 24 18  1  0
  1 26  1  0
  1 27  1  0
  1 28  1  0
  2 29  1  6
  3 30  1  0
  3 31  1  0
  5 32  1  0
  5 33  1  0
  6 34  1  0
  6 35  1  0
  9 36  1  0
 10 37  1  0
 12 38  1  0
 13 39  1  0
 19 40  1  0
 22 41  1  0
 23 42  1  0
 25 43  1  0
M  END
$$$$
[H]c1c([H])c(C(F)(F)F)c([H])c([H])c1N1C([H])([H])C([H])([H])N(c2nc3c([H])c(F)c([H])c([H])c3n2[H])C([H])([H])[C@@]1([H])C([H])([H])[H]
     RDKit          3D

 45 48  0  0  0  0  0  0  0  0999 V2000
   -0.9839    0.2046    2.4359 C   0  0  0  0  0  0  0  0  0  0  0  0
   -0.9368   -0.5720    1.1145 C   0  0  2  0  0  0  0  0  0  0  0  0
    0.4724   -0.9549    0.7492 C   0  0  0  0  0  0  0  0  0  0  0  0
    1.2670    0.1693    0.2925 N   0  0  0  0  0  0  0  0  0  0  0  0
    0.6098    1.3853   -0.0722 C   0  0  0  0  0  0  0  0  0  0  0  0
   -0.6757    1.0701   -0.7677 C   0  0  0  0  0  0  0  0  0  0  0  0
   -1.5133    0.2117    0.0351 N   0  0  0  0  0  0  0  0  0  0  0  0
   -2.8970    0.0828   -0.2281 C   0  0  0  0  0  0  0  0  0  0  0  0
   -3.6110    1.1997   -0.6393 C   0  0  0  0  0  0  0  0  0  0  0  0
   -4.9539    1.2058   -0.9231 C   0  0  0  0  0  0  0  0  0  0  0  0
   -5.6395    0.0076   -0.7903 C   0  0  0  0  0  0  0  0  0  0  0  0
   -4.9640   -1.1136   -0.3875 C   0  0  0  0  0  0  0  0  0  0  0  0
   -3.6120   -1.0941   -0.1078 C   0  0  0  0  0  0  0  0  0  0  0  0
   -7.0922   -0.0512   -1.1131 C   0  0  0  0  0  0  0  0  0  0  0  0
   -7.2791   -1.1370   -1.9045 F   0  0  0  0  0  0  0  0  0  0  0  0
   -7.4109    1.1026   -1.8149 F   0  0  0  0  0  0  0  0  0  0  0  0
   -7.8547   -0.0960    0.0436 F   0  0  0  0  0  0  0  0  0  0  0  0
    2.6953    0.0312    0.2296 C   0  0  0  0  0  0  0  0  0  0  0  0
    3.5721    0.9312   -0.1840 N   0  0  0  0  0  0  0  0  0  0  0  0
    4.8539    0.4703   -0.1012 C   0  0  0  0  0  0  0  0  0  0  0  0
    6.0825    1.0116   -0.3983 C   0  0  0  0  0  0  0  0  0  0  0  0
    7.2279    0.2745   -0.1951 C   0  0  0  0  0  0  0  0  0  0  0  0
    8.4715    0.7492   -0.4599 F   0  0  0  0  0  0  0  0  0  0  0  0
    7.1077   -1.0105    0.3121 C   0  0  0  0  0  0  0  0  0  0  0  0
    5.8858   -1.5344    0.6026 C   0  0  0  0  0  0  0  0  0  0  0  0
    4.7126   -0.8111    0.4069 C   0  0  0  0  0  0  0  0  0  0  0  0
    3.4045   -1.0525    0.5983 N   0  0  0  0  0  0  0  0  0  0  0  0
   -1.7694   -0.1972    3.0946 H   0  0  0  0  0  0  0  0  0  0  0  0
   -1.2516    1.2483    2.1737 H   0  0  0  0  0  0  0  0  0  0  0  0
    0.0115    0.2338    2.9112 H   0  0  0  0  0  0  0  0  0  0  0  0
   -1.5182   -1.4867    1.3020 H   0  0  0  0  0  0  0  0  0  0  0  0
    1.0209   -1.4814    1.5849 H   0  0  0  0  0  0  0  0  0  0  0  0
    0.4783   -1.7097   -0.0905 H   0  0  0  0  0  0  0  0  0  0  0  0
    1.2598    1.9304   -0.8275 H   0  0  0  0  0  0  0  0  0  0  0  0
    0.4988    2.0728    0.7878 H   0  0  0  0  0  0  0  0  0  0  0  0
   -0.4143    0.4936   -1.7076 H   0  0  0  0  0  0  0  0  0  0  0  0
   -1.1287    2.0308   -1.0513 H   0  0  0  0  0  0  0  0  0  0  0  0
   -3.0949    2.1587   -0.7366 H   0  0  0  0  0  0  0  0  0  0  0  0
   -5.4886    2.0920   -1.2499 H   0  0  0  0  0  0  0  0  0  0  0  0
   -5.4625   -2.0441   -0.2886 H   0  0  0  0  0  0  0  0  0  0  0  0
   -3.0748   -1.9699    0.1926 H   0  0  0  0  0  0  0  0  0  0  0  0
    6.1907    2.0093   -0.8000 H   0  0  0  0  0  0  0  0  0  0  0  0
    8.0251   -1.6036    0.4738 H   0  0  0  0  0  0  0  0  0  0  0  0
    5.7847   -2.5257    0.9914 H   0  0  0  0  0  0  0  0  0  0  0  0
    2.9946   -1.9318    0.9724 H   0  0  0  0  0  0  0  0  0  0  0  0
  1  2  1  0
  2  3  1  0
  3  4  1  0
  4  5  1  0
  5  6  1  0
  6  7  1  0
  7  8  1  0
  8  9  2  0
  9 10  1  0
 10 11  2  0
 11 12  1  0
 12 13  2  0
 11 14  1  0
 14 15  1  0
 14 16  1  0
 14 17  1  0
  4 18  1  0
 18 19  2  0
 19 20  1  0
 20 21  2  0
 21 22  1  0
 22 23  1  0
 22 24  2  0
 24 25  1  0
 25 26  2  0
 26 27  1  0
  7  2  1  0
 13  8  1  0
 27 18  1  0
 26 20  1  0
  1 28  1  0
  1 29  1  0
  1 30  1  0
  2 31  1  1
  3 32  1  0
  3 33  1  0
  5 34  1  0
  5 35  1  0
  6 36  1  0
  6 37  1  0
  9 38  1  0
 10 39  1  0
 12 40  1  0
 13 41  1  0
 21 42  1  0
 24 43  1  0
 25 44  1  0
 27 45  1  0
M  END
$$$$
[H]c1c([H])c(N2C([H])([H])C([H])([H])N(c3nc4c([H])c(C(F)(F)F)c([H])c([H])c4n3[H])C([H])([H])[C@@]2([H])C([H])([H])[H])c([H])c([H])c1F
     RDKit          3D

 45 48  0  0  0  0  0  0  0  0999 V2000
   -1.3558   -1.2142   -1.6725 C   0  0  0  0  0  0  0  0  0  0  0  0
   -1.8959   -0.0529   -0.8865 C   0  0  2  0  0  0  0  0  0  0  0  0
   -0.7782    0.8516   -0.3262 C   0  0  0  0  0  0  0  0  0  0  0  0
    0.0862   -0.0256    0.4638 N   0  0  0  0  0  0  0  0  0  0  0  0
   -0.4178   -1.0272    1.3427 C   0  0  0  0  0  0  0  0  0  0  0  0
   -1.8942   -1.0901    1.4143 C   0  0  0  0  0  0  0  0  0  0  0  0
   -2.6037   -0.5325    0.3233 N   0  0  0  0  0  0  0  0  0  0  0  0
   -4.0016   -0.3604    0.3000 C   0  0  0  0  0  0  0  0  0  0  0  0
   -4.5516    0.8359    0.7946 C   0  0  0  0  0  0  0  0  0  0  0  0
   -5.9377    1.0423    0.7549 C   0  0  0  0  0  0  0  0  0  0  0  0
   -6.8220    0.1174    0.2466 C   0  0  0  0  0  0  0  0  0  0  0  0
   -8.1438    0.3306    0.2343 F   0  0  0  0  0  0  0  0  0  0  0  0
   -6.2681   -1.0465   -0.2330 C   0  0  0  0  0  0  0  0  0  0  0  0
   -4.8814   -1.2863   -0.2096 C   0  0  0  0  0  0  0  0  0  0  0  0
    1.4929    0.2088    0.2792 C   0  0  0  0  0  0  0  0  0  0  0  0
    2.5459   -0.5629    0.6021 N   0  0  0  0  0  0  0  0  0  0  0  0
    3.7206    0.0139    0.2720 C   0  0  0  0  0  0  0  0  0  0  0  0
    5.0462   -0.3994    0.3687 C   0  0  0  0  0  0  0  0  0  0  0  0
    6.0942    0.3839   -0.0774 C   0  0  0  0  0  0  0  0  0  0  0  0
    5.7448    1.5971   -0.6250 C   0  0  0  0  0  0  0  0  0  0  0  0
    4.4337    2.0114   -0.7307 C   0  0  0  0  0  0  0  0  0  0  0  0
    3.3945    1.2133   -0.2790 C   0  0  0  0  0  0  0  0  0  0  0  0
    2.0522    1.3080   -0.2652 N   0  0  0  0  0  0  0  0  0  0  0  0
    7.4951   -0.1114   -0.0322 C   0  0  0  0  0  0  0  0  0  0  0  0
    7.6640   -0.8274    1.1026 F   0  0  0  0  0  0  0  0  0  0  0  0
    8.4194    0.9048   -0.1983 F   0  0  0  0  0  0  0  0  0  0  0  0
    7.6680   -1.0137   -1.0858 F   0  0  0  0  0  0  0  0  0  0  0  0
   -1.9437   -2.1293   -1.3904 H   0  0  0  0  0  0  0  0  0  0  0  0
   -0.2811   -1.4166   -1.4542 H   0  0  0  0  0  0  0  0  0  0  0  0
   -1.4580   -1.1115   -2.7570 H   0  0  0  0  0  0  0  0  0  0  0  0
   -2.5211    0.5571   -1.5209 H   0  0  0  0  0  0  0  0  0  0  0  0
   -0.2910    1.3790   -1.1206 H   0  0  0  0  0  0  0  0  0  0  0  0
   -1.2582    1.5408    0.3692 H   0  0  0  0  0  0  0  0  0  0  0  0
   -0.0509   -0.7499    2.3814 H   0  0  0  0  0  0  0  0  0  0  0  0
    0.0495   -2.0333    1.1367 H   0  0  0  0  0  0  0  0  0  0  0  0
   -2.1703   -2.2013    1.5380 H   0  0  0  0  0  0  0  0  0  0  0  0
   -2.2368   -0.6078    2.3858 H   0  0  0  0  0  0  0  0  0  0  0  0
   -3.8979    1.5841    1.1966 H   0  0  0  0  0  0  0  0  0  0  0  0
   -6.3720    1.9604    1.1307 H   0  0  0  0  0  0  0  0  0  0  0  0
   -6.9002   -1.8038   -0.6346 H   0  0  0  0  0  0  0  0  0  0  0  0
   -4.4608   -2.2228   -0.5907 H   0  0  0  0  0  0  0  0  0  0  0  0
    5.3201   -1.3411    0.7903 H   0  0  0  0  0  0  0  0  0  0  0  0
    6.5435    2.2303   -0.9928 H   0  0  0  0  0  0  0  0  0  0  0  0
    4.1179    2.9542   -1.1687 H   0  0  0  0  0  0  0  0  0  0  0  0
    1.5049    2.1429   -0.6263 H   0  0  0  0  0  0  0  0  0  0  0  0
  1  2  1  0
  2  3  1  0
  3  4  1  0
  4  5  1  0
  5  6  1  0
  6  7  1  0
  7  8  1  0
  8  9  2  0
  9 10  1  0
 10 11  2  0
 11 12  1  0
 11 13  1  0
 13 14  2  0
  4 15  1  0
 15 16  2  0
 16 17  1  0
 17 18  2  0
 18 19  1  0
 19 20  2  0
 20 21  1  0
 21 22  2  0
 22 23  1  0
 19 24  1  0
 24 25  1  0
 24 26  1  0
 24 27  1  0
  7  2  1  0
 14  8  1  0
 23 15  1  0
 22 17  1  0
  1 28  1  0
  1 29  1  0
  1 30  1  0
  2 31  1  6
  3 32  1  0
  3 33  1  0
  5 34  1  0
  5 35  1  0
  6 36  1  0
  6 37  1  0
  9 38  1  0
 10 39  1  0
 13 40  1  0
 14 41  1  0
 18 42  1  0
 20 43  1  0
 21 44  1  0
 23 45  1  0
M  END
$$$$
[H]c1c([H])c(N2C([H])([H])C([H])([H])N(c3nc4c([H])c(C#N)c([H])c([H])c4n3[H])C([H])([H])[C@@]2([H])C([H])([H])[H])c([H])c([H])c1F
     RDKit          3D

 43 46  0  0  0  0  0  0  0  0999 V2000
    2.4841    1.9482   -2.3333 C   0  0  0  0  0  0  0  0  0  0  0  0
    1.6119    0.7556   -2.2031 C   0  0  2  0  0  0  0  0  0  0  0  0
    0.1870    1.1294   -1.7804 C   0  0  0  0  0  0  0  0  0  0  0  0
   -0.4919   -0.1115   -1.4884 N   0  0  0  0  0  0  0  0  0  0  0  0
    0.0019   -1.3479   -2.0505 C   0  0  0  0  0  0  0  0  0  0  0  0
    1.4330   -1.5922   -1.5422 C   0  0  0  0  0  0  0  0  0  0  0  0
    2.0329   -0.2531   -1.2724 N   0  0  0  0  0  0  0  0  0  0  0  0
    2.8855   -0.1230   -0.1711 C   0  0  0  0  0  0  0  0  0  0  0  0
    3.5334   -1.2757    0.2872 C   0  0  0  0  0  0  0  0  0  0  0  0
    4.3738   -1.2301    1.3759 C   0  0  0  0  0  0  0  0  0  0  0  0
    4.6026   -0.0562    2.0448 C   0  0  0  0  0  0  0  0  0  0  0  0
    5.4252   -0.0483    3.0983 F   0  0  0  0  0  0  0  0  0  0  0  0
    3.9893    1.1014    1.6328 C   0  0  0  0  0  0  0  0  0  0  0  0
    3.1478    1.0279    0.5341 C   0  0  0  0  0  0  0  0  0  0  0  0
   -1.6494   -0.1145   -0.6456 C   0  0  0  0  0  0  0  0  0  0  0  0
   -2.2433    0.9275   -0.0436 N   0  0  0  0  0  0  0  0  0  0  0  0
   -3.3144    0.5419    0.6739 C   0  0  0  0  0  0  0  0  0  0  0  0
   -4.2504    1.1895    1.4607 C   0  0  0  0  0  0  0  0  0  0  0  0
   -5.2761    0.5259    2.0998 C   0  0  0  0  0  0  0  0  0  0  0  0
   -5.3452   -0.8411    1.9278 C   0  0  0  0  0  0  0  0  0  0  0  0
   -4.4179   -1.5088    1.1439 C   0  0  0  0  0  0  0  0  0  0  0  0
   -3.4003   -0.8238    0.5143 C   0  0  0  0  0  0  0  0  0  0  0  0
   -2.3724   -1.1935   -0.2945 N   0  0  0  0  0  0  0  0  0  0  0  0
   -6.2515    1.2144    2.9219 C   0  0  0  0  0  0  0  0  0  0  0  0
   -7.0407    1.7670    3.5637 N   0  0  0  0  0  0  0  0  0  0  0  0
    3.5164    1.7568   -2.0121 H   0  0  0  0  0  0  0  0  0  0  0  0
    2.0277    2.8511   -1.8718 H   0  0  0  0  0  0  0  0  0  0  0  0
    2.5602    2.2171   -3.4268 H   0  0  0  0  0  0  0  0  0  0  0  0
    1.5416    0.2427   -3.2184 H   0  0  0  0  0  0  0  0  0  0  0  0
    0.2260    1.7079   -0.8380 H   0  0  0  0  0  0  0  0  0  0  0  0
   -0.3241    1.6812   -2.5956 H   0  0  0  0  0  0  0  0  0  0  0  0
    0.0993   -1.2895   -3.1591 H   0  0  0  0  0  0  0  0  0  0  0  0
   -0.5849   -2.2343   -1.7471 H   0  0  0  0  0  0  0  0  0  0  0  0
    1.9981   -2.1384   -2.2883 H   0  0  0  0  0  0  0  0  0  0  0  0
    1.3359   -2.1547   -0.5955 H   0  0  0  0  0  0  0  0  0  0  0  0
    3.3413   -2.1884   -0.2522 H   0  0  0  0  0  0  0  0  0  0  0  0
    4.8488   -2.1478    1.6885 H   0  0  0  0  0  0  0  0  0  0  0  0
    4.1605    2.0377    2.1519 H   0  0  0  0  0  0  0  0  0  0  0  0
    2.6775    1.9437    0.2458 H   0  0  0  0  0  0  0  0  0  0  0  0
   -4.1914    2.2604    1.5919 H   0  0  0  0  0  0  0  0  0  0  0  0
   -6.1471   -1.3831    2.4237 H   0  0  0  0  0  0  0  0  0  0  0  0
   -4.5053   -2.5736    1.0344 H   0  0  0  0  0  0  0  0  0  0  0  0
   -2.2352   -2.1979   -0.5577 H   0  0  0  0  0  0  0  0  0  0  0  0
  1  2  1  0
  2  3  1  0
  3  4  1  0
  4  5  1  0
  5  6  1  0
  6  7  1  0
  7  8  1  0
  8  9  2  0
  9 10  1  0
 10 11  2  0
 11 12  1  0
 11 13  1  0
 13 14  2  0
  4 15  1  0
 15 16  2  0
 16 17  1  0
 17 18  2  0
 18 19  1  0
 19 20  2  0
 20 21  1  0
 21 22  2  0
 22 23  1  0
 19 24  1  0
 24 25  3  0
  7  2  1  0
 14  8  1  0
 23 15  1  0
 22 17  1  0
  1 26  1  0
  1 27  1  0
  1 28  1  0
  2 29  1  6
  3 30  1  0
  3 31  1  0
  5 32  1  0
  5 33  1  0
  6 34  1  0
  6 35  1  0
  9 36  1  0
 10 37  1  0
 13 38  1  0
 14 39  1  0
 18 40  1  0
 20 41  1  0
 21 42  1  0
 23 43  1  0
M  END
$$$$
[H]c1c([H])c(N2C([H])([H])C([H])([H])N(c3nc4c([H])c([H])c([H])c([H])c4n3[H])C([H])([H])[C@]2([H])C([H])([H])[H])c([H])c([H])c1C#N
     RDKit          3D

 43 46  0  0  0  0  0  0  0  0999 V2000
    0.5056   -1.1680   -1.3528 C   0  0  0  0  0  0  0  0  0  0  0  0
    0.9209    0.2636   -1.2024 C   0  0  1  0  0  0  0  0  0  0  0  0
   -0.2844    1.1617   -0.9128 C   0  0  0  0  0  0  0  0  0  0  0  0
   -0.8648    0.6711    0.3271 N   0  0  0  0  0  0  0  0  0  0  0  0
   -0.0754    0.5025    1.5284 C   0  0  0  0  0  0  0  0  0  0  0  0
    1.3971    0.6838    1.2645 C   0  0  0  0  0  0  0  0  0  0  0  0
    1.8023    0.3578   -0.0639 N   0  0  0  0  0  0  0  0  0  0  0  0
    3.2000    0.0948   -0.2957 C   0  0  0  0  0  0  0  0  0  0  0  0
    4.1401    0.2637    0.7156 C   0  0  0  0  0  0  0  0  0  0  0  0
    5.4727    0.0051    0.4831 C   0  0  0  0  0  0  0  0  0  0  0  0
    5.9369   -0.4263   -0.7401 C   0  0  0  0  0  0  0  0  0  0  0  0
    5.0157   -0.5975   -1.7504 C   0  0  0  0  0  0  0  0  0  0  0  0
    3.6754   -0.3368   -1.5141 C   0  0  0  0  0  0  0  0  0  0  0  0
    7.3229   -0.6969   -0.9873 C   0  0  0  0  0  0  0  0  0  0  0  0
    8.4437   -0.9057   -1.2046 N   0  0  0  0  0  0  0  0  0  0  0  0
   -2.2472    0.3388    0.3904 C   0  0  0  0  0  0  0  0  0  0  0  0
   -3.1622    0.4197   -0.6081 N   0  0  0  0  0  0  0  0  0  0  0  0
   -4.3750    0.0244   -0.1937 C   0  0  0  0  0  0  0  0  0  0  0  0
   -5.5977   -0.0711   -0.8242 C   0  0  0  0  0  0  0  0  0  0  0  0
   -6.6945   -0.5229   -0.1234 C   0  0  0  0  0  0  0  0  0  0  0  0
   -6.5431   -0.8736    1.2083 C   0  0  0  0  0  0  0  0  0  0  0  0
   -5.3227   -0.7685    1.8037 C   0  0  0  0  0  0  0  0  0  0  0  0
   -4.2097   -0.3208    1.1297 C   0  0  0  0  0  0  0  0  0  0  0  0
   -2.9206   -0.1216    1.4535 N   0  0  0  0  0  0  0  0  0  0  0  0
    1.1943   -1.8806   -0.8208 H   0  0  0  0  0  0  0  0  0  0  0  0
   -0.4969   -1.3294   -0.8679 H   0  0  0  0  0  0  0  0  0  0  0  0
    0.4777   -1.5097   -2.4081 H   0  0  0  0  0  0  0  0  0  0  0  0
    1.3701    0.6974   -2.1221 H   0  0  0  0  0  0  0  0  0  0  0  0
   -1.0216    1.1060   -1.7142 H   0  0  0  0  0  0  0  0  0  0  0  0
    0.1029    2.1742   -0.7021 H   0  0  0  0  0  0  0  0  0  0  0  0
   -0.3023   -0.4663    2.0189 H   0  0  0  0  0  0  0  0  0  0  0  0
   -0.3846    1.2992    2.2375 H   0  0  0  0  0  0  0  0  0  0  0  0
    1.7771    1.6795    1.5297 H   0  0  0  0  0  0  0  0  0  0  0  0
    1.9108   -0.0567    1.9472 H   0  0  0  0  0  0  0  0  0  0  0  0
    3.8111    0.6040    1.6941 H   0  0  0  0  0  0  0  0  0  0  0  0
    6.2140    0.1328    1.2627 H   0  0  0  0  0  0  0  0  0  0  0  0
    5.3520   -0.9385   -2.7320 H   0  0  0  0  0  0  0  0  0  0  0  0
    2.9851   -0.4915   -2.3530 H   0  0  0  0  0  0  0  0  0  0  0  0
   -5.7453    0.1952   -1.8610 H   0  0  0  0  0  0  0  0  0  0  0  0
   -7.6525   -0.5963   -0.6222 H   0  0  0  0  0  0  0  0  0  0  0  0
   -7.4192   -1.2261    1.7392 H   0  0  0  0  0  0  0  0  0  0  0  0
   -5.2110   -1.0421    2.8374 H   0  0  0  0  0  0  0  0  0  0  0  0
   -2.4976   -0.3009    2.4059 H   0  0  0  0  0  0  0  0  0  0  0  0
  1  2  1  0
  2  3  1  0
  3  4  1  0
  4  5  1  0
  5  6  1  0
  6  7  1  0
  7  8  1  0
  8  9  2  0
  9 10  1  0
 10 11  2  0
 11 12  1  0
 12 13  2  0
 11 14  1  0
 14 15  3  0
  4 16  1  0
 16 17  2  0
 17 18  1  0
 18 19  2  0
 19 20  1  0
 20 21  2  0
 21 22  1  0
 22 23  2  0
 23 24  1  0
  7  2  1  0
 13  8  1  0
 24 16  1  0
 23 18  1  0
  1 25  1  0
  1 26  1  0
  1 27  1  0
  2 28  1  6
  3 29  1  0
  3 30  1  0
  5 31  1  0
  5 32  1  0
  6 33  1  0
  6 34  1  0
  9 35  1  0
 10 36  1  0
 12 37  1  0
 13 38  1  0
 19 39  1  0
 20 40  1  0
 21 41  1  0
 22 42  1  0
 24 43  1  0
M  END
$$$$
[H]c1c([H])c([H])c(N([H])S(=O)(=O)c2c([H])c([H])c3c(nc(N4C([H])([H])C([H])([H])N(c5c([H])c([H])c(F)c([H])c5[H])[C@]([H])(C([H])([H])[H])C4([H])[H])n3[H])c2[H])c([H])c1[H]
     RDKit          3D

 57 61  0  0  0  0  0  0  0  0999 V2000
   -5.4938   -1.8343    0.6243 C   0  0  0  0  0  0  0  0  0  0  0  0
   -4.3684   -1.4812   -0.2659 C   0  0  2  0  0  0  0  0  0  0  0  0
   -2.9902   -1.7773    0.3595 C   0  0  0  0  0  0  0  0  0  0  0  0
   -1.9810   -1.1720   -0.4970 N   0  0  0  0  0  0  0  0  0  0  0  0
   -2.2486   -0.7188   -1.8269 C   0  0  0  0  0  0  0  0  0  0  0  0
   -3.5380   -0.0011   -2.0285 C   0  0  0  0  0  0  0  0  0  0  0  0
   -4.3341   -0.1559   -0.7928 N   0  0  0  0  0  0  0  0  0  0  0  0
   -4.9483    1.0016   -0.2522 C   0  0  0  0  0  0  0  0  0  0  0  0
   -5.2327    1.1955    1.0743 C   0  0  0  0  0  0  0  0  0  0  0  0
   -5.8496    2.3407    1.5171 C   0  0  0  0  0  0  0  0  0  0  0  0
   -6.2051    3.3395    0.6389 C   0  0  0  0  0  0  0  0  0  0  0  0
   -6.8230    4.4823    1.0952 F   0  0  0  0  0  0  0  0  0  0  0  0
   -5.9330    3.1757   -0.7003 C   0  0  0  0  0  0  0  0  0  0  0  0
   -5.3119    2.0203   -1.1409 C   0  0  0  0  0  0  0  0  0  0  0  0
   -0.6730   -1.0339    0.0304 C   0  0  0  0  0  0  0  0  0  0  0  0
    0.3001   -1.9550   -0.1066 N   0  0  0  0  0  0  0  0  0  0  0  0
    1.4156   -1.5269    0.5052 C   0  0  0  0  0  0  0  0  0  0  0  0
    2.6493   -2.0975    0.6406 C   0  0  0  0  0  0  0  0  0  0  0  0
    3.6499   -1.4295    1.3363 C   0  0  0  0  0  0  0  0  0  0  0  0
    3.3676   -0.1945    1.8775 C   0  0  0  0  0  0  0  0  0  0  0  0
    2.1114    0.3788    1.7356 C   0  0  0  0  0  0  0  0  0  0  0  0
    1.1171   -0.2739    1.0500 C   0  0  0  0  0  0  0  0  0  0  0  0
   -0.1622   -0.0082    0.7403 N   0  0  0  0  0  0  0  0  0  0  0  0
    5.2415   -2.1341    1.5242 S   0  0  0  0  0  0  0  0  0  0  0  0
    5.0917   -3.6272    1.4939 O   0  0  0  0  0  0  0  0  0  0  0  0
    5.8432   -1.7849    2.8537 O   0  0  0  0  0  0  0  0  0  0  0  0
    6.1989   -1.6177    0.2117 N   0  0  0  0  0  0  0  0  0  0  0  0
    6.5054   -0.2490   -0.0438 C   0  0  0  0  0  0  0  0  0  0  0  0
    6.9112    0.6322    0.9325 C   0  0  0  0  0  0  0  0  0  0  0  0
    7.2086    1.9478    0.6926 C   0  0  0  0  0  0  0  0  0  0  0  0
    7.1005    2.4326   -0.5929 C   0  0  0  0  0  0  0  0  0  0  0  0
    6.6979    1.5891   -1.6047 C   0  0  0  0  0  0  0  0  0  0  0  0
    6.4021    0.2512   -1.3251 C   0  0  0  0  0  0  0  0  0  0  0  0
   -6.3648   -1.1749    0.6023 H   0  0  0  0  0  0  0  0  0  0  0  0
   -5.9005   -2.8618    0.3822 H   0  0  0  0  0  0  0  0  0  0  0  0
   -5.0929   -1.9588    1.6726 H   0  0  0  0  0  0  0  0  0  0  0  0
   -4.3853   -2.1906   -1.1551 H   0  0  0  0  0  0  0  0  0  0  0  0
   -2.8326   -2.8720    0.3139 H   0  0  0  0  0  0  0  0  0  0  0  0
   -2.9309   -1.4650    1.4031 H   0  0  0  0  0  0  0  0  0  0  0  0
   -1.4045   -0.0704   -2.1832 H   0  0  0  0  0  0  0  0  0  0  0  0
   -2.2959   -1.6458   -2.4745 H   0  0  0  0  0  0  0  0  0  0  0  0
   -4.1632   -0.4460   -2.8238 H   0  0  0  0  0  0  0  0  0  0  0  0
   -3.3253    1.0749   -2.1904 H   0  0  0  0  0  0  0  0  0  0  0  0
   -4.9575    0.4280    1.8098 H   0  0  0  0  0  0  0  0  0  0  0  0
   -6.0804    2.5019    2.5773 H   0  0  0  0  0  0  0  0  0  0  0  0
   -6.2200    3.9730   -1.3781 H   0  0  0  0  0  0  0  0  0  0  0  0
   -5.1304    1.9530   -2.2056 H   0  0  0  0  0  0  0  0  0  0  0  0
    2.8162   -3.0674    0.1964 H   0  0  0  0  0  0  0  0  0  0  0  0
    4.1556    0.3122    2.4159 H   0  0  0  0  0  0  0  0  0  0  0  0
    1.9057    1.3513    2.1679 H   0  0  0  0  0  0  0  0  0  0  0  0
   -0.6505    0.8685    1.0237 H   0  0  0  0  0  0  0  0  0  0  0  0
    6.5799   -2.3419   -0.4376 H   0  0  0  0  0  0  0  0  0  0  0  0
    6.9991    0.2668    1.9367 H   0  0  0  0  0  0  0  0  0  0  0  0
    7.5274    2.6239    1.4825 H   0  0  0  0  0  0  0  0  0  0  0  0
    7.3375    3.4702   -0.7677 H   0  0  0  0  0  0  0  0  0  0  0  0
    6.6122    1.9736   -2.6236 H   0  0  0  0  0  0  0  0  0  0  0  0
    6.0824   -0.4172   -2.1310 H   0  0  0  0  0  0  0  0  0  0  0  0
  1  2  1  0
  2  3  1  0
  3  4  1  0
  4  5  1  0
  5  6  1  0
  6  7  1  0
  7  8  1  0
  8  9  2  0
  9 10  1  0
 10 11  2  0
 11 12  1  0
 11 13  1  0
 13 14  2  0
  4 15  1  0
 15 16  2  0
 16 17  1  0
 17 18  2  0
 18 19  1  0
 19 20  2  0
 20 21  1  0
 21 22  2  0
 22 23  1  0
 19 24  1  0
 24 25  2  0
 24 26  2  0
 24 27  1  0
 27 28  1  0
 28 29  2  0
 29 30  1  0
 30 31  2  0
 31 32  1  0
 32 33  2  0
  7  2  1  0
 14  8  1  0
 23 15  1  0
 33 28  1  0
 22 17  1  0
  1 34  1  0
  1 35  1  0
  1 36  1  0
  2 37  1  6
  3 38  1  0
  3 39  1  0
  5 40  1  0
  5 41  1  0
  6 42  1  0
  6 43  1  0
  9 44  1  0
 10 45  1  0
 13 46  1  0
 14 47  1  0
 18 48  1  0
 20 49  1  0
 21 50  1  0
 23 51  1  0
 27 52  1  0
 29 53  1  0
 30 54  1  0
 31 55  1  0
 32 56  1  0
 33 57  1  0
M  END
$$$$
[H]c1c([H])c(-c2nc3c([H])c(-c4c([H])c([H])c(S(=O)(=O)N([H])[H])c([H])c4[H])c([H])c([H])c3n2[H])c([H])c([H])c1F
     RDKit          3D

 40 43  0  0  0  0  0  0  0  0999 V2000
   -6.9939    2.6713   -0.0443 N   0  0  0  0  0  0  0  0  0  0  0  0
   -6.8433    1.0171   -0.5216 S   0  0  0  0  0  0  0  0  0  0  0  0
   -7.8169    0.1988    0.2624 O   0  0  0  0  0  0  0  0  0  0  0  0
   -7.0890    0.9398   -1.9924 O   0  0  0  0  0  0  0  0  0  0  0  0
   -5.1932    0.5396   -0.2147 C   0  0  0  0  0  0  0  0  0  0  0  0
   -4.8276    0.0055    1.0148 C   0  0  0  0  0  0  0  0  0  0  0  0
   -3.5328   -0.3729    1.2714 C   0  0  0  0  0  0  0  0  0  0  0  0
   -2.5720   -0.2114    0.2654 C   0  0  0  0  0  0  0  0  0  0  0  0
   -2.9679    0.3250   -0.9520 C   0  0  0  0  0  0  0  0  0  0  0  0
   -4.2663    0.7068   -1.2166 C   0  0  0  0  0  0  0  0  0  0  0  0
   -1.1982   -0.6089    0.5259 C   0  0  0  0  0  0  0  0  0  0  0  0
   -0.9065   -1.6592    1.3604 C   0  0  0  0  0  0  0  0  0  0  0  0
    0.4282   -1.9889    1.5748 C   0  0  0  0  0  0  0  0  0  0  0  0
    1.4535   -1.2983    0.9796 C   0  0  0  0  0  0  0  0  0  0  0  0
    2.8113   -1.4298    1.0352 N   0  0  0  0  0  0  0  0  0  0  0  0
    3.3266   -0.4732    0.2463 C   0  0  0  0  0  0  0  0  0  0  0  0
    2.3141    0.2335   -0.2851 N   0  0  0  0  0  0  0  0  0  0  0  0
    1.1520   -0.2404    0.1393 C   0  0  0  0  0  0  0  0  0  0  0  0
   -0.1728    0.0837   -0.0712 C   0  0  0  0  0  0  0  0  0  0  0  0
    4.7371   -0.1902   -0.0308 C   0  0  0  0  0  0  0  0  0  0  0  0
    5.7092   -0.9658    0.5632 C   0  0  0  0  0  0  0  0  0  0  0  0
    7.0407   -0.7114    0.3133 C   0  0  0  0  0  0  0  0  0  0  0  0
    7.4510    0.3048   -0.5215 C   0  0  0  0  0  0  0  0  0  0  0  0
    8.7492    0.5747   -0.7842 F   0  0  0  0  0  0  0  0  0  0  0  0
    6.4496    1.0681   -1.1046 C   0  0  0  0  0  0  0  0  0  0  0  0
    5.1181    0.8325   -0.8696 C   0  0  0  0  0  0  0  0  0  0  0  0
   -6.4775    3.3204   -0.6632 H   0  0  0  0  0  0  0  0  0  0  0  0
   -6.6962    2.7527    0.9691 H   0  0  0  0  0  0  0  0  0  0  0  0
   -5.5718   -0.1182    1.7908 H   0  0  0  0  0  0  0  0  0  0  0  0
   -3.2137   -0.7963    2.2310 H   0  0  0  0  0  0  0  0  0  0  0  0
   -2.1658    0.4251   -1.6999 H   0  0  0  0  0  0  0  0  0  0  0  0
   -4.4943    1.1154   -2.1882 H   0  0  0  0  0  0  0  0  0  0  0  0
   -1.6973   -2.2395    1.8583 H   0  0  0  0  0  0  0  0  0  0  0  0
    0.6565   -2.8219    2.2369 H   0  0  0  0  0  0  0  0  0  0  0  0
    3.3562   -2.1374    1.5851 H   0  0  0  0  0  0  0  0  0  0  0  0
   -0.3448    0.9260   -0.7440 H   0  0  0  0  0  0  0  0  0  0  0  0
    5.4002   -1.7753    1.2288 H   0  0  0  0  0  0  0  0  0  0  0  0
    7.8036   -1.3239    0.7820 H   0  0  0  0  0  0  0  0  0  0  0  0
    6.7547    1.8777   -1.7703 H   0  0  0  0  0  0  0  0  0  0  0  0
    4.3298    1.4447   -1.3375 H   0  0  0  0  0  0  0  0  0  0  0  0
  1  2  1  0
  2  3  2  0
  2  4  2  0
  2  5  1  0
  5  6  2  0
  6  7  1  0
  7  8  2  0
  8  9  1  0
  9 10  2  0
  8 11  1  0
 11 12  2  0
 12 13  1  0
 13 14  2  0
 14 15  1  0
 15 16  1  0
 16 17  2  0
 17 18  1  0
 18 19  2  0
 16 20  1  0
 20 21  2  0
 21 22  1  0
 22 23  2  0
 23 24  1  0
 23 25  1  0
 25 26  2  0
 10  5  1  0
 19 11  1  0
 26 20  1  0
 18 14  1  0
  1 27  1  0
  1 28  1  0
  6 29  1  0
  7 30  1  0
  9 31  1  0
 10 32  1  0
 12 33  1  0
 13 34  1  0
 15 35  1  0
 19 36  1  0
 21 37  1  0
 22 38  1  0
 25 39  1  0
 26 40  1  0
M  END
$$$$
[H]c1c([H])c(C(F)(F)F)c([H])c([H])c1N1C([H])([H])C([H])([H])N(c2nc3c([H])c(N4C([H])([H])C([H])([H])OC([H])([H])C4([H])[H])c([H])c([H])c3n2[H])C([H])([H])[C@@]1([H])C([H])([H])[H]
     RDKit          3D

 58 62  0  0  0  0  0  0  0  0999 V2000
    2.6834    1.8804   -0.2298 C   0  0  0  0  0  0  0  0  0  0  0  0
    3.1135    0.5124   -0.7147 C   0  0  2  0  0  0  0  0  0  0  0  0
    1.9049   -0.2559   -1.2631 C   0  0  0  0  0  0  0  0  0  0  0  0
    1.0066   -0.5558   -0.1842 N   0  0  0  0  0  0  0  0  0  0  0  0
    1.4533   -0.8712    1.1297 C   0  0  0  0  0  0  0  0  0  0  0  0
    2.9145   -1.1043    1.2283 C   0  0  0  0  0  0  0  0  0  0  0  0
    3.6912   -0.2715    0.3717 N   0  0  0  0  0  0  0  0  0  0  0  0
    5.0997   -0.1915    0.5378 C   0  0  0  0  0  0  0  0  0  0  0  0
    5.9274   -1.0459   -0.2053 C   0  0  0  0  0  0  0  0  0  0  0  0
    7.2968   -1.0197   -0.1193 C   0  0  0  0  0  0  0  0  0  0  0  0
    7.9390   -0.1252    0.7290 C   0  0  0  0  0  0  0  0  0  0  0  0
    7.1393    0.7195    1.4669 C   0  0  0  0  0  0  0  0  0  0  0  0
    5.7433    0.6895    1.3746 C   0  0  0  0  0  0  0  0  0  0  0  0
    9.4279   -0.1227    0.8099 C   0  0  0  0  0  0  0  0  0  0  0  0
   10.0104    0.0380   -0.4570 F   0  0  0  0  0  0  0  0  0  0  0  0
    9.9269   -1.3310    1.2800 F   0  0  0  0  0  0  0  0  0  0  0  0
    9.8651    0.9215    1.5655 F   0  0  0  0  0  0  0  0  0  0  0  0
   -0.4051   -0.5028   -0.4642 C   0  0  0  0  0  0  0  0  0  0  0  0
   -1.4321   -0.6736    0.3910 N   0  0  0  0  0  0  0  0  0  0  0  0
   -2.6244   -0.5195   -0.2187 C   0  0  0  0  0  0  0  0  0  0  0  0
   -3.9340   -0.5745    0.2461 C   0  0  0  0  0  0  0  0  0  0  0  0
   -4.9847   -0.3465   -0.5969 C   0  0  0  0  0  0  0  0  0  0  0  0
   -4.6723   -0.0610   -1.9362 C   0  0  0  0  0  0  0  0  0  0  0  0
   -3.3700   -0.0115   -2.3771 C   0  0  0  0  0  0  0  0  0  0  0  0
   -2.3273   -0.2406   -1.5165 C   0  0  0  0  0  0  0  0  0  0  0  0
   -0.9921   -0.2356   -1.6472 N   0  0  0  0  0  0  0  0  0  0  0  0
   -6.3248   -0.3465   -0.1862 N   0  0  0  0  0  0  0  0  0  0  0  0
   -6.7392   -0.9521    1.0442 C   0  0  0  0  0  0  0  0  0  0  0  0
   -8.2426   -0.9133    1.2162 C   0  0  0  0  0  0  0  0  0  0  0  0
   -8.8708    0.2052    0.7739 O   0  0  0  0  0  0  0  0  0  0  0  0
   -8.1966    1.0871   -0.0047 C   0  0  0  0  0  0  0  0  0  0  0  0
   -7.3295    0.3097   -1.0021 C   0  0  0  0  0  0  0  0  0  0  0  0
    2.2320    1.8726    0.7829 H   0  0  0  0  0  0  0  0  0  0  0  0
    3.5683    2.5436   -0.2504 H   0  0  0  0  0  0  0  0  0  0  0  0
    1.9891    2.2935   -0.9938 H   0  0  0  0  0  0  0  0  0  0  0  0
    3.8227    0.6350   -1.5311 H   0  0  0  0  0  0  0  0  0  0  0  0
    2.2072   -1.1772   -1.7765 H   0  0  0  0  0  0  0  0  0  0  0  0
    1.4111    0.4266   -1.9635 H   0  0  0  0  0  0  0  0  0  0  0  0
    0.8608   -1.7508    1.5139 H   0  0  0  0  0  0  0  0  0  0  0  0
    1.1534   -0.0501    1.8386 H   0  0  0  0  0  0  0  0  0  0  0  0
    3.1566   -2.1962    1.1059 H   0  0  0  0  0  0  0  0  0  0  0  0
    3.1889   -0.9351    2.3257 H   0  0  0  0  0  0  0  0  0  0  0  0
    5.4087   -1.7560   -0.8776 H   0  0  0  0  0  0  0  0  0  0  0  0
    7.9263   -1.6706   -0.6938 H   0  0  0  0  0  0  0  0  0  0  0  0
    7.6149    1.4129    2.1210 H   0  0  0  0  0  0  0  0  0  0  0  0
    5.1115    1.3614    1.9551 H   0  0  0  0  0  0  0  0  0  0  0  0
   -4.1559   -0.7950    1.2736 H   0  0  0  0  0  0  0  0  0  0  0  0
   -5.4307    0.1232   -2.6856 H   0  0  0  0  0  0  0  0  0  0  0  0
   -3.1155    0.2040   -3.4148 H   0  0  0  0  0  0  0  0  0  0  0  0
   -0.4431   -0.0562   -2.5145 H   0  0  0  0  0  0  0  0  0  0  0  0
   -6.4058   -2.0221    1.0266 H   0  0  0  0  0  0  0  0  0  0  0  0
   -6.2961   -0.4678    1.9466 H   0  0  0  0  0  0  0  0  0  0  0  0
   -8.4931   -1.0037    2.3176 H   0  0  0  0  0  0  0  0  0  0  0  0
   -8.6352   -1.8669    0.7615 H   0  0  0  0  0  0  0  0  0  0  0  0
   -7.6076    1.8558    0.5431 H   0  0  0  0  0  0  0  0  0  0  0  0
   -8.9058    1.6514   -0.6475 H   0  0  0  0  0  0  0  0  0  0  0  0
   -6.9079    1.0570   -1.7036 H   0  0  0  0  0  0  0  0  0  0  0  0
   -7.9527   -0.4214   -1.5006 H   0  0  0  0  0  0  0  0  0  0  0  0
  1  2  1  0
  2  3  1  0
  3  4  1  0
  4  5  1  0
  5  6  1  0
  6  7  1  0
  7  8  1  0
  8  9  2  0
  9 10  1  0
 10 11  2  0
 11 12  1  0
 12 13  2  0
 11 14  1  0
 14 15  1  0
 14 16  1  0
 14 17  1  0
  4 18  1  0
 18 19  2  0
 19 20  1  0
 20 21  2  0
 21 22  1  0
 22 23  2  0
 23 24  1  0
 24 25  2  0
 25 26  1  0
 22 27  1  0
 27 28  1  0
 28 29  1  0
 29 30  1  0
 30 31  1  0
 31 32  1  0
  7  2  1  0
 13  8  1  0
 26 18  1  0
 32 27  1  0
 25 20  1  0
  1 33  1  0
  1 34  1  0
  1 35  1  0
  2 36  1  6
  3 37  1  0
  3 38  1  0
  5 39  1  0
  5 40  1  0
  6 41  1  0
  6 42  1  0
  9 43  1  0
 10 44  1  0
 12 45  1  0
 13 46  1  0
 21 47  1  0
 23 48  1  0
 24 49  1  0
 26 50  1  0
 28 51  1  0
 28 52  1  0
 29 53  1  0
 29 54  1  0
 31 55  1  0
 31 56  1  0
 32 57  1  0
 32 58  1  0
M  END
$$$$
[H]c1c([H])c(Oc2c([H])c([H])c(C#N)c([H])c2[H])c(N2C([H])([H])C([H])([H])N(c3c([H])c([H])c(C#N)c([H])c3[H])[C@]([H])(C([H])([H])[H])C2([H])[H])c([H])c1F
     RDKit          3D

 52 55  0  0  0  0  0  0  0  0999 V2000
    1.0297    1.7434   -1.6579 C   0  0  0  0  0  0  0  0  0  0  0  0
    0.9791    0.3799   -1.0175 C   0  0  2  0  0  0  0  0  0  0  0  0
   -0.4381    0.1372   -0.5277 C   0  0  0  0  0  0  0  0  0  0  0  0
   -0.5164   -1.0450    0.2395 N   0  0  0  0  0  0  0  0  0  0  0  0
    0.4798   -1.2034    1.3141 C   0  0  0  0  0  0  0  0  0  0  0  0
    1.4220   -0.0168    1.3856 C   0  0  0  0  0  0  0  0  0  0  0  0
    1.9337    0.2795    0.0779 N   0  0  0  0  0  0  0  0  0  0  0  0
    3.3285    0.4561   -0.1330 C   0  0  0  0  0  0  0  0  0  0  0  0
    3.8485    0.4087   -1.4272 C   0  0  0  0  0  0  0  0  0  0  0  0
    5.1741    0.5866   -1.6592 C   0  0  0  0  0  0  0  0  0  0  0  0
    6.0417    0.8185   -0.6258 C   0  0  0  0  0  0  0  0  0  0  0  0
    5.5622    0.8698    0.6455 C   0  0  0  0  0  0  0  0  0  0  0  0
    4.2018    0.6874    0.8847 C   0  0  0  0  0  0  0  0  0  0  0  0
    7.4612    1.0109   -0.8526 C   0  0  0  0  0  0  0  0  0  0  0  0
    8.5989    1.1556   -1.0265 N   0  0  0  0  0  0  0  0  0  0  0  0
   -1.4347   -2.1116    0.1096 C   0  0  0  0  0  0  0  0  0  0  0  0
   -0.9232   -3.2745   -0.4972 C   0  0  0  0  0  0  0  0  0  0  0  0
   -1.6708   -4.4038   -0.7008 C   0  0  0  0  0  0  0  0  0  0  0  0
   -1.1448   -5.5219   -1.2949 F   0  0  0  0  0  0  0  0  0  0  0  0
   -2.9867   -4.3942   -0.2894 C   0  0  0  0  0  0  0  0  0  0  0  0
   -3.5122   -3.2964    0.2966 C   0  0  0  0  0  0  0  0  0  0  0  0
   -2.7383   -2.1314    0.5058 C   0  0  0  0  0  0  0  0  0  0  0  0
   -3.3309   -1.0711    1.1055 O   0  0  0  0  0  0  0  0  0  0  0  0
   -3.6458    0.1847    0.7247 C   0  0  0  0  0  0  0  0  0  0  0  0
   -4.1942    0.5393   -0.5051 C   0  0  0  0  0  0  0  0  0  0  0  0
   -4.4950    1.8441   -0.8284 C   0  0  0  0  0  0  0  0  0  0  0  0
   -4.2600    2.8703    0.0713 C   0  0  0  0  0  0  0  0  0  0  0  0
   -3.7166    2.5343    1.2949 C   0  0  0  0  0  0  0  0  0  0  0  0
   -3.4140    1.2323    1.6234 C   0  0  0  0  0  0  0  0  0  0  0  0
   -4.5689    4.2394   -0.2513 C   0  0  0  0  0  0  0  0  0  0  0  0
   -4.8128    5.3352   -0.4896 N   0  0  0  0  0  0  0  0  0  0  0  0
    1.9416    2.3042   -1.3475 H   0  0  0  0  0  0  0  0  0  0  0  0
    0.9881    1.7209   -2.7559 H   0  0  0  0  0  0  0  0  0  0  0  0
    0.1722    2.3361   -1.2950 H   0  0  0  0  0  0  0  0  0  0  0  0
    1.2001   -0.3777   -1.7802 H   0  0  0  0  0  0  0  0  0  0  0  0
   -0.6822    1.0428    0.0924 H   0  0  0  0  0  0  0  0  0  0  0  0
   -1.0725    0.1207   -1.4540 H   0  0  0  0  0  0  0  0  0  0  0  0
    1.0304   -2.1295    1.1440 H   0  0  0  0  0  0  0  0  0  0  0  0
   -0.0184   -1.2703    2.3004 H   0  0  0  0  0  0  0  0  0  0  0  0
    0.8870    0.8318    1.8583 H   0  0  0  0  0  0  0  0  0  0  0  0
    2.2616   -0.3611    2.0292 H   0  0  0  0  0  0  0  0  0  0  0  0
    3.1370    0.2215   -2.2205 H   0  0  0  0  0  0  0  0  0  0  0  0
    5.5531    0.5448   -2.6785 H   0  0  0  0  0  0  0  0  0  0  0  0
    6.2390    1.0514    1.4601 H   0  0  0  0  0  0  0  0  0  0  0  0
    3.8853    0.7474    1.9230 H   0  0  0  0  0  0  0  0  0  0  0  0
    0.1279   -3.2965   -0.8315 H   0  0  0  0  0  0  0  0  0  0  0  0
   -3.5418   -5.3101   -0.4703 H   0  0  0  0  0  0  0  0  0  0  0  0
   -4.5433   -3.2791    0.6227 H   0  0  0  0  0  0  0  0  0  0  0  0
   -4.3853   -0.2424   -1.2201 H   0  0  0  0  0  0  0  0  0  0  0  0
   -4.9230    2.1443   -1.7802 H   0  0  0  0  0  0  0  0  0  0  0  0
   -3.5230    3.3127    2.0146 H   0  0  0  0  0  0  0  0  0  0  0  0
   -2.9912    1.0451    2.5985 H   0  0  0  0  0  0  0  0  0  0  0  0
  1  2  1  0
  2  3  1  0
  3  4  1  0
  4  5  1  0
  5  6  1  0
  6  7  1  0
  7  8  1  0
  8  9  2  0
  9 10  1  0
 10 11  2  0
 11 12  1  0
 12 13  2  0
 11 14  1  0
 14 15  3  0
  4 16  1  0
 16 17  2  0
 17 18  1  0
 18 19  1  0
 18 20  2  0
 20 21  1  0
 21 22  2  0
 22 23  1  0
 23 24  1  0
 24 25  2  0
 25 26  1  0
 26 27  2  0
 27 28  1  0
 28 29  2  0
 27 30  1  0
 30 31  3  0
  7  2  1  0
 13  8  1  0
 22 16  1  0
 29 24  1  0
  1 32  1  0
  1 33  1  0
  1 34  1  0
  2 35  1  6
  3 36  1  0
  3 37  1  0
  5 38  1  0
  5 39  1  0
  6 40  1  0
  6 41  1  0
  9 42  1  0
 10 43  1  0
 12 44  1  0
 13 45  1  0
 17 46  1  0
 20 47  1  0
 21 48  1  0
 25 49  1  0
 26 50  1  0
 28 51  1  0
 29 52  1  0
M  END
$$$$
[H]c1c([H])c(Oc2c([H])c([H])c(C#N)c([H])c2[H])c(N2C([H])([H])C([H])([H])N(c3c([H])c([H])c(C#N)c([H])c3[H])[C@@]([H])(C([H])([H])[H])C2([H])[H])c([H])c1F
     RDKit          3D

 52 55  0  0  0  0  0  0  0  0999 V2000
    2.4432   -1.4991   -2.2161 C   0  0  0  0  0  0  0  0  0  0  0  0
    1.8787   -0.3691   -1.4341 C   0  0  1  0  0  0  0  0  0  0  0  0
    0.3604   -0.3690   -1.3995 C   0  0  0  0  0  0  0  0  0  0  0  0
   -0.1278   -1.3669   -0.5039 N   0  0  0  0  0  0  0  0  0  0  0  0
    0.7964   -1.9271    0.4637 C   0  0  0  0  0  0  0  0  0  0  0  0
    1.6866   -0.8340    1.0298 C   0  0  0  0  0  0  0  0  0  0  0  0
    2.4289   -0.2833   -0.0870 N   0  0  0  0  0  0  0  0  0  0  0  0
    3.6857    0.3198    0.1930 C   0  0  0  0  0  0  0  0  0  0  0  0
    4.5113    0.7052   -0.8497 C   0  0  0  0  0  0  0  0  0  0  0  0
    5.7261    1.2957   -0.6096 C   0  0  0  0  0  0  0  0  0  0  0  0
    6.1748    1.5294    0.6678 C   0  0  0  0  0  0  0  0  0  0  0  0
    5.3449    1.1418    1.6999 C   0  0  0  0  0  0  0  0  0  0  0  0
    4.1080    0.5409    1.4763 C   0  0  0  0  0  0  0  0  0  0  0  0
    7.4547    2.1511    0.8878 C   0  0  0  0  0  0  0  0  0  0  0  0
    8.4856    2.6433    1.0605 N   0  0  0  0  0  0  0  0  0  0  0  0
   -1.4446   -1.8352   -0.5063 C   0  0  0  0  0  0  0  0  0  0  0  0
   -1.7491   -3.1792   -0.7365 C   0  0  0  0  0  0  0  0  0  0  0  0
   -3.0546   -3.6257   -0.7361 C   0  0  0  0  0  0  0  0  0  0  0  0
   -3.2777   -4.9405   -0.9661 F   0  0  0  0  0  0  0  0  0  0  0  0
   -4.1028   -2.7606   -0.5085 C   0  0  0  0  0  0  0  0  0  0  0  0
   -3.8083   -1.4338   -0.2809 C   0  0  0  0  0  0  0  0  0  0  0  0
   -2.4924   -0.9689   -0.2785 C   0  0  0  0  0  0  0  0  0  0  0  0
   -2.1799    0.3642   -0.0508 O   0  0  0  0  0  0  0  0  0  0  0  0
   -3.2347    1.2369    0.1786 C   0  0  0  0  0  0  0  0  0  0  0  0
   -3.8661    1.9134   -0.8552 C   0  0  0  0  0  0  0  0  0  0  0  0
   -4.9115    2.7769   -0.6167 C   0  0  0  0  0  0  0  0  0  0  0  0
   -5.3766    3.0058    0.6692 C   0  0  0  0  0  0  0  0  0  0  0  0
   -4.7483    2.3335    1.6907 C   0  0  0  0  0  0  0  0  0  0  0  0
   -3.7031    1.4702    1.4524 C   0  0  0  0  0  0  0  0  0  0  0  0
   -6.4739    3.9162    0.8886 C   0  0  0  0  0  0  0  0  0  0  0  0
   -7.3726    4.6390    1.0565 N   0  0  0  0  0  0  0  0  0  0  0  0
    3.1017   -2.1719   -1.6339 H   0  0  0  0  0  0  0  0  0  0  0  0
    2.9340   -1.1388   -3.1158 H   0  0  0  0  0  0  0  0  0  0  0  0
    1.5917   -2.1531   -2.5610 H   0  0  0  0  0  0  0  0  0  0  0  0
    2.1512    0.5832   -1.9398 H   0  0  0  0  0  0  0  0  0  0  0  0
    0.0808    0.6437   -0.9850 H   0  0  0  0  0  0  0  0  0  0  0  0
   -0.0063   -0.4332   -2.4235 H   0  0  0  0  0  0  0  0  0  0  0  0
    1.4230   -2.7230    0.0657 H   0  0  0  0  0  0  0  0  0  0  0  0
    0.2393   -2.3701    1.3392 H   0  0  0  0  0  0  0  0  0  0  0  0
    1.1389   -0.0667    1.5773 H   0  0  0  0  0  0  0  0  0  0  0  0
    2.3915   -1.3226    1.7395 H   0  0  0  0  0  0  0  0  0  0  0  0
    4.1634    0.5209   -1.8732 H   0  0  0  0  0  0  0  0  0  0  0  0
    6.3562    1.5891   -1.4616 H   0  0  0  0  0  0  0  0  0  0  0  0
    5.7007    1.3269    2.7021 H   0  0  0  0  0  0  0  0  0  0  0  0
    3.4936    0.2578    2.3331 H   0  0  0  0  0  0  0  0  0  0  0  0
   -0.9114   -3.8520   -0.9149 H   0  0  0  0  0  0  0  0  0  0  0  0
   -5.1410   -3.0897   -0.5034 H   0  0  0  0  0  0  0  0  0  0  0  0
   -4.6064   -0.7132   -0.0962 H   0  0  0  0  0  0  0  0  0  0  0  0
   -3.5133    1.7439   -1.8622 H   0  0  0  0  0  0  0  0  0  0  0  0
   -5.4074    3.3089   -1.4338 H   0  0  0  0  0  0  0  0  0  0  0  0
   -5.1206    2.5188    2.7043 H   0  0  0  0  0  0  0  0  0  0  0  0
   -3.2208    0.9499    2.2687 H   0  0  0  0  0  0  0  0  0  0  0  0
  1  2  1  0
  2  3  1  0
  3  4  1  0
  4  5  1  0
  5  6  1  0
  6  7  1  0
  7  8  1  0
  8  9  2  0
  9 10  1  0
 10 11  2  0
 11 12  1  0
 12 13  2  0
 11 14  1  0
 14 15  3  0
  4 16  1  0
 16 17  2  0
 17 18  1  0
 18 19  1  0
 18 20  2  0
 20 21  1  0
 21 22  2  0
 22 23  1  0
 23 24  1  0
 24 25  2  0
 25 26  1  0
 26 27  2  0
 27 28  1  0
 28 29  2  0
 27 30  1  0
 30 31  3  0
  7  2  1  0
 13  8  1  0
 22 16  1  0
 29 24  1  0
  1 32  1  0
  1 33  1  0
  1 34  1  0
  2 35  1  6
  3 36  1  0
  3 37  1  0
  5 38  1  0
  5 39  1  0
  6 40  1  0
  6 41  1  0
  9 42  1  0
 10 43  1  0
 12 44  1  0
 13 45  1  0
 17 46  1  0
 20 47  1  0
 21 48  1  0
 25 49  1  0
 26 50  1  0
 28 51  1  0
 29 52  1  0
M  END
$$$$
[H]c1c([H])c(N2C([H])([H])C([H])([H])N(c3nc4c([H])c(C#N)c([H])c([H])c4n3[H])C([H])([H])[C@]2([H])C([H])([H])[H])c([H])c([H])c1F
     RDKit          3D

 43 46  0  0  0  0  0  0  0  0999 V2000
    1.9925    2.2313   -0.4141 C   0  0  0  0  0  0  0  0  0  0  0  0
    1.2983    0.9878    0.0317 C   0  0  1  0  0  0  0  0  0  0  0  0
    0.2652    0.6667   -1.0591 C   0  0  0  0  0  0  0  0  0  0  0  0
   -0.5111   -0.4552   -0.5851 N   0  0  0  0  0  0  0  0  0  0  0  0
    0.2219   -1.6772   -0.3261 C   0  0  0  0  0  0  0  0  0  0  0  0
    1.4694   -1.4495    0.4525 C   0  0  0  0  0  0  0  0  0  0  0  0
    2.1230   -0.1706    0.1955 N   0  0  0  0  0  0  0  0  0  0  0  0
    3.5512   -0.0900    0.1443 C   0  0  0  0  0  0  0  0  0  0  0  0
    4.2098   -1.0528   -0.6036 C   0  0  0  0  0  0  0  0  0  0  0  0
    5.5923   -1.0879   -0.6996 C   0  0  0  0  0  0  0  0  0  0  0  0
    6.2821   -0.1236   -0.0188 C   0  0  0  0  0  0  0  0  0  0  0  0
    7.6492   -0.1534   -0.1103 F   0  0  0  0  0  0  0  0  0  0  0  0
    5.6640    0.8347    0.7239 C   0  0  0  0  0  0  0  0  0  0  0  0
    4.2924    0.8517    0.8063 C   0  0  0  0  0  0  0  0  0  0  0  0
   -1.9266   -0.3641   -0.3826 C   0  0  0  0  0  0  0  0  0  0  0  0
   -2.6937    0.7105   -0.5905 N   0  0  0  0  0  0  0  0  0  0  0  0
   -3.9931    0.4506   -0.2982 C   0  0  0  0  0  0  0  0  0  0  0  0
   -5.1475    1.2122   -0.3459 C   0  0  0  0  0  0  0  0  0  0  0  0
   -6.3624    0.6770    0.0178 C   0  0  0  0  0  0  0  0  0  0  0  0
   -6.3816   -0.6395    0.4287 C   0  0  0  0  0  0  0  0  0  0  0  0
   -5.2387   -1.4095    0.4810 C   0  0  0  0  0  0  0  0  0  0  0  0
   -4.0160   -0.8645    0.1129 C   0  0  0  0  0  0  0  0  0  0  0  0
   -2.7585   -1.3274    0.0513 N   0  0  0  0  0  0  0  0  0  0  0  0
   -7.5828    1.4672   -0.0280 C   0  0  0  0  0  0  0  0  0  0  0  0
   -8.5582    2.0894   -0.0604 N   0  0  0  0  0  0  0  0  0  0  0  0
    2.8445    2.0246   -1.0594 H   0  0  0  0  0  0  0  0  0  0  0  0
    2.1894    2.9592    0.4123 H   0  0  0  0  0  0  0  0  0  0  0  0
    1.2704    2.8067   -1.0797 H   0  0  0  0  0  0  0  0  0  0  0  0
    0.7413    1.1927    0.9728 H   0  0  0  0  0  0  0  0  0  0  0  0
    0.7939    0.4560   -2.0074 H   0  0  0  0  0  0  0  0  0  0  0  0
   -0.3900    1.5462   -1.1449 H   0  0  0  0  0  0  0  0  0  0  0  0
    0.5160   -2.0901   -1.3260 H   0  0  0  0  0  0  0  0  0  0  0  0
   -0.3845   -2.4382    0.1956 H   0  0  0  0  0  0  0  0  0  0  0  0
    2.2118   -2.2396    0.2240 H   0  0  0  0  0  0  0  0  0  0  0  0
    1.1903   -1.5337    1.5366 H   0  0  0  0  0  0  0  0  0  0  0  0
    3.6425   -1.8066   -1.1374 H   0  0  0  0  0  0  0  0  0  0  0  0
    6.0794   -1.8546   -1.2932 H   0  0  0  0  0  0  0  0  0  0  0  0
    6.2734    1.5813    1.2471 H   0  0  0  0  0  0  0  0  0  0  0  0
    3.8284    1.6121    1.4080 H   0  0  0  0  0  0  0  0  0  0  0  0
   -5.1287    2.2435   -0.6685 H   0  0  0  0  0  0  0  0  0  0  0  0
   -7.3616   -1.0450    0.7140 H   0  0  0  0  0  0  0  0  0  0  0  0
   -5.2730   -2.4307    0.8028 H   0  0  0  0  0  0  0  0  0  0  0  0
   -2.4845   -2.2979    0.3073 H   0  0  0  0  0  0  0  0  0  0  0  0
  1  2  1  0
  2  3  1  0
  3  4  1  0
  4  5  1  0
  5  6  1  0
  6  7  1  0
  7  8  1  0
  8  9  2  0
  9 10  1  0
 10 11  2  0
 11 12  1  0
 11 13  1  0
 13 14  2  0
  4 15  1  0
 15 16  2  0
 16 17  1  0
 17 18  2  0
 18 19  1  0
 19 20  2  0
 20 21  1  0
 21 22  2  0
 22 23  1  0
 19 24  1  0
 24 25  3  0
  7  2  1  0
 14  8  1  0
 23 15  1  0
 22 17  1  0
  1 26  1  0
  1 27  1  0
  1 28  1  0
  2 29  1  1
  3 30  1  0
  3 31  1  0
  5 32  1  0
  5 33  1  0
  6 34  1  0
  6 35  1  0
  9 36  1  0
 10 37  1  0
 13 38  1  0
 14 39  1  0
 18 40  1  0
 20 41  1  0
 21 42  1  0
 23 43  1  0
M  END
$$$$
[H]c1c([H])c(N2C([H])([H])C([H])([H])N(c3c([H])c([H])c(C(F)(F)F)c([H])c3[H])[C@]([H])(C([H])([H])[H])C2([H])[H])c([H])c([H])c1C#N
     RDKit          3D

 43 45  0  0  0  0  0  0  0  0999 V2000
    0.1986   -1.8904    1.0035 C   0  0  0  0  0  0  0  0  0  0  0  0
    0.2540   -0.3739    1.0986 C   0  0  2  0  0  0  0  0  0  0  0  0
   -1.1007    0.2343    1.2104 C   0  0  0  0  0  0  0  0  0  0  0  0
   -1.8093    0.4780   -0.0037 N   0  0  0  0  0  0  0  0  0  0  0  0
   -1.0612    1.0429   -1.1168 C   0  0  0  0  0  0  0  0  0  0  0  0
    0.2786    0.3970   -1.2801 C   0  0  0  0  0  0  0  0  0  0  0  0
    0.9759    0.1044   -0.0382 N   0  0  0  0  0  0  0  0  0  0  0  0
    2.4171    0.2434   -0.0342 C   0  0  0  0  0  0  0  0  0  0  0  0
    3.0476    1.2181   -0.7584 C   0  0  0  0  0  0  0  0  0  0  0  0
    4.4235    1.3293   -0.8892 C   0  0  0  0  0  0  0  0  0  0  0  0
    5.2148    0.4107   -0.2591 C   0  0  0  0  0  0  0  0  0  0  0  0
    4.6114   -0.5826    0.4823 C   0  0  0  0  0  0  0  0  0  0  0  0
    3.2253   -0.6742    0.6028 C   0  0  0  0  0  0  0  0  0  0  0  0
    6.7020    0.4315   -0.4073 C   0  0  0  0  0  0  0  0  0  0  0  0
    6.9807    0.8130   -1.7351 F   0  0  0  0  0  0  0  0  0  0  0  0
    7.2605   -0.8227   -0.2138 F   0  0  0  0  0  0  0  0  0  0  0  0
    7.2163    1.3706    0.4383 F   0  0  0  0  0  0  0  0  0  0  0  0
   -3.1934    0.1609   -0.1119 C   0  0  0  0  0  0  0  0  0  0  0  0
   -3.6669   -1.1184   -0.0310 C   0  0  0  0  0  0  0  0  0  0  0  0
   -4.9956   -1.3850   -0.1490 C   0  0  0  0  0  0  0  0  0  0  0  0
   -5.8950   -0.3551   -0.3560 C   0  0  0  0  0  0  0  0  0  0  0  0
   -5.4403    0.9472   -0.4414 C   0  0  0  0  0  0  0  0  0  0  0  0
   -4.0984    1.2017   -0.3191 C   0  0  0  0  0  0  0  0  0  0  0  0
   -7.3171   -0.6114   -0.4816 C   0  0  0  0  0  0  0  0  0  0  0  0
   -8.4486   -0.7985   -0.5643 N   0  0  0  0  0  0  0  0  0  0  0  0
    0.6687   -2.3132    1.9360 H   0  0  0  0  0  0  0  0  0  0  0  0
    0.8015   -2.2888    0.1390 H   0  0  0  0  0  0  0  0  0  0  0  0
   -0.7907   -2.3157    0.9179 H   0  0  0  0  0  0  0  0  0  0  0  0
    0.7739   -0.0987    2.0783 H   0  0  0  0  0  0  0  0  0  0  0  0
   -1.7239   -0.3086    1.9663 H   0  0  0  0  0  0  0  0  0  0  0  0
   -0.9655    1.2534    1.6941 H   0  0  0  0  0  0  0  0  0  0  0  0
   -1.6420    0.8205   -2.0602 H   0  0  0  0  0  0  0  0  0  0  0  0
   -0.9925    2.1302   -1.0458 H   0  0  0  0  0  0  0  0  0  0  0  0
    0.8954    1.0447   -1.8930 H   0  0  0  0  0  0  0  0  0  0  0  0
    0.1852   -0.5812   -1.8665 H   0  0  0  0  0  0  0  0  0  0  0  0
    2.4245    1.9729   -1.2542 H   0  0  0  0  0  0  0  0  0  0  0  0
    4.8616    2.1270   -1.4654 H   0  0  0  0  0  0  0  0  0  0  0  0
    5.2040   -1.3298    1.0094 H   0  0  0  0  0  0  0  0  0  0  0  0
    2.7795   -1.4515    1.1908 H   0  0  0  0  0  0  0  0  0  0  0  0
   -2.9864   -1.9813    0.1223 H   0  0  0  0  0  0  0  0  0  0  0  0
   -5.3675   -2.4157   -0.0644 H   0  0  0  0  0  0  0  0  0  0  0  0
   -6.1750    1.7230   -0.6364 H   0  0  0  0  0  0  0  0  0  0  0  0
   -3.7307    2.2419   -0.3862 H   0  0  0  0  0  0  0  0  0  0  0  0
  1  2  1  0
  2  3  1  0
  3  4  1  0
  4  5  1  0
  5  6  1  0
  6  7  1  0
  7  8  1  0
  8  9  2  0
  9 10  1  0
 10 11  2  0
 11 12  1  0
 12 13  2  0
 11 14  1  0
 14 15  1  0
 14 16  1  0
 14 17  1  0
  4 18  1  0
 18 19  2  0
 19 20  1  0
 20 21  2  0
 21 22  1  0
 22 23  2  0
 21 24  1  0
 24 25  3  0
  7  2  1  0
 13  8  1  0
 23 18  1  0
  1 26  1  0
  1 27  1  0
  1 28  1  0
  2 29  1  1
  3 30  1  0
  3 31  1  0
  5 32  1  0
  5 33  1  0
  6 34  1  0
  6 35  1  0
  9 36  1  0
 10 37  1  0
 12 38  1  0
 13 39  1  0
 19 40  1  0
 20 41  1  0
 22 42  1  0
 23 43  1  0
M  END
$$$$
[H]c1c([H])c(C(=O)N2C([H])([H])C([H])([H])N(c3c([H])c([H])c(C(F)(F)F)c([H])c3[H])[C@]([H])(C([H])([H])[H])C2([H])[H])c([H])c([H])c1C#N
     RDKit          3D

 45 47  0  0  0  0  0  0  0  0999 V2000
    1.3363   -2.1282   -1.8239 C   0  0  0  0  0  0  0  0  0  0  0  0
    0.7193   -2.2032   -0.4347 C   0  0  2  0  0  0  0  0  0  0  0  0
   -0.7354   -2.3028   -0.5532 C   0  0  0  0  0  0  0  0  0  0  0  0
   -1.4854   -1.1858    0.0450 N   0  0  0  0  0  0  0  0  0  0  0  0
   -1.0616   -0.6600    1.2943 C   0  0  0  0  0  0  0  0  0  0  0  0
    0.3962   -0.8442    1.5715 C   0  0  0  0  0  0  0  0  0  0  0  0
    1.1912   -1.1769    0.4266 N   0  0  0  0  0  0  0  0  0  0  0  0
    2.4453   -0.4789    0.2803 C   0  0  0  0  0  0  0  0  0  0  0  0
    2.5172    0.8761    0.5211 C   0  0  0  0  0  0  0  0  0  0  0  0
    3.7151    1.5400    0.4234 C   0  0  0  0  0  0  0  0  0  0  0  0
    4.8914    0.9061    0.0863 C   0  0  0  0  0  0  0  0  0  0  0  0
    4.8034   -0.4624   -0.1540 C   0  0  0  0  0  0  0  0  0  0  0  0
    3.6064   -1.1460   -0.0580 C   0  0  0  0  0  0  0  0  0  0  0  0
    6.1965    1.6492   -0.0047 C   0  0  0  0  0  0  0  0  0  0  0  0
    6.6886    1.7506    1.2640 F   0  0  0  0  0  0  0  0  0  0  0  0
    5.9112    2.9596   -0.4445 F   0  0  0  0  0  0  0  0  0  0  0  0
    7.0483    1.0888   -0.9009 F   0  0  0  0  0  0  0  0  0  0  0  0
   -2.5587   -0.6448   -0.6909 C   0  0  0  0  0  0  0  0  0  0  0  0
   -2.6762   -1.1600   -1.8678 O   0  0  0  0  0  0  0  0  0  0  0  0
   -3.4983    0.3495   -0.3121 C   0  0  0  0  0  0  0  0  0  0  0  0
   -4.2788    0.9609   -1.3414 C   0  0  0  0  0  0  0  0  0  0  0  0
   -5.2512    1.8615   -1.0537 C   0  0  0  0  0  0  0  0  0  0  0  0
   -5.5333    2.2277    0.2366 C   0  0  0  0  0  0  0  0  0  0  0  0
   -4.8233    1.6765    1.2527 C   0  0  0  0  0  0  0  0  0  0  0  0
   -3.8167    0.7445    0.9496 C   0  0  0  0  0  0  0  0  0  0  0  0
   -6.5848    3.1909    0.5390 C   0  0  0  0  0  0  0  0  0  0  0  0
   -7.4089    3.9441    0.7723 N   0  0  0  0  0  0  0  0  0  0  0  0
    1.7929   -1.1501   -2.0403 H   0  0  0  0  0  0  0  0  0  0  0  0
    2.0764   -2.9419   -1.9679 H   0  0  0  0  0  0  0  0  0  0  0  0
    0.5469   -2.2966   -2.5784 H   0  0  0  0  0  0  0  0  0  0  0  0
    1.0811   -3.2172   -0.0294 H   0  0  0  0  0  0  0  0  0  0  0  0
   -1.1114   -3.2605   -0.1036 H   0  0  0  0  0  0  0  0  0  0  0  0
   -1.0468   -2.3912   -1.6500 H   0  0  0  0  0  0  0  0  0  0  0  0
   -1.5976   -1.1283    2.1370 H   0  0  0  0  0  0  0  0  0  0  0  0
   -1.2450    0.4515    1.2544 H   0  0  0  0  0  0  0  0  0  0  0  0
    0.5660   -1.6293    2.3342 H   0  0  0  0  0  0  0  0  0  0  0  0
    0.7646    0.1199    2.0294 H   0  0  0  0  0  0  0  0  0  0  0  0
    1.6351    1.4473    0.7873 H   0  0  0  0  0  0  0  0  0  0  0  0
    3.7584    2.6058    0.6075 H   0  0  0  0  0  0  0  0  0  0  0  0
    5.7155   -0.9699   -0.4201 H   0  0  0  0  0  0  0  0  0  0  0  0
    3.5313   -2.2100   -0.2344 H   0  0  0  0  0  0  0  0  0  0  0  0
   -4.0525    0.6767   -2.3660 H   0  0  0  0  0  0  0  0  0  0  0  0
   -5.8053    2.2877   -1.8761 H   0  0  0  0  0  0  0  0  0  0  0  0
   -5.0201    1.9420    2.2748 H   0  0  0  0  0  0  0  0  0  0  0  0
   -3.3432    0.3310    1.8189 H   0  0  0  0  0  0  0  0  0  0  0  0
  1  2  1  0
  2  3  1  0
  3  4  1  0
  4  5  1  0
  5  6  1  0
  6  7  1  0
  7  8  1  0
  8  9  2  0
  9 10  1  0
 10 11  2  0
 11 12  1  0
 12 13  2  0
 11 14  1  0
 14 15  1  0
 14 16  1  0
 14 17  1  0
  4 18  1  0
 18 19  2  0
 18 20  1  0
 20 21  2  0
 21 22  1  0
 22 23  2  0
 23 24  1  0
 24 25  2  0
 23 26  1  0
 26 27  3  0
  7  2  1  0
 13  8  1  0
 25 20  1  0
  1 28  1  0
  1 29  1  0
  1 30  1  0
  2 31  1  1
  3 32  1  0
  3 33  1  0
  5 34  1  0
  5 35  1  0
  6 36  1  0
  6 37  1  0
  9 38  1  0
 10 39  1  0
 12 40  1  0
 13 41  1  0
 21 42  1  0
 22 43  1  0
 24 44  1  0
 25 45  1  0
M  END
$$$$
[H]c1c([H])c(N2C([H])([H])C([H])([H])N(c3nc4c([H])c(S(=O)(=O)N5C([H])([H])C([H])([H])OC([H])([H])C5([H])[H])c([H])c([H])c4n3[H])C([H])([H])[C@@]2([H])C([H])([H])[H])c([H])c([H])c1F
     RDKit          3D

 58 62  0  0  0  0  0  0  0  0999 V2000
    4.8429   -1.9618    0.3889 C   0  0  0  0  0  0  0  0  0  0  0  0
    3.8252   -0.8318    0.3138 C   0  0  2  0  0  0  0  0  0  0  0  0
    2.6282   -1.4003   -0.4143 C   0  0  0  0  0  0  0  0  0  0  0  0
    1.7020   -0.3989   -0.8422 N   0  0  0  0  0  0  0  0  0  0  0  0
    2.2045    0.8923   -1.2322 C   0  0  0  0  0  0  0  0  0  0  0  0
    3.6971    0.7967   -1.5899 C   0  0  0  0  0  0  0  0  0  0  0  0
    4.3602    0.3054   -0.4050 N   0  0  0  0  0  0  0  0  0  0  0  0
    5.5354    0.9538    0.0592 C   0  0  0  0  0  0  0  0  0  0  0  0
    6.2500    1.8277   -0.7380 C   0  0  0  0  0  0  0  0  0  0  0  0
    7.3913    2.4836   -0.3123 C   0  0  0  0  0  0  0  0  0  0  0  0
    7.8608    2.2762    0.9579 C   0  0  0  0  0  0  0  0  0  0  0  0
    8.9754    2.8937    1.4260 F   0  0  0  0  0  0  0  0  0  0  0  0
    7.1526    1.4025    1.7652 C   0  0  0  0  0  0  0  0  0  0  0  0
    6.0174    0.7494    1.3439 C   0  0  0  0  0  0  0  0  0  0  0  0
    0.3130   -0.6862   -0.8779 C   0  0  0  0  0  0  0  0  0  0  0  0
   -0.6873    0.1605   -1.2617 N   0  0  0  0  0  0  0  0  0  0  0  0
   -1.8782   -0.4567   -1.1672 C   0  0  0  0  0  0  0  0  0  0  0  0
   -3.1910   -0.0825   -1.4212 C   0  0  0  0  0  0  0  0  0  0  0  0
   -4.2582   -0.9353   -1.2354 C   0  0  0  0  0  0  0  0  0  0  0  0
   -4.0110   -2.2131   -0.7781 C   0  0  0  0  0  0  0  0  0  0  0  0
   -2.7049   -2.5793   -0.5274 C   0  0  0  0  0  0  0  0  0  0  0  0
   -1.6381   -1.7234   -0.7142 C   0  0  0  0  0  0  0  0  0  0  0  0
   -0.3232   -1.8273   -0.5521 N   0  0  0  0  0  0  0  0  0  0  0  0
   -5.8863   -0.3886   -1.5794 S   0  0  0  0  0  0  0  0  0  0  0  0
   -6.7301   -1.5774   -1.9904 O   0  0  0  0  0  0  0  0  0  0  0  0
   -5.9039    0.5693   -2.7320 O   0  0  0  0  0  0  0  0  0  0  0  0
   -6.6220    0.3280   -0.1848 N   0  0  0  0  0  0  0  0  0  0  0  0
   -5.8483    1.4876    0.2135 C   0  0  0  0  0  0  0  0  0  0  0  0
   -6.4122    2.0834    1.4808 C   0  0  0  0  0  0  0  0  0  0  0  0
   -6.5865    1.1374    2.4596 O   0  0  0  0  0  0  0  0  0  0  0  0
   -6.0407   -0.0899    2.1010 C   0  0  0  0  0  0  0  0  0  0  0  0
   -6.7753   -0.6090    0.8840 C   0  0  0  0  0  0  0  0  0  0  0  0
    4.5413   -2.8552   -0.1932 H   0  0  0  0  0  0  0  0  0  0  0  0
    4.9156   -2.3114    1.4565 H   0  0  0  0  0  0  0  0  0  0  0  0
    5.8368   -1.6358    0.0130 H   0  0  0  0  0  0  0  0  0  0  0  0
    3.5144   -0.5365    1.3370 H   0  0  0  0  0  0  0  0  0  0  0  0
    2.1728   -2.2279    0.1399 H   0  0  0  0  0  0  0  0  0  0  0  0
    3.0503   -1.8585   -1.3575 H   0  0  0  0  0  0  0  0  0  0  0  0
    2.1128    1.5512   -0.3267 H   0  0  0  0  0  0  0  0  0  0  0  0
    1.6876    1.3261   -2.0970 H   0  0  0  0  0  0  0  0  0  0  0  0
    3.8326    0.0543   -2.3856 H   0  0  0  0  0  0  0  0  0  0  0  0
    3.9741    1.8234   -1.8794 H   0  0  0  0  0  0  0  0  0  0  0  0
    5.9423    2.0441   -1.7733 H   0  0  0  0  0  0  0  0  0  0  0  0
    7.9105    3.1554   -0.9751 H   0  0  0  0  0  0  0  0  0  0  0  0
    7.5419    1.2505    2.7727 H   0  0  0  0  0  0  0  0  0  0  0  0
    5.4655    0.0691    1.9803 H   0  0  0  0  0  0  0  0  0  0  0  0
   -3.3954    0.9203   -1.7812 H   0  0  0  0  0  0  0  0  0  0  0  0
   -4.8082   -2.9048   -0.6210 H   0  0  0  0  0  0  0  0  0  0  0  0
   -2.5014   -3.5787   -0.1682 H   0  0  0  0  0  0  0  0  0  0  0  0
    0.1731   -2.6930   -0.2107 H   0  0  0  0  0  0  0  0  0  0  0  0
   -5.9401    2.2455   -0.5912 H   0  0  0  0  0  0  0  0  0  0  0  0
   -4.7779    1.2224    0.2959 H   0  0  0  0  0  0  0  0  0  0  0  0
   -5.6851    2.8393    1.8377 H   0  0  0  0  0  0  0  0  0  0  0  0
   -7.3472    2.5965    1.2167 H   0  0  0  0  0  0  0  0  0  0  0  0
   -6.2113   -0.8022    2.9542 H   0  0  0  0  0  0  0  0  0  0  0  0
   -4.9648    0.0223    1.9353 H   0  0  0  0  0  0  0  0  0  0  0  0
   -7.8571   -0.6771    1.1817 H   0  0  0  0  0  0  0  0  0  0  0  0
   -6.4420   -1.6256    0.6140 H   0  0  0  0  0  0  0  0  0  0  0  0
  1  2  1  0
  2  3  1  0
  3  4  1  0
  4  5  1  0
  5  6  1  0
  6  7  1  0
  7  8  1  0
  8  9  2  0
  9 10  1  0
 10 11  2  0
 11 12  1  0
 11 13  1  0
 13 14  2  0
  4 15  1  0
 15 16  2  0
 16 17  1  0
 17 18  2  0
 18 19  1  0
 19 20  2  0
 20 21  1  0
 21 22  2  0
 22 23  1  0
 19 24  1  0
 24 25  2  0
 24 26  2  0
 24 27  1  0
 27 28  1  0
 28 29  1  0
 29 30  1  0
 30 31  1  0
 31 32  1  0
  7  2  1  0
 14  8  1  0
 23 15  1  0
 32 27  1  0
 22 17  1  0
  1 33  1  0
  1 34  1  0
  1 35  1  0
  2 36  1  1
  3 37  1  0
  3 38  1  0
  5 39  1  0
  5 40  1  0
  6 41  1  0
  6 42  1  0
  9 43  1  0
 10 44  1  0
 13 45  1  0
 14 46  1  0
 18 47  1  0
 20 48  1  0
 21 49  1  0
 23 50  1  0
 28 51  1  0
 28 52  1  0
 29 53  1  0
 29 54  1  0
 31 55  1  0
 31 56  1  0
 32 57  1  0
 32 58  1  0
M  END
$$$$
[H]OC(c1c([H])c([H])c2c(nc(N3C([H])([H])C([H])([H])N(c4c([H])c([H])c(F)c([H])c4[H])[C@]([H])(C([H])([H])[H])C3([H])[H])n2[H])c1[H])(C([H])([H])[H])C([H])([H])[H]
     RDKit          3D

 52 55  0  0  0  0  0  0  0  0999 V2000
    4.2896    2.1691   -1.4140 C   0  0  0  0  0  0  0  0  0  0  0  0
    3.2069    1.1350   -1.3029 C   0  0  2  0  0  0  0  0  0  0  0  0
    1.9335    1.6366   -0.6422 C   0  0  0  0  0  0  0  0  0  0  0  0
    0.9346    0.6280   -0.8059 N   0  0  0  0  0  0  0  0  0  0  0  0
    1.3406   -0.6715   -1.4384 C   0  0  0  0  0  0  0  0  0  0  0  0
    2.5617   -1.1566   -0.6974 C   0  0  0  0  0  0  0  0  0  0  0  0
    3.6042   -0.0951   -0.7387 N   0  0  0  0  0  0  0  0  0  0  0  0
    4.8403   -0.4943   -0.2005 C   0  0  0  0  0  0  0  0  0  0  0  0
    5.3292   -0.0164    0.9677 C   0  0  0  0  0  0  0  0  0  0  0  0
    6.5396   -0.5001    1.4371 C   0  0  0  0  0  0  0  0  0  0  0  0
    7.2243   -1.4411    0.7286 C   0  0  0  0  0  0  0  0  0  0  0  0
    8.3986   -1.9549    1.1353 F   0  0  0  0  0  0  0  0  0  0  0  0
    6.7253   -1.9349   -0.4774 C   0  0  0  0  0  0  0  0  0  0  0  0
    5.5290   -1.4618   -0.9463 C   0  0  0  0  0  0  0  0  0  0  0  0
   -0.4228    0.6858   -0.3785 C   0  0  0  0  0  0  0  0  0  0  0  0
   -1.4552    0.2237   -1.1627 N   0  0  0  0  0  0  0  0  0  0  0  0
   -2.5948    0.2869   -0.4932 C   0  0  0  0  0  0  0  0  0  0  0  0
   -3.8901   -0.0844   -0.8124 C   0  0  0  0  0  0  0  0  0  0  0  0
   -4.9187    0.0457    0.0954 C   0  0  0  0  0  0  0  0  0  0  0  0
   -4.6588    0.5563    1.3438 C   0  0  0  0  0  0  0  0  0  0  0  0
   -3.3667    0.9369    1.6881 C   0  0  0  0  0  0  0  0  0  0  0  0
   -2.3410    0.7985    0.7619 C   0  0  0  0  0  0  0  0  0  0  0  0
   -0.9948    1.0272    0.7757 N   0  0  0  0  0  0  0  0  0  0  0  0
   -6.2594   -0.4122   -0.2853 C   0  0  0  0  0  0  0  0  0  0  0  0
   -6.7076   -1.5900    0.5731 C   0  0  0  0  0  0  0  0  0  0  0  0
   -7.2593    0.7071   -0.2545 C   0  0  0  0  0  0  0  0  0  0  0  0
   -6.2302   -0.8966   -1.6060 O   0  0  0  0  0  0  0  0  0  0  0  0
    5.1877    1.6152   -1.7963 H   0  0  0  0  0  0  0  0  0  0  0  0
    4.4492    2.7334   -0.5040 H   0  0  0  0  0  0  0  0  0  0  0  0
    3.9879    2.8317   -2.2797 H   0  0  0  0  0  0  0  0  0  0  0  0
    2.8656    0.8896   -2.3731 H   0  0  0  0  0  0  0  0  0  0  0  0
    2.1770    1.7704    0.4293 H   0  0  0  0  0  0  0  0  0  0  0  0
    1.6201    2.6159   -1.0947 H   0  0  0  0  0  0  0  0  0  0  0  0
    0.5081   -1.3657   -1.2256 H   0  0  0  0  0  0  0  0  0  0  0  0
    1.4529   -0.4893   -2.4918 H   0  0  0  0  0  0  0  0  0  0  0  0
    2.9842   -2.0139   -1.2296 H   0  0  0  0  0  0  0  0  0  0  0  0
    2.3192   -1.4451    0.3314 H   0  0  0  0  0  0  0  0  0  0  0  0
    4.7922    0.7282    1.5295 H   0  0  0  0  0  0  0  0  0  0  0  0
    6.9308   -0.1259    2.3726 H   0  0  0  0  0  0  0  0  0  0  0  0
    7.2569   -2.6834   -1.0614 H   0  0  0  0  0  0  0  0  0  0  0  0
    5.1159   -1.8229   -1.8803 H   0  0  0  0  0  0  0  0  0  0  0  0
   -4.0613   -0.4735   -1.8078 H   0  0  0  0  0  0  0  0  0  0  0  0
   -5.5000    0.6361    2.0197 H   0  0  0  0  0  0  0  0  0  0  0  0
   -3.1657    1.3257    2.6601 H   0  0  0  0  0  0  0  0  0  0  0  0
   -0.4945    1.4229    1.6024 H   0  0  0  0  0  0  0  0  0  0  0  0
   -7.7899   -1.7182    0.3860 H   0  0  0  0  0  0  0  0  0  0  0  0
   -6.5451   -1.4176    1.6349 H   0  0  0  0  0  0  0  0  0  0  0  0
   -6.1272   -2.4781    0.2188 H   0  0  0  0  0  0  0  0  0  0  0  0
   -6.8849    1.5664    0.3330 H   0  0  0  0  0  0  0  0  0  0  0  0
   -7.4193    1.0939   -1.2995 H   0  0  0  0  0  0  0  0  0  0  0  0
   -8.2293    0.3779    0.1725 H   0  0  0  0  0  0  0  0  0  0  0  0
   -6.7886   -1.7006   -1.6923 H   0  0  0  0  0  0  0  0  0  0  0  0
  1  2  1  0
  2  3  1  0
  3  4  1  0
  4  5  1  0
  5  6  1  0
  6  7  1  0
  7  8  1  0
  8  9  2  0
  9 10  1  0
 10 11  2  0
 11 12  1  0
 11 13  1  0
 13 14  2  0
  4 15  1  0
 15 16  2  0
 16 17  1  0
 17 18  2  0
 18 19  1  0
 19 20  2  0
 20 21  1  0
 21 22  2  0
 22 23  1  0
 19 24  1  0
 24 25  1  0
 24 26  1  0
 24 27  1  0
  7  2  1  0
 14  8  1  0
 23 15  1  0
 22 17  1  0
  1 28  1  0
  1 29  1  0
  1 30  1  0
  2 31  1  6
  3 32  1  0
  3 33  1  0
  5 34  1  0
  5 35  1  0
  6 36  1  0
  6 37  1  0
  9 38  1  0
 10 39  1  0
 13 40  1  0
 14 41  1  0
 18 42  1  0
 20 43  1  0
 21 44  1  0
 23 45  1  0
 25 46  1  0
 25 47  1  0
 25 48  1  0
 26 49  1  0
 26 50  1  0
 26 51  1  0
 27 52  1  0
M  END
$$$$
