[H]c1c([H])c(N([H])C(=O)c2c(C([H])([H])[H])c(C(=O)C(=O)N([H])C3(C#N)C([H])([H])C3([H])[H])c3n2C([H])([H])C([H])([H])C3([H])[H])c([H])c(Cl)c1F
     RDKit          3D

 48 51  0  0  0  0  0  0  0  0999 V2000
   -0.6425    1.8362   -1.2166 C   0  0  0  0  0  0  0  0  0  0  0  0
   -0.2859    0.4627   -0.8682 C   0  0  0  0  0  0  0  0  0  0  0  0
   -1.1483   -0.6045   -0.8809 C   0  0  0  0  0  0  0  0  0  0  0  0
   -2.5708   -0.6125   -1.2330 C   0  0  0  0  0  0  0  0  0  0  0  0
   -2.8569   -0.8175   -2.4381 O   0  0  0  0  0  0  0  0  0  0  0  0
   -3.6171   -0.3958   -0.2512 C   0  0  0  0  0  0  0  0  0  0  0  0
   -3.3050   -0.1935    0.9442 O   0  0  0  0  0  0  0  0  0  0  0  0
   -4.9789   -0.4088   -0.6190 N   0  0  0  0  0  0  0  0  0  0  0  0
   -5.9807   -0.1875    0.3981 C   0  0  0  0  0  0  0  0  0  0  0  0
   -5.8795    1.1401    1.1029 C   0  0  0  0  0  0  0  0  0  0  0  0
   -7.0491    0.8302    0.2006 C   0  0  0  0  0  0  0  0  0  0  0  0
   -6.2937   -1.3809    1.1796 C   0  0  0  0  0  0  0  0  0  0  0  0
   -6.5452   -2.3332    1.7890 N   0  0  0  0  0  0  0  0  0  0  0  0
   -0.4290   -1.7038   -0.4942 C   0  0  0  0  0  0  0  0  0  0  0  0
   -0.5798   -3.1843   -0.2452 C   0  0  0  0  0  0  0  0  0  0  0  0
    0.8404   -3.6202   -0.5047 C   0  0  0  0  0  0  0  0  0  0  0  0
    1.6130   -2.4904    0.1452 C   0  0  0  0  0  0  0  0  0  0  0  0
    0.8405   -1.3168   -0.2526 N   0  0  0  0  0  0  0  0  0  0  0  0
    0.9782    0.0024   -0.4664 C   0  0  0  0  0  0  0  0  0  0  0  0
    2.1340    0.8984   -0.3560 C   0  0  0  0  0  0  0  0  0  0  0  0
    2.0504    2.0730   -0.8079 O   0  0  0  0  0  0  0  0  0  0  0  0
    3.3408    0.4900    0.2437 N   0  0  0  0  0  0  0  0  0  0  0  0
    4.5222    1.2183    0.4234 C   0  0  0  0  0  0  0  0  0  0  0  0
    4.6664    2.5467    0.2534 C   0  0  0  0  0  0  0  0  0  0  0  0
    5.9079    3.1958    0.4414 C   0  0  0  0  0  0  0  0  0  0  0  0
    6.9945    2.4760    0.8037 C   0  0  0  0  0  0  0  0  0  0  0  0
    8.2137    3.0816    0.9930 F   0  0  0  0  0  0  0  0  0  0  0  0
    6.8842    1.1174    0.9867 C   0  0  0  0  0  0  0  0  0  0  0  0
    8.2997    0.1844    1.4583 Cl  0  0  0  0  0  0  0  0  0  0  0  0
    5.6723    0.5090    0.7991 C   0  0  0  0  0  0  0  0  0  0  0  0
   -1.7136    1.9170   -1.4891 H   0  0  0  0  0  0  0  0  0  0  0  0
   -0.5051    2.4627   -0.2968 H   0  0  0  0  0  0  0  0  0  0  0  0
   -0.0684    2.2582   -2.0587 H   0  0  0  0  0  0  0  0  0  0  0  0
   -5.2374   -0.5757   -1.6053 H   0  0  0  0  0  0  0  0  0  0  0  0
   -5.2030    1.9188    0.6938 H   0  0  0  0  0  0  0  0  0  0  0  0
   -6.0284    1.1023    2.2051 H   0  0  0  0  0  0  0  0  0  0  0  0
   -7.9991    0.6437    0.7340 H   0  0  0  0  0  0  0  0  0  0  0  0
   -7.1353    1.3290   -0.7729 H   0  0  0  0  0  0  0  0  0  0  0  0
   -0.8040   -3.3310    0.8125 H   0  0  0  0  0  0  0  0  0  0  0  0
   -1.3045   -3.6321   -0.9364 H   0  0  0  0  0  0  0  0  0  0  0  0
    1.0929   -3.6139   -1.5915 H   0  0  0  0  0  0  0  0  0  0  0  0
    1.0816   -4.5937   -0.0312 H   0  0  0  0  0  0  0  0  0  0  0  0
    2.6429   -2.4960   -0.2751 H   0  0  0  0  0  0  0  0  0  0  0  0
    1.6273   -2.5415    1.2372 H   0  0  0  0  0  0  0  0  0  0  0  0
    3.3149   -0.5197    0.6207 H   0  0  0  0  0  0  0  0  0  0  0  0
    3.8474    3.1670   -0.0207 H   0  0  0  0  0  0  0  0  0  0  0  0
    5.9648    4.2582    0.2914 H   0  0  0  0  0  0  0  0  0  0  0  0
    5.6313   -0.5658    0.9546 H   0  0  0  0  0  0  0  0  0  0  0  0
  1  2  1  0
  2  3  1  0
  3  4  1  0
  4  5  2  0
  4  6  1  0
  6  7  2  0
  6  8  1  0
  8  9  1  0
  9 10  1  0
 10 11  1  0
  9 12  1  0
 12 13  3  0
  3 14  2  0
 14 15  1  0
 15 16  1  0
 16 17  1  0
 17 18  1  0
 18 19  1  0
 19 20  1  0
 20 21  2  0
 20 22  1  0
 22 23  1  0
 23 24  2  0
 24 25  1  0
 25 26  2  0
 26 27  1  0
 26 28  1  0
 28 29  1  0
 28 30  2  0
 19  2  2  0
 30 23  1  0
 11  9  1  0
 18 14  1  0
  1 31  1  0
  1 32  1  0
  1 33  1  0
  8 34  1  0
 10 35  1  0
 10 36  1  0
 11 37  1  0
 11 38  1  0
 15 39  1  0
 15 40  1  0
 16 41  1  0
 16 42  1  0
 17 43  1  0
 17 44  1  0
 22 45  1  0
 24 46  1  0
 25 47  1  0
 30 48  1  0
M  END
$$$$
[H]c1nc([H])c(-c2c([H])c([H])c(OC([H])([H])N3C(=O)C([H])([H])c4c([H])nc([H])n4C([H])([H])C3([H])[H])c([H])c2[H])c([H])c1-c1c([H])c([H])c([H])c([H])c1[H]
     RDKit          3D

 53 57  0  0  0  0  0  0  0  0999 V2000
    3.4437   -0.2511    3.1281 O   0  0  0  0  0  0  0  0  0  0  0  0
    4.0333   -0.1632    1.9965 C   0  0  0  0  0  0  0  0  0  0  0  0
    4.2286    1.1595    1.5441 N   0  0  0  0  0  0  0  0  0  0  0  0
    3.3384    2.1741    2.0706 C   0  0  0  0  0  0  0  0  0  0  0  0
    2.2471    2.3871    1.3489 O   0  0  0  0  0  0  0  0  0  0  0  0
    1.1259    1.9454    0.8303 C   0  0  0  0  0  0  0  0  0  0  0  0
    0.3818    2.8641    0.0534 C   0  0  0  0  0  0  0  0  0  0  0  0
   -0.8095    2.5231   -0.5429 C   0  0  0  0  0  0  0  0  0  0  0  0
   -1.3237    1.2543   -0.3994 C   0  0  0  0  0  0  0  0  0  0  0  0
   -0.6427    0.3361    0.3400 C   0  0  0  0  0  0  0  0  0  0  0  0
    0.5635    0.6973    0.9382 C   0  0  0  0  0  0  0  0  0  0  0  0
   -2.5707    0.9274   -1.0479 C   0  0  0  0  0  0  0  0  0  0  0  0
   -2.8806    1.5305   -2.2434 C   0  0  0  0  0  0  0  0  0  0  0  0
   -4.0479    1.2553   -2.8965 N   0  0  0  0  0  0  0  0  0  0  0  0
   -4.9053    0.3753   -2.3514 C   0  0  0  0  0  0  0  0  0  0  0  0
   -4.6674   -0.2760   -1.1485 C   0  0  0  0  0  0  0  0  0  0  0  0
   -3.4678    0.0331   -0.5172 C   0  0  0  0  0  0  0  0  0  0  0  0
   -5.6346   -1.2164   -0.6163 C   0  0  0  0  0  0  0  0  0  0  0  0
   -6.4252   -1.9902   -1.4320 C   0  0  0  0  0  0  0  0  0  0  0  0
   -7.3367   -2.8735   -0.8813 C   0  0  0  0  0  0  0  0  0  0  0  0
   -7.4570   -2.9821    0.4764 C   0  0  0  0  0  0  0  0  0  0  0  0
   -6.6884   -2.2293    1.3193 C   0  0  0  0  0  0  0  0  0  0  0  0
   -5.7789   -1.3482    0.7591 C   0  0  0  0  0  0  0  0  0  0  0  0
    5.2400    1.5811    0.5938 C   0  0  0  0  0  0  0  0  0  0  0  0
    4.8524    0.8790   -0.7153 C   0  0  0  0  0  0  0  0  0  0  0  0
    5.3657   -0.4743   -0.7246 N   0  0  0  0  0  0  0  0  0  0  0  0
    6.1504   -0.9124   -1.7006 C   0  0  0  0  0  0  0  0  0  0  0  0
    6.4385   -2.1925   -1.4022 N   0  0  0  0  0  0  0  0  0  0  0  0
    5.8379   -2.5420   -0.2533 C   0  0  0  0  0  0  0  0  0  0  0  0
    5.1457   -1.4215    0.1765 C   0  0  0  0  0  0  0  0  0  0  0  0
    4.3725   -1.4929    1.4303 C   0  0  0  0  0  0  0  0  0  0  0  0
    3.1590    1.9977    3.1733 H   0  0  0  0  0  0  0  0  0  0  0  0
    3.9471    3.1489    2.1053 H   0  0  0  0  0  0  0  0  0  0  0  0
    0.7464    3.8711   -0.0866 H   0  0  0  0  0  0  0  0  0  0  0  0
   -1.3863    3.2273   -1.1427 H   0  0  0  0  0  0  0  0  0  0  0  0
   -1.0584   -0.6693    0.4499 H   0  0  0  0  0  0  0  0  0  0  0  0
    1.0415   -0.0738    1.5138 H   0  0  0  0  0  0  0  0  0  0  0  0
   -2.2213    2.2452   -2.7215 H   0  0  0  0  0  0  0  0  0  0  0  0
   -5.8512    0.1263   -2.8424 H   0  0  0  0  0  0  0  0  0  0  0  0
   -3.2416   -0.4500    0.4215 H   0  0  0  0  0  0  0  0  0  0  0  0
   -6.3077   -1.8823   -2.4920 H   0  0  0  0  0  0  0  0  0  0  0  0
   -7.9383   -3.4636   -1.5350 H   0  0  0  0  0  0  0  0  0  0  0  0
   -8.1770   -3.6801    0.9098 H   0  0  0  0  0  0  0  0  0  0  0  0
   -6.8282   -2.3590    2.3819 H   0  0  0  0  0  0  0  0  0  0  0  0
   -5.1829   -0.7634    1.4586 H   0  0  0  0  0  0  0  0  0  0  0  0
    6.2533    1.2811    0.9179 H   0  0  0  0  0  0  0  0  0  0  0  0
    5.1400    2.6774    0.4694 H   0  0  0  0  0  0  0  0  0  0  0  0
    5.1633    1.4879   -1.5667 H   0  0  0  0  0  0  0  0  0  0  0  0
    3.7378    0.7896   -0.7583 H   0  0  0  0  0  0  0  0  0  0  0  0
    6.4778   -0.3216   -2.5616 H   0  0  0  0  0  0  0  0  0  0  0  0
    5.9069   -3.5165    0.2096 H   0  0  0  0  0  0  0  0  0  0  0  0
    3.4647   -2.1198    1.3685 H   0  0  0  0  0  0  0  0  0  0  0  0
    5.0263   -2.0063    2.1946 H   0  0  0  0  0  0  0  0  0  0  0  0
  1  2  2  0
  2  3  1  0
  3  4  1  0
  4  5  1  0
  5  6  1  0
  6  7  2  0
  7  8  1  0
  8  9  2  0
  9 10  1  0
 10 11  2  0
  9 12  1  0
 12 13  2  0
 13 14  1  0
 14 15  2  0
 15 16  1  0
 16 17  2  0
 16 18  1  0
 18 19  2  0
 19 20  1  0
 20 21  2  0
 21 22  1  0
 22 23  2  0
  3 24  1  0
 24 25  1  0
 25 26  1  0
 26 27  1  0
 27 28  2  0
 28 29  1  0
 29 30  2  0
 30 31  1  0
 31  2  1  0
 11  6  1  0
 17 12  1  0
 23 18  1  0
 30 26  1  0
  4 32  1  0
  4 33  1  0
  7 34  1  0
  8 35  1  0
 10 36  1  0
 11 37  1  0
 13 38  1  0
 15 39  1  0
 17 40  1  0
 19 41  1  0
 20 42  1  0
 21 43  1  0
 22 44  1  0
 23 45  1  0
 24 46  1  0
 24 47  1  0
 25 48  1  0
 25 49  1  0
 27 50  1  0
 29 51  1  0
 31 52  1  0
 31 53  1  0
M  END
$$$$
[H]OC(=O)C([H])([H])[C@@]([H])(C(=O)C([H])([H])Oc1c([H])c([H])c([H])c([H])c1[H])N([H])C(=O)[C@@]([H])(N([H])C(=O)C(=O)N([H])C([H])([H])C([H])([H])c1c([H])c([H])c(N([H])S(=O)(=O)C([H])([H])[H])c([H])c1[H])C([H])([H])C([H])(C([H])([H])[H])C([H])([H])[H]
     RDKit          3D

 78 79  0  0  0  0  0  0  0  0999 V2000
    0.1557   -5.2284    0.5067 C   0  0  0  0  0  0  0  0  0  0  0  0
   -1.3262   -5.1376    0.4657 C   0  0  0  0  0  0  0  0  0  0  0  0
   -1.8326   -6.0092   -0.6653 C   0  0  0  0  0  0  0  0  0  0  0  0
   -1.9300   -3.7844    0.4744 C   0  0  0  0  0  0  0  0  0  0  0  0
   -1.5698   -2.8813   -0.6524 C   0  0  2  0  0  0  0  0  0  0  0  0
   -0.1771   -2.5690   -0.7820 N   0  0  0  0  0  0  0  0  0  0  0  0
    0.4955   -1.9051    0.2716 C   0  0  0  0  0  0  0  0  0  0  0  0
   -0.0782   -1.5733    1.3425 O   0  0  0  0  0  0  0  0  0  0  0  0
    1.9341   -1.6019    0.0741 C   0  0  0  0  0  0  0  0  0  0  0  0
    2.4684   -1.9188   -0.9948 O   0  0  0  0  0  0  0  0  0  0  0  0
    2.5877   -0.9585    1.1562 N   0  0  0  0  0  0  0  0  0  0  0  0
    3.9800   -0.6107    1.0535 C   0  0  0  0  0  0  0  0  0  0  0  0
    4.1907    0.3818   -0.0307 C   0  0  0  0  0  0  0  0  0  0  0  0
    5.6411    0.7782   -0.1505 C   0  0  0  0  0  0  0  0  0  0  0  0
    6.1513    1.8210    0.5824 C   0  0  0  0  0  0  0  0  0  0  0  0
    7.4984    2.1926    0.4695 C   0  0  0  0  0  0  0  0  0  0  0  0
    8.3582    1.5352   -0.3721 C   0  0  0  0  0  0  0  0  0  0  0  0
    9.7264    1.8576   -0.5372 N   0  0  0  0  0  0  0  0  0  0  0  0
   10.3819    3.4175   -0.7246 S   0  0  0  0  0  0  0  0  0  0  0  0
   10.0629    4.4034    0.6942 C   0  0  0  0  0  0  0  0  0  0  0  0
   11.8568    3.3832   -1.0039 O   0  0  0  0  0  0  0  0  0  0  0  0
    9.6762    4.0936   -1.8901 O   0  0  0  0  0  0  0  0  0  0  0  0
    7.8140    0.4699   -1.1132 C   0  0  0  0  0  0  0  0  0  0  0  0
    6.4896    0.1073   -1.0002 C   0  0  0  0  0  0  0  0  0  0  0  0
   -2.3080   -1.5837   -0.5930 C   0  0  0  0  0  0  0  0  0  0  0  0
   -1.7100   -0.4847   -0.7055 O   0  0  0  0  0  0  0  0  0  0  0  0
   -3.7146   -1.5620   -0.4052 N   0  0  0  0  0  0  0  0  0  0  0  0
   -4.4274   -0.2836   -0.3494 C   0  0  1  0  0  0  0  0  0  0  0  0
   -5.5198   -0.2554   -1.3718 C   0  0  0  0  0  0  0  0  0  0  0  0
   -6.5556   -1.2727   -1.2183 C   0  0  0  0  0  0  0  0  0  0  0  0
   -7.5814   -1.3469   -2.1457 O   0  0  0  0  0  0  0  0  0  0  0  0
   -6.5757   -2.0988   -0.2846 O   0  0  0  0  0  0  0  0  0  0  0  0
   -4.9150   -0.0727    1.0513 C   0  0  0  0  0  0  0  0  0  0  0  0
   -4.7036   -0.9774    1.8732 O   0  0  0  0  0  0  0  0  0  0  0  0
   -5.6235    1.1579    1.4690 C   0  0  0  0  0  0  0  0  0  0  0  0
   -5.7733    2.1005    0.4577 O   0  0  0  0  0  0  0  0  0  0  0  0
   -6.4007    3.3282    0.6322 C   0  0  0  0  0  0  0  0  0  0  0  0
   -6.9311    3.7156    1.8482 C   0  0  0  0  0  0  0  0  0  0  0  0
   -7.5459    4.9467    1.9736 C   0  0  0  0  0  0  0  0  0  0  0  0
   -7.6581    5.8274    0.9208 C   0  0  0  0  0  0  0  0  0  0  0  0
   -7.1321    5.4478   -0.2939 C   0  0  0  0  0  0  0  0  0  0  0  0
   -6.5085    4.2019   -0.4280 C   0  0  0  0  0  0  0  0  0  0  0  0
    0.6797   -4.9611   -0.4272 H   0  0  0  0  0  0  0  0  0  0  0  0
    0.6129   -4.7913    1.4269 H   0  0  0  0  0  0  0  0  0  0  0  0
    0.3880   -6.3390    0.6219 H   0  0  0  0  0  0  0  0  0  0  0  0
   -1.6942   -5.6565    1.4062 H   0  0  0  0  0  0  0  0  0  0  0  0
   -1.4913   -7.0464   -0.4379 H   0  0  0  0  0  0  0  0  0  0  0  0
   -1.4671   -5.6483   -1.6425 H   0  0  0  0  0  0  0  0  0  0  0  0
   -2.9585   -5.9657   -0.6536 H   0  0  0  0  0  0  0  0  0  0  0  0
   -1.7765   -3.2869    1.4501 H   0  0  0  0  0  0  0  0  0  0  0  0
   -3.0540   -3.9503    0.4128 H   0  0  0  0  0  0  0  0  0  0  0  0
   -1.8464   -3.3818   -1.6540 H   0  0  0  0  0  0  0  0  0  0  0  0
    0.3400   -2.8262   -1.6379 H   0  0  0  0  0  0  0  0  0  0  0  0
    2.0514   -0.7304    2.0490 H   0  0  0  0  0  0  0  0  0  0  0  0
    4.3042   -0.1150    2.0155 H   0  0  0  0  0  0  0  0  0  0  0  0
    4.6196   -1.5144    0.9242 H   0  0  0  0  0  0  0  0  0  0  0  0
    3.8293   -0.0019   -0.9960 H   0  0  0  0  0  0  0  0  0  0  0  0
    3.6389    1.3165    0.2101 H   0  0  0  0  0  0  0  0  0  0  0  0
    5.5251    2.3685    1.2550 H   0  0  0  0  0  0  0  0  0  0  0  0
    7.8592    3.0140    1.0656 H   0  0  0  0  0  0  0  0  0  0  0  0
   10.3870    1.0321   -0.5426 H   0  0  0  0  0  0  0  0  0  0  0  0
    9.1291    4.9702    0.5729 H   0  0  0  0  0  0  0  0  0  0  0  0
   10.0664    3.7526    1.6100 H   0  0  0  0  0  0  0  0  0  0  0  0
   10.8898    5.1321    0.8585 H   0  0  0  0  0  0  0  0  0  0  0  0
    8.4795   -0.0468   -1.7701 H   0  0  0  0  0  0  0  0  0  0  0  0
    6.0682   -0.7167   -1.5716 H   0  0  0  0  0  0  0  0  0  0  0  0
   -4.2030   -2.4715   -0.3114 H   0  0  0  0  0  0  0  0  0  0  0  0
   -3.6889    0.5052   -0.5714 H   0  0  0  0  0  0  0  0  0  0  0  0
   -4.9979   -0.4546   -2.3684 H   0  0  0  0  0  0  0  0  0  0  0  0
   -5.9614    0.7533   -1.5309 H   0  0  0  0  0  0  0  0  0  0  0  0
   -8.5479   -1.5488   -1.8917 H   0  0  0  0  0  0  0  0  0  0  0  0
   -6.6648    0.8269    1.7511 H   0  0  0  0  0  0  0  0  0  0  0  0
   -5.2069    1.5837    2.4098 H   0  0  0  0  0  0  0  0  0  0  0  0
   -6.8498    3.0395    2.6793 H   0  0  0  0  0  0  0  0  0  0  0  0
   -7.9666    5.2594    2.9419 H   0  0  0  0  0  0  0  0  0  0  0  0
   -8.1431    6.7832    1.0454 H   0  0  0  0  0  0  0  0  0  0  0  0
   -7.2121    6.1356   -1.1359 H   0  0  0  0  0  0  0  0  0  0  0  0
   -6.1084    3.9293   -1.3793 H   0  0  0  0  0  0  0  0  0  0  0  0
  1  2  1  0
  2  3  1  0
  2  4  1  0
  4  5  1  0
  5  6  1  0
  6  7  1  0
  7  8  2  0
  7  9  1  0
  9 10  2  0
  9 11  1  0
 11 12  1  0
 12 13  1  0
 13 14  1  0
 14 15  2  0
 15 16  1  0
 16 17  2  0
 17 18  1  0
 18 19  1  0
 19 20  1  0
 19 21  2  0
 19 22  2  0
 17 23  1  0
 23 24  2  0
  5 25  1  0
 25 26  2  0
 25 27  1  0
 27 28  1  0
 28 29  1  0
 29 30  1  0
 30 31  1  0
 30 32  2  0
 28 33  1  0
 33 34  2  0
 33 35  1  0
 35 36  1  0
 36 37  1  0
 37 38  2  0
 38 39  1  0
 39 40  2  0
 40 41  1  0
 41 42  2  0
 24 14  1  0
 42 37  1  0
  1 43  1  0
  1 44  1  0
  1 45  1  0
  2 46  1  0
  3 47  1  0
  3 48  1  0
  3 49  1  0
  4 50  1  0
  4 51  1  0
  5 52  1  6
  6 53  1  0
 11 54  1  0
 12 55  1  0
 12 56  1  0
 13 57  1  0
 13 58  1  0
 15 59  1  0
 16 60  1  0
 18 61  1  0
 20 62  1  0
 20 63  1  0
 20 64  1  0
 23 65  1  0
 24 66  1  0
 27 67  1  0
 28 68  1  6
 29 69  1  0
 29 70  1  0
 31 71  1  0
 35 72  1  0
 35 73  1  0
 38 74  1  0
 39 75  1  0
 40 76  1  0
 41 77  1  0
 42 78  1  0
M  END
$$$$
[H]OC(=O)C([H])([H])[C@@]([H])(C(=O)N([H])[C@]([H])(C(=O)N([H])[H])C([H])([H])c1c([H])c([H])c(O[H])c([H])c1[H])N([H])C(=O)[C@@]([H])(S[H])C([H])([H])C([H])(C([H])([H])[H])C([H])([H])[H]
     RDKit          3D

 56 56  0  0  0  0  0  0  0  0999 V2000
   -6.1631    1.3015   -1.1608 C   0  0  0  0  0  0  0  0  0  0  0  0
   -5.3845    1.7127    0.0619 C   0  0  0  0  0  0  0  0  0  0  0  0
   -4.8587    3.1224   -0.1978 C   0  0  0  0  0  0  0  0  0  0  0  0
   -4.1848    0.8393    0.2842 C   0  0  0  0  0  0  0  0  0  0  0  0
   -4.5500   -0.6201    0.4781 C   0  0  2  0  0  0  0  0  0  0  0  0
   -5.6328   -0.8145    1.9158 S   0  0  0  0  0  0  0  0  0  0  0  0
   -3.3058   -1.3779    0.7131 C   0  0  0  0  0  0  0  0  0  0  0  0
   -3.1517   -2.0260    1.7809 O   0  0  0  0  0  0  0  0  0  0  0  0
   -2.2827   -1.3782   -0.2619 N   0  0  0  0  0  0  0  0  0  0  0  0
   -1.0137   -2.1335   -0.0628 C   0  0  1  0  0  0  0  0  0  0  0  0
   -1.0508   -3.1892   -1.1287 C   0  0  0  0  0  0  0  0  0  0  0  0
    0.0924   -4.1119   -1.1460 C   0  0  0  0  0  0  0  0  0  0  0  0
    0.2245   -5.0603   -0.1345 O   0  0  0  0  0  0  0  0  0  0  0  0
    0.9628   -4.0968   -2.0219 O   0  0  0  0  0  0  0  0  0  0  0  0
    0.0997   -1.1997   -0.1936 C   0  0  0  0  0  0  0  0  0  0  0  0
   -0.1861    0.0243   -0.4605 O   0  0  0  0  0  0  0  0  0  0  0  0
    1.4723   -1.4698   -0.0570 N   0  0  0  0  0  0  0  0  0  0  0  0
    2.4813   -0.3997   -0.1958 C   0  0  1  0  0  0  0  0  0  0  0  0
    3.1659   -0.2061    1.1182 C   0  0  0  0  0  0  0  0  0  0  0  0
    4.2041    0.8288    1.1698 C   0  0  0  0  0  0  0  0  0  0  0  0
    3.8459    2.1630    1.3879 C   0  0  0  0  0  0  0  0  0  0  0  0
    4.8316    3.1114    1.4757 C   0  0  0  0  0  0  0  0  0  0  0  0
    6.1765    2.8516    1.3642 C   0  0  0  0  0  0  0  0  0  0  0  0
    7.1485    3.8380    1.4585 O   0  0  0  0  0  0  0  0  0  0  0  0
    6.5341    1.5344    1.1489 C   0  0  0  0  0  0  0  0  0  0  0  0
    5.5685    0.5596    1.0561 C   0  0  0  0  0  0  0  0  0  0  0  0
    3.4203   -0.7708   -1.2378 C   0  0  0  0  0  0  0  0  0  0  0  0
    4.3733    0.1476   -1.7299 N   0  0  0  0  0  0  0  0  0  0  0  0
    3.4153   -1.9132   -1.7395 O   0  0  0  0  0  0  0  0  0  0  0  0
   -5.4908    1.3048   -2.0334 H   0  0  0  0  0  0  0  0  0  0  0  0
   -6.5922    0.2897   -1.0760 H   0  0  0  0  0  0  0  0  0  0  0  0
   -6.9657    2.0682   -1.3498 H   0  0  0  0  0  0  0  0  0  0  0  0
   -6.0252    1.7017    0.9594 H   0  0  0  0  0  0  0  0  0  0  0  0
   -5.6249    3.6940   -0.7505 H   0  0  0  0  0  0  0  0  0  0  0  0
   -4.6005    3.5698    0.7843 H   0  0  0  0  0  0  0  0  0  0  0  0
   -3.9261    3.0333   -0.7948 H   0  0  0  0  0  0  0  0  0  0  0  0
   -3.4941    0.9410   -0.5672 H   0  0  0  0  0  0  0  0  0  0  0  0
   -3.6676    1.1922    1.1953 H   0  0  0  0  0  0  0  0  0  0  0  0
   -5.0644   -1.0053   -0.4235 H   0  0  0  0  0  0  0  0  0  0  0  0
   -5.3250   -1.9767    2.6425 H   0  0  0  0  0  0  0  0  0  0  0  0
   -2.3976   -0.8470   -1.1394 H   0  0  0  0  0  0  0  0  0  0  0  0
   -1.0594   -2.6138    0.9398 H   0  0  0  0  0  0  0  0  0  0  0  0
   -1.1635   -2.7128   -2.1551 H   0  0  0  0  0  0  0  0  0  0  0  0
   -1.9675   -3.8201   -1.0311 H   0  0  0  0  0  0  0  0  0  0  0  0
   -0.5754   -5.4713    0.3265 H   0  0  0  0  0  0  0  0  0  0  0  0
    1.8215   -2.4169    0.1464 H   0  0  0  0  0  0  0  0  0  0  0  0
    1.9239    0.5393   -0.4131 H   0  0  0  0  0  0  0  0  0  0  0  0
    3.6609   -1.1619    1.4648 H   0  0  0  0  0  0  0  0  0  0  0  0
    2.4420    0.0416    1.9395 H   0  0  0  0  0  0  0  0  0  0  0  0
    2.7903    2.4321    1.4851 H   0  0  0  0  0  0  0  0  0  0  0  0
    4.5405    4.1471    1.6460 H   0  0  0  0  0  0  0  0  0  0  0  0
    7.5004    4.0070    2.4055 H   0  0  0  0  0  0  0  0  0  0  0  0
    7.5832    1.2647    1.0523 H   0  0  0  0  0  0  0  0  0  0  0  0
    5.8820   -0.4636    0.8865 H   0  0  0  0  0  0  0  0  0  0  0  0
    4.2215    1.1750   -1.7892 H   0  0  0  0  0  0  0  0  0  0  0  0
    5.3210   -0.1791   -2.0745 H   0  0  0  0  0  0  0  0  0  0  0  0
  1  2  1  0
  2  3  1  0
  2  4  1  0
  4  5  1  0
  5  6  1  0
  5  7  1  0
  7  8  2  0
  7  9  1  0
  9 10  1  0
 10 11  1  0
 11 12  1  0
 12 13  1  0
 12 14  2  0
 10 15  1  0
 15 16  2  0
 15 17  1  0
 17 18  1  0
 18 19  1  0
 19 20  1  0
 20 21  2  0
 21 22  1  0
 22 23  2  0
 23 24  1  0
 23 25  1  0
 25 26  2  0
 18 27  1  0
 27 28  1  0
 27 29  2  0
 26 20  1  0
  1 30  1  0
  1 31  1  0
  1 32  1  0
  2 33  1  0
  3 34  1  0
  3 35  1  0
  3 36  1  0
  4 37  1  0
  4 38  1  0
  5 39  1  6
  6 40  1  0
  9 41  1  0
 10 42  1  1
 11 43  1  0
 11 44  1  0
 13 45  1  0
 17 46  1  0
 18 47  1  6
 19 48  1  0
 19 49  1  0
 21 50  1  0
 22 51  1  0
 24 52  1  0
 25 53  1  0
 26 54  1  0
 28 55  1  0
 28 56  1  0
M  END
$$$$
[H]OC([H])([H])[C@@]([H])(C(=O)N([H])[C@]([H])(C([H])=S)C([H])([H])C([H])([H])C([H])([H])N=C(N([H])[H])N([H])[H])N([H])C(=O)[C@@]1([H])N(C(=O)[C@@]([H])(N([H])C(=O)[C@@]([H])(N([H])C(=O)[C@@]([H])(N([H])C(=O)C([H])([H])N([H])C(=O)C([H])([H])[H])C([H])([H])O[H])C([H])(C([H])([H])[H])C([H])([H])[H])C([H])([H])C([H])([H])C([H])([H])C([H])([H])N([H])[H])C([H])([H])C([H])([H])C1([H])[H]
     RDKit          3D

110110  0  0  0  0  0  0  0  0999 V2000
  -14.1675   -0.5830   -0.0271 C   0  0  0  0  0  0  0  0  0  0  0  0
  -13.1716   -1.6098    0.3437 C   0  0  0  0  0  0  0  0  0  0  0  0
  -13.4180   -2.8387    0.3841 O   0  0  0  0  0  0  0  0  0  0  0  0
  -11.8270   -1.1974    0.6916 N   0  0  0  0  0  0  0  0  0  0  0  0
  -10.8401   -2.1477    1.0601 C   0  0  0  0  0  0  0  0  0  0  0  0
   -9.4840   -1.6559    1.3636 C   0  0  0  0  0  0  0  0  0  0  0  0
   -8.6641   -2.5961    1.7487 O   0  0  0  0  0  0  0  0  0  0  0  0
   -9.0564   -0.3651    1.2790 N   0  0  0  0  0  0  0  0  0  0  0  0
   -7.8924    0.3870    1.5118 C   0  0  1  0  0  0  0  0  0  0  0  0
   -7.0301   -0.1674    2.6316 C   0  0  0  0  0  0  0  0  0  0  0  0
   -6.4893   -1.3916    2.4321 O   0  0  0  0  0  0  0  0  0  0  0  0
   -7.0671    0.5891    0.2848 C   0  0  0  0  0  0  0  0  0  0  0  0
   -7.3309    0.1247   -0.8407 O   0  0  0  0  0  0  0  0  0  0  0  0
   -5.8955    1.3613    0.4070 N   0  0  0  0  0  0  0  0  0  0  0  0
   -4.9664    1.6259   -0.7158 C   0  0  1  0  0  0  0  0  0  0  0  0
   -4.8934    3.0690   -0.9378 C   0  0  0  0  0  0  0  0  0  0  0  0
   -4.0299    3.5727   -2.0409 C   0  0  0  0  0  0  0  0  0  0  0  0
   -4.6463    3.9123    0.3117 C   0  0  0  0  0  0  0  0  0  0  0  0
   -3.7943    0.7924   -0.5904 C   0  0  0  0  0  0  0  0  0  0  0  0
   -3.9568   -0.1946    0.2707 O   0  0  0  0  0  0  0  0  0  0  0  0
   -2.5322    0.8381   -1.2155 N   0  0  0  0  0  0  0  0  0  0  0  0
   -1.5273   -0.1613   -0.9537 C   0  0  1  0  0  0  0  0  0  0  0  0
   -1.2222   -0.9956   -2.1529 C   0  0  0  0  0  0  0  0  0  0  0  0
   -0.7598   -0.3816   -3.3927 C   0  0  0  0  0  0  0  0  0  0  0  0
    0.4907    0.4132   -3.4020 C   0  0  0  0  0  0  0  0  0  0  0  0
    0.6793    0.8720   -4.8679 C   0  0  0  0  0  0  0  0  0  0  0  0
    0.7923   -0.2667   -5.7469 N   0  0  0  0  0  0  0  0  0  0  0  0
   -0.3908    0.2644   -0.1419 C   0  0  0  0  0  0  0  0  0  0  0  0
   -0.0084    1.4439   -0.1227 O   0  0  0  0  0  0  0  0  0  0  0  0
    0.3751   -0.6481    0.7020 N   0  0  0  0  0  0  0  0  0  0  0  0
   -0.0758   -2.0065    0.8853 C   0  0  0  0  0  0  0  0  0  0  0  0
    0.5696   -2.4242    2.2402 C   0  0  0  0  0  0  0  0  0  0  0  0
    1.8845   -1.7073    2.1583 C   0  0  0  0  0  0  0  0  0  0  0  0
    1.5801   -0.4534    1.4018 C   0  0  1  0  0  0  0  0  0  0  0  0
    2.7690   -0.1041    0.5142 C   0  0  0  0  0  0  0  0  0  0  0  0
    2.5912    0.4086   -0.5851 O   0  0  0  0  0  0  0  0  0  0  0  0
    3.9906   -0.4256    1.0714 N   0  0  0  0  0  0  0  0  0  0  0  0
    5.1970   -0.7414    1.6180 C   0  0  1  0  0  0  0  0  0  0  0  0
    5.7972   -1.9314    0.8668 C   0  0  0  0  0  0  0  0  0  0  0  0
    6.0162   -1.6230   -0.4583 O   0  0  0  0  0  0  0  0  0  0  0  0
    6.1958    0.3686    1.7694 C   0  0  0  0  0  0  0  0  0  0  0  0
    5.7745    1.5293    2.0910 O   0  0  0  0  0  0  0  0  0  0  0  0
    7.5794    0.1765    1.5734 N   0  0  0  0  0  0  0  0  0  0  0  0
    8.5070    1.2643    1.7476 C   0  0  1  0  0  0  0  0  0  0  0  0
    9.6320    1.0168    2.6568 C   0  0  0  0  0  0  0  0  0  0  0  0
   10.5838   -0.0808    2.4400 C   0  0  0  0  0  0  0  0  0  0  0  0
   11.3857   -0.1775    1.2170 C   0  0  0  0  0  0  0  0  0  0  0  0
   10.7199   -0.3766   -0.0228 N   0  0  0  0  0  0  0  0  0  0  0  0
   11.3406   -0.4432   -1.1583 C   0  0  0  0  0  0  0  0  0  0  0  0
   10.6122   -0.6403   -2.3550 N   0  0  0  0  0  0  0  0  0  0  0  0
   12.7407   -0.3155   -1.1943 N   0  0  0  0  0  0  0  0  0  0  0  0
    8.7622    1.9419    0.4696 C   0  0  0  0  0  0  0  0  0  0  0  0
    9.4282    3.2099    0.3510 S   0  0  0  0  0  0  0  0  0  0  0  0
  -14.8991   -0.4330    0.8185 H   0  0  0  0  0  0  0  0  0  0  0  0
  -14.6892   -0.8372   -0.9512 H   0  0  0  0  0  0  0  0  0  0  0  0
  -13.6462    0.3946   -0.1823 H   0  0  0  0  0  0  0  0  0  0  0  0
  -11.6716   -0.1889    0.6512 H   0  0  0  0  0  0  0  0  0  0  0  0
  -10.8144   -2.9722    0.3004 H   0  0  0  0  0  0  0  0  0  0  0  0
  -11.2091   -2.6139    2.0345 H   0  0  0  0  0  0  0  0  0  0  0  0
   -9.8738    0.3090    0.9147 H   0  0  0  0  0  0  0  0  0  0  0  0
   -8.2101    1.4050    1.9255 H   0  0  0  0  0  0  0  0  0  0  0  0
   -6.2184    0.5980    2.8281 H   0  0  0  0  0  0  0  0  0  0  0  0
   -7.6262   -0.1288    3.5984 H   0  0  0  0  0  0  0  0  0  0  0  0
   -6.3252   -1.8260    3.3105 H   0  0  0  0  0  0  0  0  0  0  0  0
   -5.6411    1.7825    1.3078 H   0  0  0  0  0  0  0  0  0  0  0  0
   -5.5547    1.1860   -1.6001 H   0  0  0  0  0  0  0  0  0  0  0  0
   -5.9579    3.3761   -1.2427 H   0  0  0  0  0  0  0  0  0  0  0  0
   -3.0200    3.9389   -1.7207 H   0  0  0  0  0  0  0  0  0  0  0  0
   -4.5037    4.4915   -2.5285 H   0  0  0  0  0  0  0  0  0  0  0  0
   -3.9509    2.8603   -2.9174 H   0  0  0  0  0  0  0  0  0  0  0  0
   -3.7014    3.6050    0.8048 H   0  0  0  0  0  0  0  0  0  0  0  0
   -4.4912    4.9856    0.0292 H   0  0  0  0  0  0  0  0  0  0  0  0
   -5.5035    3.8141    0.9787 H   0  0  0  0  0  0  0  0  0  0  0  0
   -2.3128    1.6052   -1.8590 H   0  0  0  0  0  0  0  0  0  0  0  0
   -2.1024   -0.9055   -0.2668 H   0  0  0  0  0  0  0  0  0  0  0  0
   -0.4512   -1.7567   -1.8394 H   0  0  0  0  0  0  0  0  0  0  0  0
   -2.1210   -1.6323   -2.4217 H   0  0  0  0  0  0  0  0  0  0  0  0
   -0.5451   -1.2563   -4.1016 H   0  0  0  0  0  0  0  0  0  0  0  0
   -1.5805    0.1444   -3.9753 H   0  0  0  0  0  0  0  0  0  0  0  0
    0.4775    1.3597   -2.8470 H   0  0  0  0  0  0  0  0  0  0  0  0
    1.3513   -0.2203   -3.1806 H   0  0  0  0  0  0  0  0  0  0  0  0
    1.6078    1.4568   -4.9355 H   0  0  0  0  0  0  0  0  0  0  0  0
   -0.2195    1.4532   -5.1885 H   0  0  0  0  0  0  0  0  0  0  0  0
    1.7722   -0.5113   -5.9888 H   0  0  0  0  0  0  0  0  0  0  0  0
    0.3113   -0.0537   -6.6461 H   0  0  0  0  0  0  0  0  0  0  0  0
   -1.1744   -1.9989    1.0900 H   0  0  0  0  0  0  0  0  0  0  0  0
    0.1676   -2.7278    0.1236 H   0  0  0  0  0  0  0  0  0  0  0  0
    0.6261   -3.5089    2.3349 H   0  0  0  0  0  0  0  0  0  0  0  0
   -0.0135   -1.9485    3.0499 H   0  0  0  0  0  0  0  0  0  0  0  0
    2.3279   -1.5092    3.1608 H   0  0  0  0  0  0  0  0  0  0  0  0
    2.5624   -2.3198    1.5192 H   0  0  0  0  0  0  0  0  0  0  0  0
    1.4395    0.4188    2.1021 H   0  0  0  0  0  0  0  0  0  0  0  0
    4.6632    0.0370   -0.0414 H   0  0  0  0  0  0  0  0  0  0  0  0
    5.1002   -1.1134    2.7064 H   0  0  0  0  0  0  0  0  0  0  0  0
    4.9920   -2.7338    0.8598 H   0  0  0  0  0  0  0  0  0  0  0  0
    6.6711   -2.2703    1.4234 H   0  0  0  0  0  0  0  0  0  0  0  0
    6.7071   -2.1197   -0.9159 H   0  0  0  0  0  0  0  0  0  0  0  0
    7.9225   -0.7643    1.2919 H   0  0  0  0  0  0  0  0  0  0  0  0
    7.8786    2.0957    2.3235 H   0  0  0  0  0  0  0  0  0  0  0  0
   10.1917    2.0043    2.7626 H   0  0  0  0  0  0  0  0  0  0  0  0
    9.2447    0.8661    3.7324 H   0  0  0  0  0  0  0  0  0  0  0  0
   11.3307   -0.1342    3.3080 H   0  0  0  0  0  0  0  0  0  0  0  0
   10.0790   -1.1096    2.5625 H   0  0  0  0  0  0  0  0  0  0  0  0
   12.0972   -1.0599    1.3375 H   0  0  0  0  0  0  0  0  0  0  0  0
   12.0562    0.7281    1.1208 H   0  0  0  0  0  0  0  0  0  0  0  0
    9.5612   -0.6630   -2.3970 H   0  0  0  0  0  0  0  0  0  0  0  0
   11.1055   -0.7702   -3.2534 H   0  0  0  0  0  0  0  0  0  0  0  0
   13.1966    0.5225   -0.8130 H   0  0  0  0  0  0  0  0  0  0  0  0
   13.3135   -1.0713   -1.6097 H   0  0  0  0  0  0  0  0  0  0  0  0
    8.4159    1.4657   -0.4594 H   0  0  0  0  0  0  0  0  0  0  0  0
  1  2  1  0
  2  3  2  0
  2  4  1  0
  4  5  1  0
  5  6  1  0
  6  7  2  0
  6  8  1  0
  8  9  1  0
  9 10  1  0
 10 11  1  0
  9 12  1  0
 12 13  2  0
 12 14  1  0
 14 15  1  0
 15 16  1  0
 16 17  1  0
 16 18  1  0
 15 19  1  0
 19 20  2  0
 19 21  1  0
 21 22  1  0
 22 23  1  0
 23 24  1  0
 24 25  1  0
 25 26  1  0
 26 27  1  0
 22 28  1  0
 28 29  2  0
 28 30  1  0
 30 31  1  0
 31 32  1  0
 32 33  1  0
 33 34  1  0
 34 35  1  0
 35 36  2  0
 35 37  1  0
 37 38  1  0
 38 39  1  0
 39 40  1  0
 38 41  1  0
 41 42  2  0
 41 43  1  0
 43 44  1  0
 44 45  1  0
 45 46  1  0
 46 47  1  0
 47 48  1  0
 48 49  2  3
 49 50  1  0
 49 51  1  0
 44 52  1  0
 52 53  2  0
 34 30  1  0
  1 54  1  0
  1 55  1  0
  1 56  1  0
  4 57  1  0
  5 58  1  0
  5 59  1  0
  8 60  1  0
  9 61  1  1
 10 62  1  0
 10 63  1  0
 11 64  1  0
 14 65  1  0
 15 66  1  6
 16 67  1  0
 17 68  1  0
 17 69  1  0
 17 70  1  0
 18 71  1  0
 18 72  1  0
 18 73  1  0
 21 74  1  0
 22 75  1  1
 23 76  1  0
 23 77  1  0
 24 78  1  0
 24 79  1  0
 25 80  1  0
 25 81  1  0
 26 82  1  0
 26 83  1  0
 27 84  1  0
 27 85  1  0
 31 86  1  0
 31 87  1  0
 32 88  1  0
 32 89  1  0
 33 90  1  0
 33 91  1  0
 34 92  1  1
 37 93  1  0
 38 94  1  1
 39 95  1  0
 39 96  1  0
 40 97  1  0
 43 98  1  0
 44 99  1  1
 45100  1  0
 45101  1  0
 46102  1  0
 46103  1  0
 47104  1  0
 47105  1  0
 50106  1  0
 50107  1  0
 51108  1  0
 51109  1  0
 52110  1  0
M  END
$$$$
[H]O[C@@]1([H])C([H])([H])[C@@]([H])(OC([H])([H])c2c([H])c([H])c(F)c([H])c2[H])C([H])([H])[C@@]1([H])OC([H])([H])[C@]1([H])C([H])([H])[C@]2([H])N([H])C(=O)[C@]([H])(C(=O)OC([H])([H])[H])C([H])([H])[C@]1([H])C2([H])[H]
     RDKit          3D

 61 64  0  0  0  0  0  0  0  0999 V2000
    5.1925    3.4002   -2.2623 C   0  0  0  0  0  0  0  0  0  0  0  0
    5.2317    2.1774   -1.5649 O   0  0  0  0  0  0  0  0  0  0  0  0
    4.1956    1.2686   -1.5184 C   0  0  0  0  0  0  0  0  0  0  0  0
    3.1459    1.5514   -2.1408 O   0  0  0  0  0  0  0  0  0  0  0  0
    4.2759   -0.0151   -0.7689 C   0  0  2  0  0  0  0  0  0  0  0  0
    2.9543   -0.7478   -0.9475 C   0  0  0  0  0  0  0  0  0  0  0  0
    2.5689   -1.2134    0.3191 C   0  0  1  0  0  0  0  0  0  0  0  0
    1.6469   -1.9171    1.0938 C   0  0  2  0  0  0  0  0  0  0  0  0
    0.3011   -1.3616    1.3910 C   0  0  0  0  0  0  0  0  0  0  0  0
   -0.5205   -1.1075    0.4500 O   0  0  0  0  0  0  0  0  0  0  0  0
   -0.6942   -0.3412   -0.5571 C   0  0  2  0  0  0  0  0  0  0  0  0
   -1.9279    0.5764   -0.5274 C   0  0  0  0  0  0  0  0  0  0  0  0
   -3.0088   -0.4206   -0.8956 C   0  0  2  0  0  0  0  0  0  0  0  0
   -3.4911   -0.9578    0.2577 O   0  0  0  0  0  0  0  0  0  0  0  0
   -4.8136   -0.7794    0.5407 C   0  0  0  0  0  0  0  0  0  0  0  0
   -5.2843    0.5931    0.6774 C   0  0  0  0  0  0  0  0  0  0  0  0
   -5.1496    1.2742    1.8595 C   0  0  0  0  0  0  0  0  0  0  0  0
   -5.5982    2.5748    1.9938 C   0  0  0  0  0  0  0  0  0  0  0  0
   -6.1877    3.2051    0.9398 C   0  0  0  0  0  0  0  0  0  0  0  0
   -6.6500    4.4955    1.0213 F   0  0  0  0  0  0  0  0  0  0  0  0
   -6.3406    2.5530   -0.2638 C   0  0  0  0  0  0  0  0  0  0  0  0
   -5.8785    1.2343   -0.3782 C   0  0  0  0  0  0  0  0  0  0  0  0
   -2.3458   -1.4281   -1.8086 C   0  0  0  0  0  0  0  0  0  0  0  0
   -0.8901   -0.9580   -1.9272 C   0  0  2  0  0  0  0  0  0  0  0  0
   -0.1651   -2.1080   -2.1437 O   0  0  0  0  0  0  0  0  0  0  0  0
    2.4755   -1.8587    2.4567 C   0  0  0  0  0  0  0  0  0  0  0  0
    3.9175   -1.7523    2.0292 C   0  0  2  0  0  0  0  0  0  0  0  0
    4.4690   -0.4271    1.8470 N   0  0  0  0  0  0  0  0  0  0  0  0
    4.6265    0.3627    0.6466 C   0  0  0  0  0  0  0  0  0  0  0  0
    5.1204    1.4936    0.8692 O   0  0  0  0  0  0  0  0  0  0  0  0
    3.7218   -2.2353    0.6106 C   0  0  0  0  0  0  0  0  0  0  0  0
    6.0878    3.9804   -1.9327 H   0  0  0  0  0  0  0  0  0  0  0  0
    5.2624    3.2619   -3.3640 H   0  0  0  0  0  0  0  0  0  0  0  0
    4.2513    3.9193   -2.0024 H   0  0  0  0  0  0  0  0  0  0  0  0
    5.1323   -0.5573   -1.2415 H   0  0  0  0  0  0  0  0  0  0  0  0
    2.2329   -0.1569   -1.5089 H   0  0  0  0  0  0  0  0  0  0  0  0
    3.2028   -1.6131   -1.6433 H   0  0  0  0  0  0  0  0  0  0  0  0
    2.6186   -0.2573    0.9231 H   0  0  0  0  0  0  0  0  0  0  0  0
    1.5972   -3.0292    0.8794 H   0  0  0  0  0  0  0  0  0  0  0  0
   -0.1499   -1.9088    2.3026 H   0  0  0  0  0  0  0  0  0  0  0  0
    0.5526   -0.3551    1.9338 H   0  0  0  0  0  0  0  0  0  0  0  0
    0.1454    0.4057   -0.6875 H   0  0  0  0  0  0  0  0  0  0  0  0
   -1.8554    1.3592   -1.3107 H   0  0  0  0  0  0  0  0  0  0  0  0
   -2.0714    1.0412    0.4472 H   0  0  0  0  0  0  0  0  0  0  0  0
   -3.7382    0.1244   -1.5213 H   0  0  0  0  0  0  0  0  0  0  0  0
   -4.9875   -1.2750    1.5436 H   0  0  0  0  0  0  0  0  0  0  0  0
   -5.4862   -1.3722   -0.1438 H   0  0  0  0  0  0  0  0  0  0  0  0
   -4.6809    0.8023    2.7308 H   0  0  0  0  0  0  0  0  0  0  0  0
   -5.5001    3.1267    2.9186 H   0  0  0  0  0  0  0  0  0  0  0  0
   -6.8085    3.0475   -1.1067 H   0  0  0  0  0  0  0  0  0  0  0  0
   -6.0322    0.7868   -1.3480 H   0  0  0  0  0  0  0  0  0  0  0  0
   -2.3817   -2.4455   -1.4267 H   0  0  0  0  0  0  0  0  0  0  0  0
   -2.7499   -1.4152   -2.8369 H   0  0  0  0  0  0  0  0  0  0  0  0
   -0.7576   -0.2413   -2.7345 H   0  0  0  0  0  0  0  0  0  0  0  0
   -0.6305   -2.9343   -1.8591 H   0  0  0  0  0  0  0  0  0  0  0  0
    2.3419   -2.8085    2.9817 H   0  0  0  0  0  0  0  0  0  0  0  0
    2.1336   -0.9874    3.0183 H   0  0  0  0  0  0  0  0  0  0  0  0
    4.5856   -2.4128    2.6111 H   0  0  0  0  0  0  0  0  0  0  0  0
    4.8117    0.0549    2.6866 H   0  0  0  0  0  0  0  0  0  0  0  0
    4.6267   -2.0198    0.0638 H   0  0  0  0  0  0  0  0  0  0  0  0
    3.3497   -3.2515    0.5239 H   0  0  0  0  0  0  0  0  0  0  0  0
  1  2  1  0
  2  3  1  0
  3  4  2  0
  3  5  1  0
  5  6  1  0
  6  7  1  0
  7  8  1  0
  8  9  1  0
  9 10  1  0
 10 11  1  0
 11 12  1  0
 12 13  1  0
 13 14  1  0
 14 15  1  0
 15 16  1  0
 16 17  2  0
 17 18  1  0
 18 19  2  0
 19 20  1  0
 19 21  1  0
 21 22  2  0
 13 23  1  0
 23 24  1  0
 24 25  1  0
  8 26  1  0
 26 27  1  0
 27 28  1  0
 28 29  1  0
 29 30  2  0
 27 31  1  0
 29  5  1  0
 31  7  1  0
 24 11  1  0
 22 16  1  0
  1 32  1  0
  1 33  1  0
  1 34  1  0
  5 35  1  6
  6 36  1  0
  6 37  1  0
  7 38  1  1
  8 39  1  6
  9 40  1  0
  9 41  1  0
 11 42  1  6
 12 43  1  0
 12 44  1  0
 13 45  1  6
 15 46  1  0
 15 47  1  0
 17 48  1  0
 18 49  1  0
 21 50  1  0
 22 51  1  0
 23 52  1  0
 23 53  1  0
 24 54  1  6
 25 55  1  0
 26 56  1  0
 26 57  1  0
 27 58  1  1
 28 59  1  0
 31 60  1  0
 31 61  1  0
M  END
$$$$
[H]OC([H])([H])[C@]([H])(N([H])c1c([H])c([H])c2nc([H])c(N([H])[C@]3([H])C([H])([H])C([H])([H])[C@@]([H])(C([H])([H])C(=O)N([H])[H])C([H])([H])C3([H])OC(C([H])([H])[H])(C([H])([H])[H])C([H])([H])[H])c(OC([H])(F)F)c2c1[H])C([H])(C([H])([H])[H])C([H])([H])[H]
     RDKit          3D

 77 79  0  0  0  0  0  0  0  0999 V2000
   -8.7640   -0.6725    1.2650 C   0  0  0  0  0  0  0  0  0  0  0  0
   -7.2930   -0.4814    0.9045 C   0  0  0  0  0  0  0  0  0  0  0  0
   -6.7836   -1.6915    0.2154 C   0  0  0  0  0  0  0  0  0  0  0  0
   -7.0915    0.7734    0.1126 C   0  0  2  0  0  0  0  0  0  0  0  0
   -7.8588    0.7432   -1.1697 C   0  0  0  0  0  0  0  0  0  0  0  0
   -7.8745    2.0026   -1.7788 O   0  0  0  0  0  0  0  0  0  0  0  0
   -5.7456    1.1701    0.0864 N   0  0  0  0  0  0  0  0  0  0  0  0
   -4.5981    0.6645   -0.5588 C   0  0  0  0  0  0  0  0  0  0  0  0
   -4.5889   -0.0352   -1.7274 C   0  0  0  0  0  0  0  0  0  0  0  0
   -3.4193   -0.5205   -2.3017 C   0  0  0  0  0  0  0  0  0  0  0  0
   -2.2263   -0.2808   -1.6583 C   0  0  0  0  0  0  0  0  0  0  0  0
   -1.0674   -0.7425   -2.2105 N   0  0  0  0  0  0  0  0  0  0  0  0
    0.1239   -0.5432   -1.6503 C   0  0  0  0  0  0  0  0  0  0  0  0
    0.2101    0.1621   -0.4521 C   0  0  0  0  0  0  0  0  0  0  0  0
    1.4785    0.4176    0.1046 N   0  0  0  0  0  0  0  0  0  0  0  0
    2.6822   -0.1829   -0.4067 C   0  0  2  0  0  0  0  0  0  0  0  0
    2.6264   -1.6470   -0.0081 C   0  0  0  0  0  0  0  0  0  0  0  0
    3.7449   -2.4608   -0.6211 C   0  0  0  0  0  0  0  0  0  0  0  0
    5.0245   -1.7920   -0.2354 C   0  0  1  0  0  0  0  0  0  0  0  0
    6.2610   -2.5363   -0.6126 C   0  0  0  0  0  0  0  0  0  0  0  0
    6.3818   -3.8672    0.0115 C   0  0  0  0  0  0  0  0  0  0  0  0
    7.4825   -4.7412   -0.3182 N   0  0  0  0  0  0  0  0  0  0  0  0
    5.5758   -4.3237    0.8393 O   0  0  0  0  0  0  0  0  0  0  0  0
    5.0475   -0.3688   -0.7842 C   0  0  0  0  0  0  0  0  0  0  0  0
    3.9632    0.4216    0.0587 C   0  0  0  0  0  0  0  0  0  0  0  0
    4.0395    1.7304   -0.3079 O   0  0  0  0  0  0  0  0  0  0  0  0
    4.4869    2.6557    0.5643 C   0  0  0  0  0  0  0  0  0  0  0  0
    3.7835    2.8601    1.8496 C   0  0  0  0  0  0  0  0  0  0  0  0
    4.3985    4.0085   -0.1776 C   0  0  0  0  0  0  0  0  0  0  0  0
    5.9845    2.5158    0.8612 C   0  0  0  0  0  0  0  0  0  0  0  0
   -0.9305    0.6583    0.1649 C   0  0  0  0  0  0  0  0  0  0  0  0
   -0.9099    1.3602    1.3576 O   0  0  0  0  0  0  0  0  0  0  0  0
   -1.0118    0.8342    2.6422 C   0  0  0  0  0  0  0  0  0  0  0  0
    0.1985    0.8859    3.3654 F   0  0  0  0  0  0  0  0  0  0  0  0
   -2.0089    1.4176    3.3929 F   0  0  0  0  0  0  0  0  0  0  0  0
   -2.1567    0.4275   -0.4586 C   0  0  0  0  0  0  0  0  0  0  0  0
   -3.3421    0.8698    0.0395 C   0  0  0  0  0  0  0  0  0  0  0  0
   -8.7917   -1.5483    1.9596 H   0  0  0  0  0  0  0  0  0  0  0  0
   -9.1197    0.1921    1.8263 H   0  0  0  0  0  0  0  0  0  0  0  0
   -9.3713   -0.9501    0.3973 H   0  0  0  0  0  0  0  0  0  0  0  0
   -6.7772   -0.3585    1.8984 H   0  0  0  0  0  0  0  0  0  0  0  0
   -7.3314   -2.5693    0.6797 H   0  0  0  0  0  0  0  0  0  0  0  0
   -5.7131   -1.9332    0.3993 H   0  0  0  0  0  0  0  0  0  0  0  0
   -7.0308   -1.6783   -0.8418 H   0  0  0  0  0  0  0  0  0  0  0  0
   -7.6443    1.6040    0.7114 H   0  0  0  0  0  0  0  0  0  0  0  0
   -7.7077   -0.0880   -1.8400 H   0  0  0  0  0  0  0  0  0  0  0  0
   -8.9545    0.6210   -0.8334 H   0  0  0  0  0  0  0  0  0  0  0  0
   -7.5027    1.9174   -2.6871 H   0  0  0  0  0  0  0  0  0  0  0  0
   -5.5481    2.0740    0.7008 H   0  0  0  0  0  0  0  0  0  0  0  0
   -5.4908   -0.2312   -2.2486 H   0  0  0  0  0  0  0  0  0  0  0  0
   -3.4279   -1.0757   -3.2325 H   0  0  0  0  0  0  0  0  0  0  0  0
    0.9820   -0.9445   -2.1661 H   0  0  0  0  0  0  0  0  0  0  0  0
    1.5534    1.0605    0.9027 H   0  0  0  0  0  0  0  0  0  0  0  0
    2.7162   -0.0992   -1.5378 H   0  0  0  0  0  0  0  0  0  0  0  0
    1.6714   -2.0972   -0.2069 H   0  0  0  0  0  0  0  0  0  0  0  0
    2.8310   -1.6473    1.0996 H   0  0  0  0  0  0  0  0  0  0  0  0
    3.6520   -3.4694   -0.2505 H   0  0  0  0  0  0  0  0  0  0  0  0
    3.6462   -2.4988   -1.7281 H   0  0  0  0  0  0  0  0  0  0  0  0
    5.0549   -1.6826    0.8817 H   0  0  0  0  0  0  0  0  0  0  0  0
    7.1588   -1.9329   -0.3134 H   0  0  0  0  0  0  0  0  0  0  0  0
    6.3229   -2.6605   -1.7358 H   0  0  0  0  0  0  0  0  0  0  0  0
    7.7208   -4.9239   -1.3140 H   0  0  0  0  0  0  0  0  0  0  0  0
    8.0029   -5.1612    0.4553 H   0  0  0  0  0  0  0  0  0  0  0  0
    4.7132   -0.3416   -1.8285 H   0  0  0  0  0  0  0  0  0  0  0  0
    6.0348    0.0408   -0.5979 H   0  0  0  0  0  0  0  0  0  0  0  0
    4.1630    0.1720    1.0977 H   0  0  0  0  0  0  0  0  0  0  0  0
    4.2400    3.7361    2.3555 H   0  0  0  0  0  0  0  0  0  0  0  0
    2.7076    3.1402    1.6967 H   0  0  0  0  0  0  0  0  0  0  0  0
    3.8788    2.0125    2.5641 H   0  0  0  0  0  0  0  0  0  0  0  0
    5.0464    3.9594   -1.0807 H   0  0  0  0  0  0  0  0  0  0  0  0
    3.3415    4.1895   -0.4711 H   0  0  0  0  0  0  0  0  0  0  0  0
    4.7286    4.7839    0.5237 H   0  0  0  0  0  0  0  0  0  0  0  0
    6.2927    3.3281    1.5448 H   0  0  0  0  0  0  0  0  0  0  0  0
    6.2069    1.5533    1.3384 H   0  0  0  0  0  0  0  0  0  0  0  0
    6.5000    2.6663   -0.1038 H   0  0  0  0  0  0  0  0  0  0  0  0
   -1.2268   -0.2755    2.6356 H   0  0  0  0  0  0  0  0  0  0  0  0
   -3.3513    1.4241    0.9442 H   0  0  0  0  0  0  0  0  0  0  0  0
  1  2  1  0
  2  3  1  0
  2  4  1  0
  4  5  1  0
  5  6  1  0
  4  7  1  0
  7  8  1  0
  8  9  2  0
  9 10  1  0
 10 11  2  0
 11 12  1  0
 12 13  2  0
 13 14  1  0
 14 15  1  0
 15 16  1  0
 16 17  1  0
 17 18  1  0
 18 19  1  0
 19 20  1  0
 20 21  1  0
 21 22  1  0
 21 23  2  0
 19 24  1  0
 24 25  1  0
 25 26  1  0
 26 27  1  0
 27 28  1  0
 27 29  1  0
 27 30  1  0
 14 31  2  0
 31 32  1  0
 32 33  1  0
 33 34  1  0
 33 35  1  0
 31 36  1  0
 36 37  2  0
 37  8  1  0
 36 11  1  0
 25 16  1  0
  1 38  1  0
  1 39  1  0
  1 40  1  0
  2 41  1  0
  3 42  1  0
  3 43  1  0
  3 44  1  0
  4 45  1  1
  5 46  1  0
  5 47  1  0
  6 48  1  0
  7 49  1  0
  9 50  1  0
 10 51  1  0
 13 52  1  0
 15 53  1  0
 16 54  1  6
 17 55  1  0
 17 56  1  0
 18 57  1  0
 18 58  1  0
 19 59  1  1
 20 60  1  0
 20 61  1  0
 22 62  1  0
 22 63  1  0
 24 64  1  0
 24 65  1  0
 25 66  1  0
 28 67  1  0
 28 68  1  0
 28 69  1  0
 29 70  1  0
 29 71  1  0
 29 72  1  0
 30 73  1  0
 30 74  1  0
 30 75  1  0
 33 76  1  0
 37 77  1  0
M  END
$$$$
[H]C(=O)N([H])[C@]([H])(C(=O)N([H])[C@]([H])(C(=O)N([H])[C@]([H])(C(=O)c1nc2c([H])c([H])c([H])c([H])c2o1)C([H])([H])C([H])([H])C([H])([H])N=C(N([H])[H])N([H])[H])C([H])([H])C(=O)N([H])[H])C([H])([H])C([H])([H])C([H])([H])[C@@]([H])(C(=O)N([H])[C@]([H])(C(=O)N([H])[C@@]([H])(C(=O)N([H])[C@]([H])(C(=O)N([H])C([H])([H])C(=O)N([H])[H])C([H])([H])C([H])([H])C([H])([H])C([H])([H])N([H])[H])C([H])(C([H])([H])[H])C([H])([H])C([H])([H])C([H])([H])[H])C([H])([H])C([H])([H])C(=O)N([H])[H])N([H])[H]
     RDKit          3D

145146  0  0  0  0  0  0  0  0999 V2000
   -7.7672    5.1202   -0.7607 C   0  0  0  0  0  0  0  0  0  0  0  0
   -6.9275    5.6159    0.3451 C   0  0  0  0  0  0  0  0  0  0  0  0
   -6.2326    4.7028    1.2608 C   0  0  0  0  0  0  0  0  0  0  0  0
   -5.2601    3.6986    0.7479 C   0  0  0  0  0  0  0  0  0  0  0  0
   -4.2059    4.5661   -0.0203 C   0  0  0  0  0  0  0  0  0  0  0  0
   -5.6494    2.5904   -0.0926 C   0  0  1  0  0  0  0  0  0  0  0  0
   -4.6063    1.6705   -0.4611 N   0  0  0  0  0  0  0  0  0  0  0  0
   -3.2501    1.5246   -0.5197 C   0  0  0  0  0  0  0  0  0  0  0  0
   -2.3002    2.2904   -0.1926 O   0  0  0  0  0  0  0  0  0  0  0  0
   -2.7161    0.2192   -1.0790 C   0  0  2  0  0  0  0  0  0  0  0  0
   -2.8616   -0.9411   -0.1510 C   0  0  0  0  0  0  0  0  0  0  0  0
   -4.1985   -1.3615    0.2955 C   0  0  0  0  0  0  0  0  0  0  0  0
   -4.0418   -2.5664    1.2172 C   0  0  0  0  0  0  0  0  0  0  0  0
   -5.2126   -3.1915    1.6552 N   0  0  0  0  0  0  0  0  0  0  0  0
   -2.9106   -2.9611    1.5546 O   0  0  0  0  0  0  0  0  0  0  0  0
   -1.2606    0.2867   -1.2833 N   0  0  0  0  0  0  0  0  0  0  0  0
   -0.7389    0.0266   -2.5408 C   0  0  0  0  0  0  0  0  0  0  0  0
   -1.6202   -0.2036   -3.4756 O   0  0  0  0  0  0  0  0  0  0  0  0
    0.6366   -0.0340   -2.9558 C   0  0  1  0  0  0  0  0  0  0  0  0
    0.9442    1.0054   -3.9486 N   0  0  0  0  0  0  0  0  0  0  0  0
    1.6864   -0.0568   -1.9181 C   0  0  0  0  0  0  0  0  0  0  0  0
    1.5666   -1.2065   -0.9488 C   0  0  0  0  0  0  0  0  0  0  0  0
    1.4525   -2.5477   -1.5481 C   0  0  0  0  0  0  0  0  0  0  0  0
    2.5971   -2.9787   -2.3898 C   0  0  2  0  0  0  0  0  0  0  0  0
    2.2610   -4.3322   -2.9370 N   0  0  0  0  0  0  0  0  0  0  0  0
    2.0951   -4.5662   -4.3079 C   0  0  0  0  0  0  0  0  0  0  0  0
    2.2200   -3.6439   -5.1474 O   0  0  0  0  0  0  0  0  0  0  0  0
    3.7894   -3.2082   -1.5258 C   0  0  0  0  0  0  0  0  0  0  0  0
    3.7979   -4.2115   -0.7287 O   0  0  0  0  0  0  0  0  0  0  0  0
    4.8986   -2.3699   -1.5730 N   0  0  0  0  0  0  0  0  0  0  0  0
    6.0414   -2.7204   -0.6829 C   0  0  1  0  0  0  0  0  0  0  0  0
    6.7321   -3.8837   -1.4306 C   0  0  0  0  0  0  0  0  0  0  0  0
    7.8811   -4.4399   -0.7397 C   0  0  0  0  0  0  0  0  0  0  0  0
    7.6160   -5.2755    0.4024 N   0  0  0  0  0  0  0  0  0  0  0  0
    9.0566   -4.2301   -1.0863 O   0  0  0  0  0  0  0  0  0  0  0  0
    6.8842   -1.5551   -0.5084 C   0  0  0  0  0  0  0  0  0  0  0  0
    6.6196   -0.4728   -1.1250 O   0  0  0  0  0  0  0  0  0  0  0  0
    8.0144   -1.5402    0.3201 N   0  0  0  0  0  0  0  0  0  0  0  0
    8.9165   -0.3681    0.4983 C   0  0  1  0  0  0  0  0  0  0  0  0
    9.4033   -0.3942    1.8949 C   0  0  0  0  0  0  0  0  0  0  0  0
    8.2726   -0.2942    2.9093 C   0  0  0  0  0  0  0  0  0  0  0  0
    7.5535    1.0385    2.7525 C   0  0  0  0  0  0  0  0  0  0  0  0
    8.4945    2.1357    2.9854 N   0  0  0  0  0  0  0  0  0  0  0  0
    8.5333    3.2034    2.2916 C   0  0  0  0  0  0  0  0  0  0  0  0
    7.6279    3.3858    1.2151 N   0  0  0  0  0  0  0  0  0  0  0  0
    9.4703    4.2336    2.5820 N   0  0  0  0  0  0  0  0  0  0  0  0
    9.9993   -0.5685   -0.4878 C   0  0  0  0  0  0  0  0  0  0  0  0
    9.6315   -0.9854   -1.6275 O   0  0  0  0  0  0  0  0  0  0  0  0
   11.4067   -0.3391   -0.2550 C   0  0  0  0  0  0  0  0  0  0  0  0
   12.3896   -0.5588   -1.1902 N   0  0  0  0  0  0  0  0  0  0  0  0
   13.5548   -0.2536   -0.6545 C   0  0  0  0  0  0  0  0  0  0  0  0
   14.8501   -0.2767   -1.1075 C   0  0  0  0  0  0  0  0  0  0  0  0
   15.9423    0.0957   -0.3537 C   0  0  0  0  0  0  0  0  0  0  0  0
   15.7029    0.5146    0.9323 C   0  0  0  0  0  0  0  0  0  0  0  0
   14.4070    0.5481    1.4158 C   0  0  0  0  0  0  0  0  0  0  0  0
   13.3292    0.1701    0.6428 C   0  0  0  0  0  0  0  0  0  0  0  0
   12.0321    0.0940    0.8126 O   0  0  0  0  0  0  0  0  0  0  0  0
   -6.8872    1.8384    0.1447 C   0  0  0  0  0  0  0  0  0  0  0  0
   -7.1397    0.9565   -0.7725 O   0  0  0  0  0  0  0  0  0  0  0  0
   -7.8550    1.8538    1.1434 N   0  0  0  0  0  0  0  0  0  0  0  0
   -9.0381    0.9540    1.1224 C   0  0  1  0  0  0  0  0  0  0  0  0
   -8.9971    0.1064    2.3826 C   0  0  0  0  0  0  0  0  0  0  0  0
  -10.1151   -0.8701    2.5313 C   0  0  0  0  0  0  0  0  0  0  0  0
  -10.1647   -1.8983    1.4417 C   0  0  0  0  0  0  0  0  0  0  0  0
   -8.9409   -2.7563    1.3721 C   0  0  0  0  0  0  0  0  0  0  0  0
   -8.7278   -3.5078    2.5996 N   0  0  0  0  0  0  0  0  0  0  0  0
  -10.2376    1.8000    1.1727 C   0  0  0  0  0  0  0  0  0  0  0  0
  -10.0653    3.0355    1.4718 O   0  0  0  0  0  0  0  0  0  0  0  0
  -11.5679    1.4351    0.9286 N   0  0  0  0  0  0  0  0  0  0  0  0
  -12.6691    2.3753    1.0078 C   0  0  0  0  0  0  0  0  0  0  0  0
  -13.9677    1.7175    0.7071 C   0  0  0  0  0  0  0  0  0  0  0  0
  -13.9592    0.3358    0.4033 N   0  0  0  0  0  0  0  0  0  0  0  0
  -15.0076    2.3855    0.7298 O   0  0  0  0  0  0  0  0  0  0  0  0
   -8.5063    4.3905   -0.3995 H   0  0  0  0  0  0  0  0  0  0  0  0
   -8.4386    6.0142   -1.0554 H   0  0  0  0  0  0  0  0  0  0  0  0
   -7.2385    4.8098   -1.6901 H   0  0  0  0  0  0  0  0  0  0  0  0
   -6.3250    6.4848   -0.0377 H   0  0  0  0  0  0  0  0  0  0  0  0
   -7.6823    6.2080    1.0184 H   0  0  0  0  0  0  0  0  0  0  0  0
   -5.5213    5.4310    1.8646 H   0  0  0  0  0  0  0  0  0  0  0  0
   -6.9029    4.4026    2.0600 H   0  0  0  0  0  0  0  0  0  0  0  0
   -4.6489    3.2925    1.6137 H   0  0  0  0  0  0  0  0  0  0  0  0
   -3.2919    4.7031    0.5545 H   0  0  0  0  0  0  0  0  0  0  0  0
   -4.0123    4.1195   -0.9983 H   0  0  0  0  0  0  0  0  0  0  0  0
   -4.6693    5.5657   -0.2793 H   0  0  0  0  0  0  0  0  0  0  0  0
   -5.7798    3.1449   -1.1519 H   0  0  0  0  0  0  0  0  0  0  0  0
   -5.1222    0.7510   -0.8835 H   0  0  0  0  0  0  0  0  0  0  0  0
   -3.2473    0.0194   -2.0093 H   0  0  0  0  0  0  0  0  0  0  0  0
   -2.4020   -1.8187   -0.7101 H   0  0  0  0  0  0  0  0  0  0  0  0
   -2.1702   -0.8481    0.7362 H   0  0  0  0  0  0  0  0  0  0  0  0
   -4.6073   -0.5820    1.0032 H   0  0  0  0  0  0  0  0  0  0  0  0
   -4.9051   -1.6640   -0.4745 H   0  0  0  0  0  0  0  0  0  0  0  0
   -5.4526   -3.2716    2.6644 H   0  0  0  0  0  0  0  0  0  0  0  0
   -5.8724   -3.5928    0.9592 H   0  0  0  0  0  0  0  0  0  0  0  0
   -0.6868    0.5449   -0.4802 H   0  0  0  0  0  0  0  0  0  0  0  0
    0.7143   -0.9877   -3.6073 H   0  0  0  0  0  0  0  0  0  0  0  0
    0.6508    0.7537   -4.9054 H   0  0  0  0  0  0  0  0  0  0  0  0
    1.9727    1.1939   -3.9728 H   0  0  0  0  0  0  0  0  0  0  0  0
    2.7174    0.0167   -2.3421 H   0  0  0  0  0  0  0  0  0  0  0  0
    1.5575    0.8807   -1.3005 H   0  0  0  0  0  0  0  0  0  0  0  0
    2.5920   -1.2088   -0.4210 H   0  0  0  0  0  0  0  0  0  0  0  0
    0.8741   -1.0538   -0.1131 H   0  0  0  0  0  0  0  0  0  0  0  0
    0.4697   -2.7263   -2.0578 H   0  0  0  0  0  0  0  0  0  0  0  0
    1.3967   -3.2798   -0.6755 H   0  0  0  0  0  0  0  0  0  0  0  0
    2.7661   -2.3178   -3.2152 H   0  0  0  0  0  0  0  0  0  0  0  0
    2.1610   -5.0711   -2.2415 H   0  0  0  0  0  0  0  0  0  0  0  0
    1.8553   -5.5510   -4.6568 H   0  0  0  0  0  0  0  0  0  0  0  0
    5.0070   -1.5371   -2.1546 H   0  0  0  0  0  0  0  0  0  0  0  0
    5.6358   -3.1088    0.2501 H   0  0  0  0  0  0  0  0  0  0  0  0
    6.9993   -3.4940   -2.4563 H   0  0  0  0  0  0  0  0  0  0  0  0
    6.0233   -4.7038   -1.6307 H   0  0  0  0  0  0  0  0  0  0  0  0
    6.9019   -5.0120    1.1241 H   0  0  0  0  0  0  0  0  0  0  0  0
    8.1353   -6.1595    0.5388 H   0  0  0  0  0  0  0  0  0  0  0  0
    8.2495   -2.3904    0.8843 H   0  0  0  0  0  0  0  0  0  0  0  0
    8.3822    0.5444    0.1657 H   0  0  0  0  0  0  0  0  0  0  0  0
   10.0929    0.4420    2.1523 H   0  0  0  0  0  0  0  0  0  0  0  0
    9.9328   -1.3398    2.0879 H   0  0  0  0  0  0  0  0  0  0  0  0
    8.7330   -0.3061    3.8998 H   0  0  0  0  0  0  0  0  0  0  0  0
    7.5304   -1.0905    2.8328 H   0  0  0  0  0  0  0  0  0  0  0  0
    6.8368    1.1073    3.6109 H   0  0  0  0  0  0  0  0  0  0  0  0
    6.9864    1.1422    1.8303 H   0  0  0  0  0  0  0  0  0  0  0  0
    6.7934    3.9690    1.3276 H   0  0  0  0  0  0  0  0  0  0  0  0
    7.8425    2.9139    0.3248 H   0  0  0  0  0  0  0  0  0  0  0  0
    9.5236    4.6354    3.5415 H   0  0  0  0  0  0  0  0  0  0  0  0
   10.1187    4.6121    1.8674 H   0  0  0  0  0  0  0  0  0  0  0  0
   15.0096   -0.6136   -2.1335 H   0  0  0  0  0  0  0  0  0  0  0  0
   16.9198    0.0467   -0.7994 H   0  0  0  0  0  0  0  0  0  0  0  0
   16.5490    0.8125    1.5341 H   0  0  0  0  0  0  0  0  0  0  0  0
   14.2374    0.8790    2.4241 H   0  0  0  0  0  0  0  0  0  0  0  0
   -7.7800    2.4779    1.9560 H   0  0  0  0  0  0  0  0  0  0  0  0
   -8.9963    0.3950    0.1949 H   0  0  0  0  0  0  0  0  0  0  0  0
   -8.9381    0.7757    3.2680 H   0  0  0  0  0  0  0  0  0  0  0  0
   -8.0446   -0.5057    2.4154 H   0  0  0  0  0  0  0  0  0  0  0  0
   -9.9093   -1.4542    3.4780 H   0  0  0  0  0  0  0  0  0  0  0  0
  -11.1107   -0.4179    2.7147 H   0  0  0  0  0  0  0  0  0  0  0  0
  -11.0519   -2.5358    1.6065 H   0  0  0  0  0  0  0  0  0  0  0  0
  -10.3029   -1.4198    0.4495 H   0  0  0  0  0  0  0  0  0  0  0  0
   -8.0180   -2.1459    1.1596 H   0  0  0  0  0  0  0  0  0  0  0  0
   -9.0685   -3.4931    0.5578 H   0  0  0  0  0  0  0  0  0  0  0  0
   -9.5643   -3.6359    3.1765 H   0  0  0  0  0  0  0  0  0  0  0  0
   -8.1182   -4.3236    2.4771 H   0  0  0  0  0  0  0  0  0  0  0  0
  -11.8196    0.4753    0.6613 H   0  0  0  0  0  0  0  0  0  0  0  0
  -12.5572    3.1962    0.2680 H   0  0  0  0  0  0  0  0  0  0  0  0
  -12.6987    2.8232    2.0266 H   0  0  0  0  0  0  0  0  0  0  0  0
  -13.7474    0.0449   -0.5668 H   0  0  0  0  0  0  0  0  0  0  0  0
  -14.1673   -0.3198    1.1891 H   0  0  0  0  0  0  0  0  0  0  0  0
  1  2  1  0
  2  3  1  0
  3  4  1  0
  4  5  1  0
  4  6  1  0
  6  7  1  0
  7  8  1  0
  8  9  2  0
  8 10  1  0
 10 11  1  0
 11 12  1  0
 12 13  1  0
 13 14  1  0
 13 15  2  0
 10 16  1  0
 16 17  1  0
 17 18  2  0
 17 19  1  0
 19 20  1  0
 19 21  1  0
 21 22  1  0
 22 23  1  0
 23 24  1  0
 24 25  1  0
 25 26  1  0
 26 27  2  0
 24 28  1  0
 28 29  2  0
 28 30  1  0
 30 31  1  0
 31 32  1  0
 32 33  1  0
 33 34  1  0
 33 35  2  0
 31 36  1  0
 36 37  2  0
 36 38  1  0
 38 39  1  0
 39 40  1  0
 40 41  1  0
 41 42  1  0
 42 43  1  0
 43 44  2  3
 44 45  1  0
 44 46  1  0
 39 47  1  0
 47 48  2  0
 47 49  1  0
 49 50  2  0
 50 51  1  0
 51 52  2  0
 52 53  1  0
 53 54  2  0
 54 55  1  0
 55 56  2  0
 56 57  1  0
  6 58  1  0
 58 59  2  0
 58 60  1  0
 60 61  1  0
 61 62  1  0
 62 63  1  0
 63 64  1  0
 64 65  1  0
 65 66  1  0
 61 67  1  0
 67 68  2  0
 67 69  1  0
 69 70  1  0
 70 71  1  0
 71 72  1  0
 71 73  2  0
 57 49  1  0
 56 51  1  0
  1 74  1  0
  1 75  1  0
  1 76  1  0
  2 77  1  0
  2 78  1  0
  3 79  1  0
  3 80  1  0
  4 81  1  0
  5 82  1  0
  5 83  1  0
  5 84  1  0
  6 85  1  6
  7 86  1  0
 10 87  1  6
 11 88  1  0
 11 89  1  0
 12 90  1  0
 12 91  1  0
 14 92  1  0
 14 93  1  0
 16 94  1  0
 19 95  1  6
 20 96  1  0
 20 97  1  0
 21 98  1  0
 21 99  1  0
 22100  1  0
 22101  1  0
 23102  1  0
 23103  1  0
 24104  1  6
 25105  1  0
 26106  1  0
 30107  1  0
 31108  1  1
 32109  1  0
 32110  1  0
 34111  1  0
 34112  1  0
 38113  1  0
 39114  1  6
 40115  1  0
 40116  1  0
 41117  1  0
 41118  1  0
 42119  1  0
 42120  1  0
 45121  1  0
 45122  1  0
 46123  1  0
 46124  1  0
 52125  1  0
 53126  1  0
 54127  1  0
 55128  1  0
 60129  1  0
 61130  1  6
 62131  1  0
 62132  1  0
 63133  1  0
 63134  1  0
 64135  1  0
 64136  1  0
 65137  1  0
 65138  1  0
 66139  1  0
 66140  1  0
 69141  1  0
 70142  1  0
 70143  1  0
 72144  1  0
 72145  1  0
M  END
$$$$
[H]OC(=O)[C@]1([H])c2c(N([H])C(=O)c3c([H])c([H])c(O[H])c([H])c3[H])c(O[H])c([H])c(O[H])c2C([H])([H])[C@]([H])(N([H])[H])C1([H])[H]
     RDKit          3D

 44 46  0  0  0  0  0  0  0  0999 V2000
   -1.4014    2.3591   -2.0308 O   0  0  0  0  0  0  0  0  0  0  0  0
   -0.5703    2.0287   -0.9734 C   0  0  0  0  0  0  0  0  0  0  0  0
    0.5993    2.4801   -0.9460 O   0  0  0  0  0  0  0  0  0  0  0  0
   -1.0226    1.1546    0.1310 C   0  0  1  0  0  0  0  0  0  0  0  0
   -2.0763    1.8936    0.9155 C   0  0  0  0  0  0  0  0  0  0  0  0
   -3.2366    1.0484    1.3035 C   0  0  1  0  0  0  0  0  0  0  0  0
   -4.2546    1.8873    1.8909 N   0  0  0  0  0  0  0  0  0  0  0  0
   -3.7858    0.4144    0.0284 C   0  0  0  0  0  0  0  0  0  0  0  0
   -2.7840   -0.5877   -0.3973 C   0  0  0  0  0  0  0  0  0  0  0  0
   -3.0772   -1.8537   -0.8407 C   0  0  0  0  0  0  0  0  0  0  0  0
   -4.3703   -2.2891   -0.9253 O   0  0  0  0  0  0  0  0  0  0  0  0
   -2.0822   -2.7634   -1.2284 C   0  0  0  0  0  0  0  0  0  0  0  0
   -0.7836   -2.3234   -1.1429 C   0  0  0  0  0  0  0  0  0  0  0  0
    0.2249   -3.1964   -1.5179 O   0  0  0  0  0  0  0  0  0  0  0  0
   -0.4534   -1.0619   -0.7034 C   0  0  0  0  0  0  0  0  0  0  0  0
    0.9170   -0.6977   -0.6487 N   0  0  0  0  0  0  0  0  0  0  0  0
    1.6987   -0.9163    0.5022 C   0  0  0  0  0  0  0  0  0  0  0  0
    1.1843   -1.4545    1.5344 O   0  0  0  0  0  0  0  0  0  0  0  0
    3.0881   -0.5570    0.5855 C   0  0  0  0  0  0  0  0  0  0  0  0
    3.8547   -0.7738    1.7195 C   0  0  0  0  0  0  0  0  0  0  0  0
    5.1865   -0.4334    1.8102 C   0  0  0  0  0  0  0  0  0  0  0  0
    5.8183    0.1472    0.7547 C   0  0  0  0  0  0  0  0  0  0  0  0
    7.1631    0.5017    0.8179 O   0  0  0  0  0  0  0  0  0  0  0  0
    5.0911    0.3790   -0.3896 C   0  0  0  0  0  0  0  0  0  0  0  0
    3.7385    0.0317   -0.4774 C   0  0  0  0  0  0  0  0  0  0  0  0
   -1.4508   -0.1890   -0.3291 C   0  0  0  0  0  0  0  0  0  0  0  0
   -0.9899    2.6041   -2.9134 H   0  0  0  0  0  0  0  0  0  0  0  0
   -0.1689    1.0022    0.8219 H   0  0  0  0  0  0  0  0  0  0  0  0
   -1.6597    2.3669    1.8352 H   0  0  0  0  0  0  0  0  0  0  0  0
   -2.4742    2.7523    0.3090 H   0  0  0  0  0  0  0  0  0  0  0  0
   -2.9455    0.2158    1.9829 H   0  0  0  0  0  0  0  0  0  0  0  0
   -4.7579    2.4201    1.1557 H   0  0  0  0  0  0  0  0  0  0  0  0
   -4.9872    1.2809    2.3535 H   0  0  0  0  0  0  0  0  0  0  0  0
   -4.7991    0.0517    0.1566 H   0  0  0  0  0  0  0  0  0  0  0  0
   -3.7382    1.2403   -0.7403 H   0  0  0  0  0  0  0  0  0  0  0  0
   -5.1509   -1.7156   -0.6745 H   0  0  0  0  0  0  0  0  0  0  0  0
   -2.3418   -3.7570   -1.5746 H   0  0  0  0  0  0  0  0  0  0  0  0
    0.0389   -4.1154   -1.8412 H   0  0  0  0  0  0  0  0  0  0  0  0
    1.3255   -0.2614   -1.4989 H   0  0  0  0  0  0  0  0  0  0  0  0
    3.3754   -1.2417    2.5923 H   0  0  0  0  0  0  0  0  0  0  0  0
    5.7678   -0.6126    2.7087 H   0  0  0  0  0  0  0  0  0  0  0  0
    7.4068    1.4425    1.1515 H   0  0  0  0  0  0  0  0  0  0  0  0
    5.6100    0.8412   -1.2180 H   0  0  0  0  0  0  0  0  0  0  0  0
    3.2735    0.2575   -1.4123 H   0  0  0  0  0  0  0  0  0  0  0  0
  1  2  1  0
  2  3  2  0
  2  4  1  0
  4  5  1  0
  5  6  1  0
  6  7  1  0
  6  8  1  0
  8  9  1  0
  9 10  2  0
 10 11  1  0
 10 12  1  0
 12 13  2  0
 13 14  1  0
 13 15  1  0
 15 16  1  0
 16 17  1  0
 17 18  2  0
 17 19  1  0
 19 20  2  0
 20 21  1  0
 21 22  2  0
 22 23  1  0
 22 24  1  0
 24 25  2  0
 15 26  2  0
 26  4  1  0
 26  9  1  0
 25 19  1  0
  1 27  1  0
  4 28  1  1
  5 29  1  0
  5 30  1  0
  6 31  1  1
  7 32  1  0
  7 33  1  0
  8 34  1  0
  8 35  1  0
 11 36  1  0
 12 37  1  0
 14 38  1  0
 16 39  1  0
 20 40  1  0
 21 41  1  0
 23 42  1  0
 24 43  1  0
 25 44  1  0
M  END
$$$$
[H]c1nc(-c2nc3c([H])c(N([H])C(=O)N([H])C(c4c([H])c([H])c([H])c(C(=O)N([H])C([H])([H])[H])c4[H])(C([H])([H])[H])C([H])([H])[H])c([H])c([H])c3o2)c([H])o1
     RDKit          3D

 52 55  0  0  0  0  0  0  0  0999 V2000
    5.2665    2.2232   -5.3729 C   0  0  0  0  0  0  0  0  0  0  0  0
    5.0322    0.9429   -4.7296 N   0  0  0  0  0  0  0  0  0  0  0  0
    4.7812    0.9036   -3.3164 C   0  0  0  0  0  0  0  0  0  0  0  0
    4.7739    1.9926   -2.6982 O   0  0  0  0  0  0  0  0  0  0  0  0
    4.5542   -0.3851   -2.6945 C   0  0  0  0  0  0  0  0  0  0  0  0
    5.3665   -1.4419   -3.0189 C   0  0  0  0  0  0  0  0  0  0  0  0
    5.1524   -2.6570   -2.4185 C   0  0  0  0  0  0  0  0  0  0  0  0
    4.1307   -2.8230   -1.4932 C   0  0  0  0  0  0  0  0  0  0  0  0
    3.2930   -1.7758   -1.1454 C   0  0  0  0  0  0  0  0  0  0  0  0
    3.5359   -0.5840   -1.7618 C   0  0  0  0  0  0  0  0  0  0  0  0
    2.2233   -1.9587   -0.1800 C   0  0  0  0  0  0  0  0  0  0  0  0
    2.7821   -2.1674    1.2303 C   0  0  0  0  0  0  0  0  0  0  0  0
    1.4980   -3.2725   -0.5282 C   0  0  0  0  0  0  0  0  0  0  0  0
    1.2132   -0.9663   -0.1172 N   0  0  0  0  0  0  0  0  0  0  0  0
   -0.0188   -1.0487    0.5800 C   0  0  0  0  0  0  0  0  0  0  0  0
   -0.2522   -2.0947    1.1965 O   0  0  0  0  0  0  0  0  0  0  0  0
   -0.9058    0.0220    0.5495 N   0  0  0  0  0  0  0  0  0  0  0  0
   -2.1691    0.1549    1.1511 C   0  0  0  0  0  0  0  0  0  0  0  0
   -2.7657   -0.8367    1.8662 C   0  0  0  0  0  0  0  0  0  0  0  0
   -4.0359   -0.6581    2.4512 C   0  0  0  0  0  0  0  0  0  0  0  0
   -4.7137    0.5213    2.3216 C   0  0  0  0  0  0  0  0  0  0  0  0
   -5.8916    0.9662    2.7481 O   0  0  0  0  0  0  0  0  0  0  0  0
   -6.1066    2.1962    2.3544 C   0  0  0  0  0  0  0  0  0  0  0  0
   -5.0205    2.5500    1.6466 N   0  0  0  0  0  0  0  0  0  0  0  0
   -4.1249    1.5568    1.5926 C   0  0  0  0  0  0  0  0  0  0  0  0
   -2.8928    1.3494    1.0377 C   0  0  0  0  0  0  0  0  0  0  0  0
   -7.2905    3.0292    2.6232 C   0  0  0  0  0  0  0  0  0  0  0  0
   -8.3824    2.6554    3.3614 C   0  0  0  0  0  0  0  0  0  0  0  0
   -9.2344    3.6713    3.3874 O   0  0  0  0  0  0  0  0  0  0  0  0
   -8.7486    4.6790    2.7062 C   0  0  0  0  0  0  0  0  0  0  0  0
   -7.5440    4.2856    2.2311 N   0  0  0  0  0  0  0  0  0  0  0  0
    4.4447    2.9492   -5.1236 H   0  0  0  0  0  0  0  0  0  0  0  0
    6.2178    2.6106   -4.9263 H   0  0  0  0  0  0  0  0  0  0  0  0
    5.3953    2.1293   -6.4623 H   0  0  0  0  0  0  0  0  0  0  0  0
    5.0402    0.0749   -5.2888 H   0  0  0  0  0  0  0  0  0  0  0  0
    6.1815   -1.3099   -3.7573 H   0  0  0  0  0  0  0  0  0  0  0  0
    5.8072   -3.4881   -2.6859 H   0  0  0  0  0  0  0  0  0  0  0  0
    4.0326   -3.8274   -1.0510 H   0  0  0  0  0  0  0  0  0  0  0  0
    2.9540    0.3129   -1.5709 H   0  0  0  0  0  0  0  0  0  0  0  0
    3.4743   -1.3574    1.5037 H   0  0  0  0  0  0  0  0  0  0  0  0
    3.3905   -3.1062    1.1859 H   0  0  0  0  0  0  0  0  0  0  0  0
    2.0048   -2.3547    1.9738 H   0  0  0  0  0  0  0  0  0  0  0  0
    0.5016   -3.0155   -0.9884 H   0  0  0  0  0  0  0  0  0  0  0  0
    1.2893   -3.8576    0.3852 H   0  0  0  0  0  0  0  0  0  0  0  0
    2.0584   -3.8883   -1.2353 H   0  0  0  0  0  0  0  0  0  0  0  0
    1.3635   -0.0571   -0.6323 H   0  0  0  0  0  0  0  0  0  0  0  0
   -0.5721    0.8836   -0.0229 H   0  0  0  0  0  0  0  0  0  0  0  0
   -2.3139   -1.8104    2.0258 H   0  0  0  0  0  0  0  0  0  0  0  0
   -4.5021   -1.4498    3.0163 H   0  0  0  0  0  0  0  0  0  0  0  0
   -2.4329    2.1537    0.4716 H   0  0  0  0  0  0  0  0  0  0  0  0
   -8.6053    1.7276    3.8713 H   0  0  0  0  0  0  0  0  0  0  0  0
   -9.2351    5.6510    2.5556 H   0  0  0  0  0  0  0  0  0  0  0  0
  1  2  1  0
  2  3  1  0
  3  4  2  0
  3  5  1  0
  5  6  2  0
  6  7  1  0
  7  8  2  0
  8  9  1  0
  9 10  2  0
  9 11  1  0
 11 12  1  0
 11 13  1  0
 11 14  1  0
 14 15  1  0
 15 16  2  0
 15 17  1  0
 17 18  1  0
 18 19  2  0
 19 20  1  0
 20 21  2  0
 21 22  1  0
 22 23  1  0
 23 24  2  0
 24 25  1  0
 25 26  2  0
 23 27  1  0
 27 28  2  0
 28 29  1  0
 29 30  1  0
 30 31  2  0
 10  5  1  0
 26 18  1  0
 31 27  1  0
 25 21  1  0
  1 32  1  0
  1 33  1  0
  1 34  1  0
  2 35  1  0
  6 36  1  0
  7 37  1  0
  8 38  1  0
 10 39  1  0
 12 40  1  0
 12 41  1  0
 12 42  1  0
 13 43  1  0
 13 44  1  0
 13 45  1  0
 14 46  1  0
 17 47  1  0
 19 48  1  0
 20 49  1  0
 26 50  1  0
 28 51  1  0
 30 52  1  0
M  END
$$$$
[H]OC(=O)C(Oc1c([H])c([H])c2c(C(=O)C(=O)N([H])[H])n(C([H])([H])[H])c(C3([H])SC([H])([H])C3([H])[H])c2c1[H])(C([H])([H])[H])C([H])([H])[H]
     RDKit          3D

 46 48  0  0  0  0  0  0  0  0999 V2000
   -4.1284   -0.3838    0.5398 C   0  0  0  0  0  0  0  0  0  0  0  0
   -2.6907   -0.0670    0.4888 N   0  0  0  0  0  0  0  0  0  0  0  0
   -2.2095    1.2273    0.5765 C   0  0  0  0  0  0  0  0  0  0  0  0
   -3.0538    2.3963    0.5242 C   0  0  0  0  0  0  0  0  0  0  0  0
   -4.2775    2.1674    0.0726 O   0  0  0  0  0  0  0  0  0  0  0  0
   -2.8853    3.7577    0.8563 C   0  0  0  0  0  0  0  0  0  0  0  0
   -3.9587    4.6937    0.5015 N   0  0  0  0  0  0  0  0  0  0  0  0
   -1.9274    4.2729    1.4201 O   0  0  0  0  0  0  0  0  0  0  0  0
   -0.8210    1.1539    0.5890 C   0  0  0  0  0  0  0  0  0  0  0  0
    0.2080    2.0690    0.6366 C   0  0  0  0  0  0  0  0  0  0  0  0
    1.5445    1.6527    0.6109 C   0  0  0  0  0  0  0  0  0  0  0  0
    1.9086    0.3315    0.5362 C   0  0  0  0  0  0  0  0  0  0  0  0
    3.2187   -0.0305    0.5165 O   0  0  0  0  0  0  0  0  0  0  0  0
    4.0827   -0.2082   -0.5478 C   0  0  0  0  0  0  0  0  0  0  0  0
    4.2653    1.0298   -1.3970 C   0  0  0  0  0  0  0  0  0  0  0  0
    3.6910   -1.3827   -1.4088 C   0  0  0  0  0  0  0  0  0  0  0  0
    5.4387   -0.5473    0.0135 C   0  0  0  0  0  0  0  0  0  0  0  0
    5.6337   -0.6297    1.3830 O   0  0  0  0  0  0  0  0  0  0  0  0
    6.4373   -0.7673   -0.7161 O   0  0  0  0  0  0  0  0  0  0  0  0
    0.8769   -0.5760    0.4851 C   0  0  0  0  0  0  0  0  0  0  0  0
   -0.4520   -0.1614    0.5101 C   0  0  0  0  0  0  0  0  0  0  0  0
   -1.6603   -0.8837    0.4465 C   0  0  0  0  0  0  0  0  0  0  0  0
   -1.6386   -2.3609    0.3509 C   0  0  0  0  0  0  0  0  0  0  0  0
   -0.7388   -2.9577   -1.1326 S   0  0  0  0  0  0  0  0  0  0  0  0
   -2.1272   -4.1397   -0.9724 C   0  0  0  0  0  0  0  0  0  0  0  0
   -2.8539   -3.0371   -0.1520 C   0  0  0  0  0  0  0  0  0  0  0  0
   -4.6094   -0.3707   -0.4434 H   0  0  0  0  0  0  0  0  0  0  0  0
   -4.3013   -1.3818    1.0222 H   0  0  0  0  0  0  0  0  0  0  0  0
   -4.6410    0.2999    1.2943 H   0  0  0  0  0  0  0  0  0  0  0  0
   -4.2303    5.4620    1.1170 H   0  0  0  0  0  0  0  0  0  0  0  0
   -4.4584    4.5698   -0.4041 H   0  0  0  0  0  0  0  0  0  0  0  0
    0.0112    3.1064    0.6611 H   0  0  0  0  0  0  0  0  0  0  0  0
    2.3457    2.3918    0.6526 H   0  0  0  0  0  0  0  0  0  0  0  0
    5.1545    0.8585   -2.0468 H   0  0  0  0  0  0  0  0  0  0  0  0
    3.4061    1.1965   -2.0684 H   0  0  0  0  0  0  0  0  0  0  0  0
    4.5126    1.9216   -0.7756 H   0  0  0  0  0  0  0  0  0  0  0  0
    4.6094   -1.8620   -1.8301 H   0  0  0  0  0  0  0  0  0  0  0  0
    3.2278   -2.1492   -0.7476 H   0  0  0  0  0  0  0  0  0  0  0  0
    3.0345   -1.1353   -2.2528 H   0  0  0  0  0  0  0  0  0  0  0  0
    5.4783    0.2210    1.9477 H   0  0  0  0  0  0  0  0  0  0  0  0
    1.1273   -1.6226    0.4238 H   0  0  0  0  0  0  0  0  0  0  0  0
   -1.2082   -2.7867    1.2966 H   0  0  0  0  0  0  0  0  0  0  0  0
   -2.6233   -4.3470   -1.9184 H   0  0  0  0  0  0  0  0  0  0  0  0
   -1.8225   -5.0086   -0.3579 H   0  0  0  0  0  0  0  0  0  0  0  0
   -3.4638   -3.5517    0.6046 H   0  0  0  0  0  0  0  0  0  0  0  0
   -3.4315   -2.4313   -0.9063 H   0  0  0  0  0  0  0  0  0  0  0  0
  1  2  1  0
  2  3  1  0
  3  4  1  0
  4  5  2  0
  4  6  1  0
  6  7  1  0
  6  8  2  0
  3  9  2  0
  9 10  1  0
 10 11  2  0
 11 12  1  0
 12 13  1  0
 13 14  1  0
 14 15  1  0
 14 16  1  0
 14 17  1  0
 17 18  1  0
 17 19  2  0
 12 20  2  0
 20 21  1  0
 21 22  2  0
 22 23  1  0
 23 24  1  0
 24 25  1  0
 25 26  1  0
 22  2  1  0
 26 23  1  0
 21  9  1  0
  1 27  1  0
  1 28  1  0
  1 29  1  0
  7 30  1  0
  7 31  1  0
 10 32  1  0
 11 33  1  0
 15 34  1  0
 15 35  1  0
 15 36  1  0
 16 37  1  0
 16 38  1  0
 16 39  1  0
 18 40  1  0
 20 41  1  0
 23 42  1  0
 25 43  1  0
 25 44  1  0
 26 45  1  0
 26 46  1  0
M  END
$$$$
[H]c1nc(C(F)(F)F)c([H])c([H])c1C(=O)N1C([H])([H])C([H])([H])N(c2c([H])c([H])c([H])c([H])c2[H])C([H])([H])C([H])([H])C1([H])[H]
     RDKit          3D

 43 45  0  0  0  0  0  0  0  0999 V2000
    7.4100    2.1163   -1.3548 F   0  0  0  0  0  0  0  0  0  0  0  0
    6.9981    1.6319   -0.1558 C   0  0  0  0  0  0  0  0  0  0  0  0
    7.9201    0.7272    0.2861 F   0  0  0  0  0  0  0  0  0  0  0  0
    6.8120    2.6740    0.7527 F   0  0  0  0  0  0  0  0  0  0  0  0
    5.6809    0.9304   -0.3218 C   0  0  0  0  0  0  0  0  0  0  0  0
    5.6118   -0.4567   -0.3801 C   0  0  0  0  0  0  0  0  0  0  0  0
    4.4280   -1.1224   -0.4189 C   0  0  0  0  0  0  0  0  0  0  0  0
    3.1920   -0.4355   -0.3983 C   0  0  0  0  0  0  0  0  0  0  0  0
    3.2960    0.9117   -0.3476 C   0  0  0  0  0  0  0  0  0  0  0  0
    4.4961    1.5585   -0.3100 N   0  0  0  0  0  0  0  0  0  0  0  0
    1.9780   -1.1942   -0.2307 C   0  0  0  0  0  0  0  0  0  0  0  0
    2.1990   -2.4548   -0.0203 O   0  0  0  0  0  0  0  0  0  0  0  0
    0.6836   -0.8124   -0.2342 N   0  0  0  0  0  0  0  0  0  0  0  0
   -0.2210   -1.9725    0.2066 C   0  0  0  0  0  0  0  0  0  0  0  0
   -0.7806   -1.3717    1.4912 C   0  0  0  0  0  0  0  0  0  0  0  0
   -2.1706   -0.8274    1.2293 C   0  0  0  0  0  0  0  0  0  0  0  0
   -2.3335   -0.0790    0.0142 N   0  0  0  0  0  0  0  0  0  0  0  0
   -1.3976    0.2317   -1.0094 C   0  0  0  0  0  0  0  0  0  0  0  0
    0.0586    0.4278   -0.5951 C   0  0  0  0  0  0  0  0  0  0  0  0
   -3.7066    0.3592   -0.1576 C   0  0  0  0  0  0  0  0  0  0  0  0
   -4.0587    1.3838   -0.9540 C   0  0  0  0  0  0  0  0  0  0  0  0
   -5.4178    1.7311   -1.0907 C   0  0  0  0  0  0  0  0  0  0  0  0
   -6.4013    1.0426   -0.4257 C   0  0  0  0  0  0  0  0  0  0  0  0
   -6.0378    0.0160    0.3715 C   0  0  0  0  0  0  0  0  0  0  0  0
   -4.7378   -0.3100    0.4982 C   0  0  0  0  0  0  0  0  0  0  0  0
    6.5748   -1.0042   -0.3740 H   0  0  0  0  0  0  0  0  0  0  0  0
    4.3954   -2.2056   -0.4661 H   0  0  0  0  0  0  0  0  0  0  0  0
    2.4051    1.5138   -0.3176 H   0  0  0  0  0  0  0  0  0  0  0  0
    0.3632   -2.8368    0.4512 H   0  0  0  0  0  0  0  0  0  0  0  0
   -0.9659   -2.1525   -0.5489 H   0  0  0  0  0  0  0  0  0  0  0  0
   -0.7784   -2.1106    2.2660 H   0  0  0  0  0  0  0  0  0  0  0  0
   -0.1453   -0.4700    1.7630 H   0  0  0  0  0  0  0  0  0  0  0  0
   -2.4500   -0.2955    2.1431 H   0  0  0  0  0  0  0  0  0  0  0  0
   -2.7793   -1.7938    1.1008 H   0  0  0  0  0  0  0  0  0  0  0  0
   -1.3800   -0.6082   -1.7989 H   0  0  0  0  0  0  0  0  0  0  0  0
   -1.6537    1.1142   -1.6080 H   0  0  0  0  0  0  0  0  0  0  0  0
    0.5466    0.8073   -1.5664 H   0  0  0  0  0  0  0  0  0  0  0  0
    0.1293    1.2167    0.1640 H   0  0  0  0  0  0  0  0  0  0  0  0
   -3.3262    1.9763   -1.4816 H   0  0  0  0  0  0  0  0  0  0  0  0
   -5.6869    2.5621   -1.7231 H   0  0  0  0  0  0  0  0  0  0  0  0
   -7.4916    1.2744   -0.5075 H   0  0  0  0  0  0  0  0  0  0  0  0
   -6.7840   -0.5600    0.9247 H   0  0  0  0  0  0  0  0  0  0  0  0
   -4.4740   -1.1332    1.1621 H   0  0  0  0  0  0  0  0  0  0  0  0
  1  2  1  0
  2  3  1  0
  2  4  1  0
  2  5  1  0
  5  6  2  0
  6  7  1  0
  7  8  2  0
  8  9  1  0
  9 10  2  0
  8 11  1  0
 11 12  2  0
 11 13  1  0
 13 14  1  0
 14 15  1  0
 15 16  1  0
 16 17  1  0
 17 18  1  0
 18 19  1  0
 17 20  1  0
 20 21  2  0
 21 22  1  0
 22 23  2  0
 23 24  1  0
 24 25  2  0
 10  5  1  0
 19 13  1  0
 25 20  1  0
  6 26  1  0
  7 27  1  0
  9 28  1  0
 14 29  1  0
 14 30  1  0
 15 31  1  0
 15 32  1  0
 16 33  1  0
 16 34  1  0
 18 35  1  0
 18 36  1  0
 19 37  1  0
 19 38  1  0
 21 39  1  0
 22 40  1  0
 23 41  1  0
 24 42  1  0
 25 43  1  0
M  END
$$$$
[H]OC(=O)C([H])([H])C([H])([H])N([H])C(=O)[C@@]([H])(N([H])C(=O)[C@]1([H])N(C(=O)[C@@]([H])(N([H])[H])C([H])([H])c2c(C([H])([H])[H])c([H])c(O[H])c([H])c2C([H])([H])[H])C([H])([H])c2c([H])c([H])c([H])c([H])c2C1([H])[H])C([H])([H])c1c([H])c([H])c([H])c([H])c1[H]
     RDKit          3D

 81 84  0  0  0  0  0  0  0  0999 V2000
    5.1973   -2.7446   -1.3162 C   0  0  0  0  0  0  0  0  0  0  0  0
    5.1495   -1.8101   -0.1680 C   0  0  0  0  0  0  0  0  0  0  0  0
    6.3441   -1.2152    0.2609 C   0  0  0  0  0  0  0  0  0  0  0  0
    6.4209   -0.3882    1.3515 C   0  0  0  0  0  0  0  0  0  0  0  0
    7.6428    0.1812    1.7361 O   0  0  0  0  0  0  0  0  0  0  0  0
    5.2693   -0.1318    2.0573 C   0  0  0  0  0  0  0  0  0  0  0  0
    4.0471   -0.7011    1.6714 C   0  0  0  0  0  0  0  0  0  0  0  0
    2.8623   -0.4190    2.5105 C   0  0  0  0  0  0  0  0  0  0  0  0
    3.9895   -1.5357    0.5601 C   0  0  0  0  0  0  0  0  0  0  0  0
    2.7378   -2.1143    0.1008 C   0  0  0  0  0  0  0  0  0  0  0  0
    1.9693   -1.4288   -0.9971 C   0  0  2  0  0  0  0  0  0  0  0  0
    2.6414   -1.1797   -2.1908 N   0  0  0  0  0  0  0  0  0  0  0  0
    0.9770   -0.4579   -0.5682 C   0  0  0  0  0  0  0  0  0  0  0  0
    0.2054   -0.8522    0.4232 O   0  0  0  0  0  0  0  0  0  0  0  0
    0.7247    0.8057   -1.0384 N   0  0  0  0  0  0  0  0  0  0  0  0
    1.3764    1.4726   -2.1299 C   0  0  0  0  0  0  0  0  0  0  0  0
    2.2895    2.4664   -1.4704 C   0  0  0  0  0  0  0  0  0  0  0  0
    3.5286    2.7758   -1.9889 C   0  0  0  0  0  0  0  0  0  0  0  0
    4.3189    3.6941   -1.3384 C   0  0  0  0  0  0  0  0  0  0  0  0
    3.8934    4.3089   -0.1780 C   0  0  0  0  0  0  0  0  0  0  0  0
    2.6502    3.9753    0.3099 C   0  0  0  0  0  0  0  0  0  0  0  0
    1.8311    3.0639   -0.3090 C   0  0  0  0  0  0  0  0  0  0  0  0
    0.5142    2.7972    0.3273 C   0  0  0  0  0  0  0  0  0  0  0  0
   -0.2465    1.6882   -0.3641 C   0  0  2  0  0  0  0  0  0  0  0  0
   -1.3240    1.0913    0.3553 C   0  0  0  0  0  0  0  0  0  0  0  0
   -1.4269    1.2432    1.6196 O   0  0  0  0  0  0  0  0  0  0  0  0
   -2.3261    0.3187   -0.2808 N   0  0  0  0  0  0  0  0  0  0  0  0
   -3.4269   -0.2804    0.4790 C   0  0  1  0  0  0  0  0  0  0  0  0
   -4.7397    0.4009    0.1068 C   0  0  0  0  0  0  0  0  0  0  0  0
   -4.7117    1.8359    0.3981 C   0  0  0  0  0  0  0  0  0  0  0  0
   -5.1035    2.3890    1.5955 C   0  0  0  0  0  0  0  0  0  0  0  0
   -5.0577    3.7464    1.8389 C   0  0  0  0  0  0  0  0  0  0  0  0
   -4.6029    4.5847    0.8465 C   0  0  0  0  0  0  0  0  0  0  0  0
   -4.1988    4.0784   -0.3744 C   0  0  0  0  0  0  0  0  0  0  0  0
   -4.2652    2.7144   -0.5633 C   0  0  0  0  0  0  0  0  0  0  0  0
   -3.5368   -1.6922    0.0652 C   0  0  0  0  0  0  0  0  0  0  0  0
   -2.7799   -2.1827   -0.8270 O   0  0  0  0  0  0  0  0  0  0  0  0
   -4.5048   -2.5575    0.6571 N   0  0  0  0  0  0  0  0  0  0  0  0
   -4.6209   -3.9340    0.2559 C   0  0  0  0  0  0  0  0  0  0  0  0
   -5.6878   -4.6653    1.0338 C   0  0  0  0  0  0  0  0  0  0  0  0
   -5.8136   -6.0686    0.6213 C   0  0  0  0  0  0  0  0  0  0  0  0
   -5.1234   -6.6193   -0.4455 O   0  0  0  0  0  0  0  0  0  0  0  0
   -6.5847   -6.8288    1.2559 O   0  0  0  0  0  0  0  0  0  0  0  0
    5.4432   -2.2213   -2.2680 H   0  0  0  0  0  0  0  0  0  0  0  0
    6.1498   -3.3568   -1.1333 H   0  0  0  0  0  0  0  0  0  0  0  0
    4.4184   -3.4930   -1.3752 H   0  0  0  0  0  0  0  0  0  0  0  0
    7.2393   -1.4172   -0.2854 H   0  0  0  0  0  0  0  0  0  0  0  0
    7.9688    1.0796    1.3893 H   0  0  0  0  0  0  0  0  0  0  0  0
    5.2753    0.5127    2.9237 H   0  0  0  0  0  0  0  0  0  0  0  0
    2.2832   -1.3375    2.7688 H   0  0  0  0  0  0  0  0  0  0  0  0
    3.2503   -0.0811    3.5252 H   0  0  0  0  0  0  0  0  0  0  0  0
    2.2315    0.4134    2.1342 H   0  0  0  0  0  0  0  0  0  0  0  0
    2.0099   -2.1810    0.9931 H   0  0  0  0  0  0  0  0  0  0  0  0
    2.9263   -3.1887   -0.2018 H   0  0  0  0  0  0  0  0  0  0  0  0
    1.2168   -2.3262   -1.3562 H   0  0  0  0  0  0  0  0  0  0  0  0
    2.2929   -1.5503   -3.0740 H   0  0  0  0  0  0  0  0  0  0  0  0
    3.3910   -0.4880   -2.2122 H   0  0  0  0  0  0  0  0  0  0  0  0
    1.7818    0.9210   -2.9389 H   0  0  0  0  0  0  0  0  0  0  0  0
    0.5469    2.1437   -2.5979 H   0  0  0  0  0  0  0  0  0  0  0  0
    3.8641    2.3011   -2.8869 H   0  0  0  0  0  0  0  0  0  0  0  0
    5.3005    3.9853   -1.6890 H   0  0  0  0  0  0  0  0  0  0  0  0
    4.5379    5.0376    0.3192 H   0  0  0  0  0  0  0  0  0  0  0  0
    2.3258    4.4574    1.2180 H   0  0  0  0  0  0  0  0  0  0  0  0
    0.5883    2.5745    1.4077 H   0  0  0  0  0  0  0  0  0  0  0  0
   -0.0875    3.7364    0.2018 H   0  0  0  0  0  0  0  0  0  0  0  0
   -0.7473    2.2144   -1.2670 H   0  0  0  0  0  0  0  0  0  0  0  0
   -2.2691    0.1808   -1.3148 H   0  0  0  0  0  0  0  0  0  0  0  0
   -3.2065   -0.1769    1.5422 H   0  0  0  0  0  0  0  0  0  0  0  0
   -5.5199   -0.0758    0.7398 H   0  0  0  0  0  0  0  0  0  0  0  0
   -4.9438    0.1432   -0.9463 H   0  0  0  0  0  0  0  0  0  0  0  0
   -5.4670    1.7458    2.3935 H   0  0  0  0  0  0  0  0  0  0  0  0
   -5.3699    4.1565    2.7785 H   0  0  0  0  0  0  0  0  0  0  0  0
   -4.5505    5.6645    1.0092 H   0  0  0  0  0  0  0  0  0  0  0  0
   -3.8440    4.7689   -1.1377 H   0  0  0  0  0  0  0  0  0  0  0  0
   -3.9524    2.3117   -1.5115 H   0  0  0  0  0  0  0  0  0  0  0  0
   -5.1664   -2.2170    1.4075 H   0  0  0  0  0  0  0  0  0  0  0  0
   -4.9633   -3.9059   -0.8209 H   0  0  0  0  0  0  0  0  0  0  0  0
   -3.6624   -4.4758    0.2931 H   0  0  0  0  0  0  0  0  0  0  0  0
   -6.6671   -4.1649    0.9001 H   0  0  0  0  0  0  0  0  0  0  0  0
   -5.4317   -4.6654    2.1342 H   0  0  0  0  0  0  0  0  0  0  0  0
   -5.6915   -6.8504   -1.2722 H   0  0  0  0  0  0  0  0  0  0  0  0
  1  2  1  0
  2  3  2  0
  3  4  1  0
  4  5  1  0
  4  6  2  0
  6  7  1  0
  7  8  1  0
  7  9  2  0
  9 10  1  0
 10 11  1  0
 11 12  1  0
 11 13  1  0
 13 14  2  0
 13 15  1  0
 15 16  1  0
 16 17  1  0
 17 18  2  0
 18 19  1  0
 19 20  2  0
 20 21  1  0
 21 22  2  0
 22 23  1  0
 23 24  1  0
 24 25  1  0
 25 26  2  0
 25 27  1  0
 27 28  1  0
 28 29  1  0
 29 30  1  0
 30 31  2  0
 31 32  1  0
 32 33  2  0
 33 34  1  0
 34 35  2  0
 28 36  1  0
 36 37  2  0
 36 38  1  0
 38 39  1  0
 39 40  1  0
 40 41  1  0
 41 42  1  0
 41 43  2  0
  9  2  1  0
 24 15  1  0
 35 30  1  0
 22 17  1  0
  1 44  1  0
  1 45  1  0
  1 46  1  0
  3 47  1  0
  5 48  1  0
  6 49  1  0
  8 50  1  0
  8 51  1  0
  8 52  1  0
 10 53  1  0
 10 54  1  0
 11 55  1  6
 12 56  1  0
 12 57  1  0
 16 58  1  0
 16 59  1  0
 18 60  1  0
 19 61  1  0
 20 62  1  0
 21 63  1  0
 23 64  1  0
 23 65  1  0
 24 66  1  6
 27 67  1  0
 28 68  1  1
 29 69  1  0
 29 70  1  0
 31 71  1  0
 32 72  1  0
 33 73  1  0
 34 74  1  0
 35 75  1  0
 38 76  1  0
 39 77  1  0
 39 78  1  0
 40 79  1  0
 40 80  1  0
 42 81  1  0
M  END
$$$$
[H]OC(=O)C([H])([H])N([H])[C@]([H])(C(=O)N([H])C([H])([H])C([H])([H])C([H])([H])OC([H])([H])[H])C([H])([H])[H]
     RDKit          3D

 33 32  0  0  0  0  0  0  0  0999 V2000
    4.7345   -0.3390    0.6504 C   0  0  0  0  0  0  0  0  0  0  0  0
    4.3958   -0.5450   -0.6683 O   0  0  0  0  0  0  0  0  0  0  0  0
    3.3197   -1.3595   -0.8508 C   0  0  0  0  0  0  0  0  0  0  0  0
    2.0637   -0.8002   -0.2031 C   0  0  0  0  0  0  0  0  0  0  0  0
    1.7895    0.5279   -0.8441 C   0  0  0  0  0  0  0  0  0  0  0  0
    0.6373    1.1765   -0.3127 N   0  0  0  0  0  0  0  0  0  0  0  0
   -0.6569    0.5632   -0.4106 C   0  0  0  0  0  0  0  0  0  0  0  0
   -0.7603   -0.5400   -0.9617 O   0  0  0  0  0  0  0  0  0  0  0  0
   -1.8509    1.2329    0.1408 C   0  0  2  0  0  0  0  0  0  0  0  0
   -1.4521    2.2415    1.2174 C   0  0  0  0  0  0  0  0  0  0  0  0
   -2.8328    0.3668    0.6189 N   0  0  0  0  0  0  0  0  0  0  0  0
   -3.4722   -0.5061   -0.2654 C   0  0  0  0  0  0  0  0  0  0  0  0
   -4.5682   -1.2007    0.5148 C   0  0  0  0  0  0  0  0  0  0  0  0
   -5.3252   -2.1271   -0.1666 O   0  0  0  0  0  0  0  0  0  0  0  0
   -4.8023   -0.9709    1.7189 O   0  0  0  0  0  0  0  0  0  0  0  0
    5.6312    0.3154    0.7493 H   0  0  0  0  0  0  0  0  0  0  0  0
    3.9097    0.2264    1.1642 H   0  0  0  0  0  0  0  0  0  0  0  0
    4.8845   -1.2719    1.2194 H   0  0  0  0  0  0  0  0  0  0  0  0
    3.5539   -2.3814   -0.4661 H   0  0  0  0  0  0  0  0  0  0  0  0
    3.1158   -1.4048   -1.9530 H   0  0  0  0  0  0  0  0  0  0  0  0
    1.2661   -1.5559   -0.3932 H   0  0  0  0  0  0  0  0  0  0  0  0
    2.1549   -0.7040    0.8872 H   0  0  0  0  0  0  0  0  0  0  0  0
    2.6670    1.1831   -0.6260 H   0  0  0  0  0  0  0  0  0  0  0  0
    1.6952    0.4216   -1.9518 H   0  0  0  0  0  0  0  0  0  0  0  0
    0.6799    2.1207    0.1721 H   0  0  0  0  0  0  0  0  0  0  0  0
   -2.2768    1.8348   -0.7221 H   0  0  0  0  0  0  0  0  0  0  0  0
   -0.7886    1.7850    1.9655 H   0  0  0  0  0  0  0  0  0  0  0  0
   -2.3692    2.6196    1.7136 H   0  0  0  0  0  0  0  0  0  0  0  0
   -0.9838    3.1426    0.7235 H   0  0  0  0  0  0  0  0  0  0  0  0
   -2.8176    0.1627    1.6194 H   0  0  0  0  0  0  0  0  0  0  0  0
   -2.8572   -1.3838   -0.6256 H   0  0  0  0  0  0  0  0  0  0  0  0
   -3.8956    0.0022   -1.1526 H   0  0  0  0  0  0  0  0  0  0  0  0
   -4.7890   -2.8327   -0.6918 H   0  0  0  0  0  0  0  0  0  0  0  0
  1  2  1  0
  2  3  1  0
  3  4  1  0
  4  5  1  0
  5  6  1  0
  6  7  1  0
  7  8  2  0
  7  9  1  0
  9 10  1  0
  9 11  1  0
 11 12  1  0
 12 13  1  0
 13 14  1  0
 13 15  2  0
  1 16  1  0
  1 17  1  0
  1 18  1  0
  3 19  1  0
  3 20  1  0
  4 21  1  0
  4 22  1  0
  5 23  1  0
  5 24  1  0
  6 25  1  0
  9 26  1  6
 10 27  1  0
 10 28  1  0
 10 29  1  0
 11 30  1  0
 12 31  1  0
 12 32  1  0
 14 33  1  0
M  END
$$$$
[H]OC([H])([H])c1c(-c2c([H])c3c([H])c([H])c(N4C([H])([H])C([H])([H])N(C([H])([H])[H])C([H])([H])C4([H])[H])c([H])c3n2[H])c(=O)n([H])c2c([H])c([H])c(F)c([H])c12
     RDKit          3D

 53 57  0  0  0  0  0  0  0  0999 V2000
   -7.8878    0.7468    0.7897 C   0  0  0  0  0  0  0  0  0  0  0  0
   -6.6405    0.3496    0.2168 N   0  0  0  0  0  0  0  0  0  0  0  0
   -6.3207   -1.0307    0.5372 C   0  0  0  0  0  0  0  0  0  0  0  0
   -5.0602   -1.4266   -0.1766 C   0  0  0  0  0  0  0  0  0  0  0  0
   -3.9831   -0.4920   -0.1080 N   0  0  0  0  0  0  0  0  0  0  0  0
   -4.2314    0.8838    0.1868 C   0  0  0  0  0  0  0  0  0  0  0  0
   -5.5896    1.2336    0.6837 C   0  0  0  0  0  0  0  0  0  0  0  0
   -2.6430   -0.9254   -0.3405 C   0  0  0  0  0  0  0  0  0  0  0  0
   -2.3316   -2.2384   -0.6091 C   0  0  0  0  0  0  0  0  0  0  0  0
   -1.0353   -2.6583   -0.8368 C   0  0  0  0  0  0  0  0  0  0  0  0
    0.0021   -1.7297   -0.7957 C   0  0  0  0  0  0  0  0  0  0  0  0
    1.3729   -1.8664   -0.9817 C   0  0  0  0  0  0  0  0  0  0  0  0
    1.9158   -0.5764   -0.8195 C   0  0  0  0  0  0  0  0  0  0  0  0
    0.8994    0.2352   -0.5564 N   0  0  0  0  0  0  0  0  0  0  0  0
   -0.2931   -0.4288   -0.5313 C   0  0  0  0  0  0  0  0  0  0  0  0
   -1.5893   -0.0129   -0.3043 C   0  0  0  0  0  0  0  0  0  0  0  0
    3.3484   -0.3402   -0.8504 C   0  0  0  0  0  0  0  0  0  0  0  0
    4.0223    0.6567   -0.1352 C   0  0  0  0  0  0  0  0  0  0  0  0
    3.2388    1.5370    0.7059 C   0  0  0  0  0  0  0  0  0  0  0  0
    3.8446    2.4620    1.5134 O   0  0  0  0  0  0  0  0  0  0  0  0
    5.4018    0.7538   -0.3076 C   0  0  0  0  0  0  0  0  0  0  0  0
    6.1423    1.7102    0.3554 C   0  0  0  0  0  0  0  0  0  0  0  0
    7.5252    1.7610    0.1383 C   0  0  0  0  0  0  0  0  0  0  0  0
    8.2133    2.7137    0.8077 F   0  0  0  0  0  0  0  0  0  0  0  0
    8.1974    0.9141   -0.6983 C   0  0  0  0  0  0  0  0  0  0  0  0
    7.4563   -0.0382   -1.3584 C   0  0  0  0  0  0  0  0  0  0  0  0
    6.0934   -0.1105   -1.1633 C   0  0  0  0  0  0  0  0  0  0  0  0
    5.4266   -1.0405   -1.8257 N   0  0  0  0  0  0  0  0  0  0  0  0
    4.1203   -1.1642   -1.6902 C   0  0  0  0  0  0  0  0  0  0  0  0
    3.4996   -2.0600   -2.3420 O   0  0  0  0  0  0  0  0  0  0  0  0
   -8.0880    1.8035    0.4719 H   0  0  0  0  0  0  0  0  0  0  0  0
   -7.9234    0.6896    1.8870 H   0  0  0  0  0  0  0  0  0  0  0  0
   -8.6936    0.0843    0.3562 H   0  0  0  0  0  0  0  0  0  0  0  0
   -7.1464   -1.6456    0.1066 H   0  0  0  0  0  0  0  0  0  0  0  0
   -6.2795   -1.2289    1.6196 H   0  0  0  0  0  0  0  0  0  0  0  0
   -4.8003   -2.4288    0.2391 H   0  0  0  0  0  0  0  0  0  0  0  0
   -5.2959   -1.5861   -1.2552 H   0  0  0  0  0  0  0  0  0  0  0  0
   -3.5152    1.3066    0.9322 H   0  0  0  0  0  0  0  0  0  0  0  0
   -4.1053    1.4324   -0.7990 H   0  0  0  0  0  0  0  0  0  0  0  0
   -5.8535    2.2501    0.3292 H   0  0  0  0  0  0  0  0  0  0  0  0
   -5.5859    1.3000    1.8038 H   0  0  0  0  0  0  0  0  0  0  0  0
   -3.0938   -2.9950   -0.6542 H   0  0  0  0  0  0  0  0  0  0  0  0
   -0.8104   -3.7053   -1.0479 H   0  0  0  0  0  0  0  0  0  0  0  0
    1.8409   -2.8124   -1.1800 H   0  0  0  0  0  0  0  0  0  0  0  0
    0.8584    1.2731   -0.3903 H   0  0  0  0  0  0  0  0  0  0  0  0
   -1.8101    1.0265   -0.0972 H   0  0  0  0  0  0  0  0  0  0  0  0
    2.4777    1.0042    1.3017 H   0  0  0  0  0  0  0  0  0  0  0  0
    2.6067    2.2309   -0.0112 H   0  0  0  0  0  0  0  0  0  0  0  0
    3.2567    3.2342    1.6949 H   0  0  0  0  0  0  0  0  0  0  0  0
    5.7085    2.4199    1.0260 H   0  0  0  0  0  0  0  0  0  0  0  0
    9.2697    0.9767   -0.8469 H   0  0  0  0  0  0  0  0  0  0  0  0
    7.9540   -0.7322   -2.0343 H   0  0  0  0  0  0  0  0  0  0  0  0
    5.9138   -1.7163   -2.4855 H   0  0  0  0  0  0  0  0  0  0  0  0
  1  2  1  0
  2  3  1  0
  3  4  1  0
  4  5  1  0
  5  6  1  0
  6  7  1  0
  5  8  1  0
  8  9  2  0
  9 10  1  0
 10 11  2  0
 11 12  1  0
 12 13  2  0
 13 14  1  0
 14 15  1  0
 15 16  2  0
 13 17  1  0
 17 18  2  0
 18 19  1  0
 19 20  1  0
 18 21  1  0
 21 22  2  0
 22 23  1  0
 23 24  1  0
 23 25  2  0
 25 26  1  0
 26 27  2  0
 27 28  1  0
 28 29  1  0
 29 30  2  0
  7  2  1  0
 16  8  1  0
 29 17  1  0
 15 11  1  0
 27 21  1  0
  1 31  1  0
  1 32  1  0
  1 33  1  0
  3 34  1  0
  3 35  1  0
  4 36  1  0
  4 37  1  0
  6 38  1  0
  6 39  1  0
  7 40  1  0
  7 41  1  0
  9 42  1  0
 10 43  1  0
 12 44  1  0
 14 45  1  0
 16 46  1  0
 19 47  1  0
 19 48  1  0
 20 49  1  0
 22 50  1  0
 25 51  1  0
 26 52  1  0
 28 53  1  0
M  END
$$$$
[H]OC(=O)C([H])([H])C([H])([H])c1c([H])c([H])c([H])c(C([H])([H])[Si](C([H])([H])C([H])([H])c2c([H])c([H])c([H])c([H])c2[H])C([H])(C(=O)O[H])C([H])([H])c2c([H])c(F)c([H])c([H])c2F)c1[H]
     RDKit          3D

 61 63  0  0  0  0  0  0  0  0999 V2000
    6.7488    3.5640    1.8069 O   0  0  0  0  0  0  0  0  0  0  0  0
    6.6827    2.2229    1.4928 C   0  0  0  0  0  0  0  0  0  0  0  0
    7.4756    1.4303    2.0605 O   0  0  0  0  0  0  0  0  0  0  0  0
    5.6748    1.7395    0.4925 C   0  0  0  0  0  0  0  0  0  0  0  0
    4.8448    0.6193    1.0735 C   0  0  0  0  0  0  0  0  0  0  0  0
    3.8795    0.1565    0.0482 C   0  0  0  0  0  0  0  0  0  0  0  0
    4.2233   -0.9127   -0.7561 C   0  0  0  0  0  0  0  0  0  0  0  0
    3.3820   -1.4062   -1.7307 C   0  0  0  0  0  0  0  0  0  0  0  0
    2.1411   -0.8065   -1.9128 C   0  0  0  0  0  0  0  0  0  0  0  0
    1.7622    0.2578   -1.1357 C   0  0  0  0  0  0  0  0  0  0  0  0
    0.4418    0.8708   -1.3701 C   0  0  0  0  0  0  0  0  0  0  0  0
   -0.9479    0.2744   -0.3778 Si  0  0  0  0  0  3  0  0  0  0  0  0
   -1.0143    0.9120    1.3443 C   0  0  0  0  0  0  0  0  0  0  0  0
   -2.2526    1.7586    1.5291 C   0  0  0  0  0  0  0  0  0  0  0  0
   -2.2724    2.9171    0.6038 C   0  0  0  0  0  0  0  0  0  0  0  0
   -2.8729    2.7662   -0.6385 C   0  0  0  0  0  0  0  0  0  0  0  0
   -2.9262    3.7985   -1.5643 C   0  0  0  0  0  0  0  0  0  0  0  0
   -2.3650    5.0308   -1.2516 C   0  0  0  0  0  0  0  0  0  0  0  0
   -1.7723    5.1709   -0.0169 C   0  0  0  0  0  0  0  0  0  0  0  0
   -1.7226    4.1477    0.8909 C   0  0  0  0  0  0  0  0  0  0  0  0
   -1.2891   -1.5506   -0.4307 C   0  0  0  0  0  0  0  0  0  0  0  0
   -2.6190   -1.7478    0.2813 C   0  0  0  0  0  0  0  0  0  0  0  0
   -3.0719   -3.1339    0.3585 C   0  0  0  0  0  0  0  0  0  0  0  0
   -4.1238   -3.6194   -0.4176 C   0  0  0  0  0  0  0  0  0  0  0  0
   -4.5636   -4.9184   -0.3347 C   0  0  0  0  0  0  0  0  0  0  0  0
   -5.6013   -5.3615   -1.1083 F   0  0  0  0  0  0  0  0  0  0  0  0
   -3.9584   -5.7982    0.5428 C   0  0  0  0  0  0  0  0  0  0  0  0
   -2.9178   -5.3304    1.3156 C   0  0  0  0  0  0  0  0  0  0  0  0
   -2.4837   -4.0310    1.2273 C   0  0  0  0  0  0  0  0  0  0  0  0
   -1.4368   -3.6303    2.0315 F   0  0  0  0  0  0  0  0  0  0  0  0
   -1.4241   -2.0604   -1.7902 C   0  0  0  0  0  0  0  0  0  0  0  0
   -1.5626   -3.4108   -2.0475 O   0  0  0  0  0  0  0  0  0  0  0  0
   -1.4153   -1.2552   -2.7713 O   0  0  0  0  0  0  0  0  0  0  0  0
    2.6395    0.7122   -0.1747 C   0  0  0  0  0  0  0  0  0  0  0  0
    7.5834    4.1031    1.6975 H   0  0  0  0  0  0  0  0  0  0  0  0
    5.0117    2.5525    0.1679 H   0  0  0  0  0  0  0  0  0  0  0  0
    6.2382    1.4020   -0.4170 H   0  0  0  0  0  0  0  0  0  0  0  0
    5.4933   -0.1975    1.4435 H   0  0  0  0  0  0  0  0  0  0  0  0
    4.2161    1.0397    1.9169 H   0  0  0  0  0  0  0  0  0  0  0  0
    5.1938   -1.3808   -0.6145 H   0  0  0  0  0  0  0  0  0  0  0  0
    3.6606   -2.2569   -2.3695 H   0  0  0  0  0  0  0  0  0  0  0  0
    1.4765   -1.2131   -2.6977 H   0  0  0  0  0  0  0  0  0  0  0  0
    0.5252    1.9861   -1.1893 H   0  0  0  0  0  0  0  0  0  0  0  0
    0.1500    0.8125   -2.4639 H   0  0  0  0  0  0  0  0  0  0  0  0
   -0.0952    1.4812    1.6379 H   0  0  0  0  0  0  0  0  0  0  0  0
   -1.0851    0.0750    2.0938 H   0  0  0  0  0  0  0  0  0  0  0  0
   -3.1379    1.1220    1.3097 H   0  0  0  0  0  0  0  0  0  0  0  0
   -2.3578    2.1021    2.5912 H   0  0  0  0  0  0  0  0  0  0  0  0
   -3.3030    1.8269   -0.8740 H   0  0  0  0  0  0  0  0  0  0  0  0
   -3.4042    3.6671   -2.5428 H   0  0  0  0  0  0  0  0  0  0  0  0
   -2.4068    5.8264   -1.9667 H   0  0  0  0  0  0  0  0  0  0  0  0
   -1.3379    6.1539    0.1968 H   0  0  0  0  0  0  0  0  0  0  0  0
   -1.2442    4.3161    1.8381 H   0  0  0  0  0  0  0  0  0  0  0  0
   -0.5349   -2.1168    0.1683 H   0  0  0  0  0  0  0  0  0  0  0  0
   -3.3679   -1.1532   -0.3259 H   0  0  0  0  0  0  0  0  0  0  0  0
   -2.6257   -1.2405    1.2718 H   0  0  0  0  0  0  0  0  0  0  0  0
   -4.6363   -2.9520   -1.1315 H   0  0  0  0  0  0  0  0  0  0  0  0
   -4.2996   -6.8258    0.6126 H   0  0  0  0  0  0  0  0  0  0  0  0
   -2.4306   -6.0044    2.0073 H   0  0  0  0  0  0  0  0  0  0  0  0
   -0.9366   -4.0656   -1.5732 H   0  0  0  0  0  0  0  0  0  0  0  0
    2.3724    1.5636    0.4670 H   0  0  0  0  0  0  0  0  0  0  0  0
  1  2  1  0
  2  3  2  0
  2  4  1  0
  4  5  1  0
  5  6  1  0
  6  7  2  0
  7  8  1  0
  8  9  2  0
  9 10  1  0
 10 11  1  0
 11 12  1  0
 12 13  1  0
 13 14  1  0
 14 15  1  0
 15 16  2  0
 16 17  1  0
 17 18  2  0
 18 19  1  0
 19 20  2  0
 12 21  1  0
 21 22  1  0
 22 23  1  0
 23 24  2  0
 24 25  1  0
 25 26  1  0
 25 27  2  0
 27 28  1  0
 28 29  2  0
 29 30  1  0
 21 31  1  0
 31 32  1  0
 31 33  2  0
 10 34  2  0
 34  6  1  0
 20 15  1  0
 29 23  1  0
  1 35  1  0
  4 36  1  0
  4 37  1  0
  5 38  1  0
  5 39  1  0
  7 40  1  0
  8 41  1  0
  9 42  1  0
 11 43  1  0
 11 44  1  0
 13 45  1  0
 13 46  1  0
 14 47  1  0
 14 48  1  0
 16 49  1  0
 17 50  1  0
 18 51  1  0
 19 52  1  0
 20 53  1  0
 21 54  1  0
 22 55  1  0
 22 56  1  0
 24 57  1  0
 27 58  1  0
 28 59  1  0
 32 60  1  0
 34 61  1  0
M  RAD  1  12   2
M  END
$$$$
[H]/C(=N/N=C(/C(=O)N([H])c1c([H])c([H])c([H])c([H])c1[H])C([H])([H])[H])c1c([H])c([H])c2c(c([H])nn2C([H])([H])C([H])([H])Oc2c([H])c([H])c([H])c([H])c2[H])c1[H]
     RDKit          3D

 55 58  0  0  0  0  0  0  0  0999 V2000
   -5.1869   -1.0472    3.4083 C   0  0  0  0  0  0  0  0  0  0  0  0
   -4.3864   -0.3830    2.3587 C   0  0  0  0  0  0  0  0  0  0  0  0
   -3.1464   -0.1366    2.6510 N   0  0  0  0  0  0  0  0  0  0  0  0
   -2.5297   -0.4260    3.8095 N   0  0  0  0  0  0  0  0  0  0  0  0
   -1.3617   -0.8473    3.9666 C   0  0  0  0  0  0  0  0  0  0  0  0
   -0.4548   -1.0998    2.8877 C   0  0  0  0  0  0  0  0  0  0  0  0
   -0.6195   -0.9337    1.5511 C   0  0  0  0  0  0  0  0  0  0  0  0
    0.3739   -1.2429    0.5973 C   0  0  0  0  0  0  0  0  0  0  0  0
    1.5882   -1.7416    1.0086 C   0  0  0  0  0  0  0  0  0  0  0  0
    2.7189   -2.1319    0.4103 N   0  0  0  0  0  0  0  0  0  0  0  0
    2.9364   -2.1132   -1.0142 C   0  0  0  0  0  0  0  0  0  0  0  0
    3.5196   -0.8007   -1.4866 C   0  0  0  0  0  0  0  0  0  0  0  0
    4.7712   -0.5410   -0.8779 O   0  0  0  0  0  0  0  0  0  0  0  0
    5.5060    0.6045   -1.1527 C   0  0  0  0  0  0  0  0  0  0  0  0
    6.7137    0.8002   -0.5305 C   0  0  0  0  0  0  0  0  0  0  0  0
    7.4265    1.9405   -0.8157 C   0  0  0  0  0  0  0  0  0  0  0  0
    6.9717    2.8891   -1.7008 C   0  0  0  0  0  0  0  0  0  0  0  0
    5.7637    2.6885   -2.3201 C   0  0  0  0  0  0  0  0  0  0  0  0
    5.0449    1.5487   -2.0390 C   0  0  0  0  0  0  0  0  0  0  0  0
    3.5905   -2.5346    1.2888 N   0  0  0  0  0  0  0  0  0  0  0  0
    3.0603   -2.4227    2.5018 C   0  0  0  0  0  0  0  0  0  0  0  0
    1.7892   -1.9226    2.3643 C   0  0  0  0  0  0  0  0  0  0  0  0
    0.7984   -1.6104    3.2639 C   0  0  0  0  0  0  0  0  0  0  0  0
   -5.0040   -0.0341    1.0758 C   0  0  0  0  0  0  0  0  0  0  0  0
   -6.2042   -0.3424    0.9489 O   0  0  0  0  0  0  0  0  0  0  0  0
   -4.3064    0.6046    0.0501 N   0  0  0  0  0  0  0  0  0  0  0  0
   -4.7376    1.0027   -1.2243 C   0  0  0  0  0  0  0  0  0  0  0  0
   -3.8854    1.8095   -1.9979 C   0  0  0  0  0  0  0  0  0  0  0  0
   -4.2589    2.2184   -3.2559 C   0  0  0  0  0  0  0  0  0  0  0  0
   -5.4807    1.8554   -3.8091 C   0  0  0  0  0  0  0  0  0  0  0  0
   -6.2914    1.0698   -3.0356 C   0  0  0  0  0  0  0  0  0  0  0  0
   -5.9490    0.6385   -1.7644 C   0  0  0  0  0  0  0  0  0  0  0  0
   -5.4553   -0.3707    4.2367 H   0  0  0  0  0  0  0  0  0  0  0  0
   -4.6155   -1.9386    3.7563 H   0  0  0  0  0  0  0  0  0  0  0  0
   -6.1402   -1.4804    2.9878 H   0  0  0  0  0  0  0  0  0  0  0  0
   -1.0078   -1.0357    5.0289 H   0  0  0  0  0  0  0  0  0  0  0  0
   -1.5294   -0.5472    1.1590 H   0  0  0  0  0  0  0  0  0  0  0  0
    0.1810   -1.0893   -0.4442 H   0  0  0  0  0  0  0  0  0  0  0  0
    1.9757   -2.2828   -1.5147 H   0  0  0  0  0  0  0  0  0  0  0  0
    3.6590   -2.9115   -1.2855 H   0  0  0  0  0  0  0  0  0  0  0  0
    3.7153   -0.8817   -2.5762 H   0  0  0  0  0  0  0  0  0  0  0  0
    2.8051    0.0181   -1.3508 H   0  0  0  0  0  0  0  0  0  0  0  0
    7.1357    0.0954    0.1790 H   0  0  0  0  0  0  0  0  0  0  0  0
    8.3835    2.0764   -0.3106 H   0  0  0  0  0  0  0  0  0  0  0  0
    7.5829    3.7833   -1.8923 H   0  0  0  0  0  0  0  0  0  0  0  0
    5.4028    3.4439   -3.0238 H   0  0  0  0  0  0  0  0  0  0  0  0
    4.0818    1.3945   -2.5363 H   0  0  0  0  0  0  0  0  0  0  0  0
    3.5273   -2.6731    3.4270 H   0  0  0  0  0  0  0  0  0  0  0  0
    1.0097   -1.7719    4.3065 H   0  0  0  0  0  0  0  0  0  0  0  0
   -3.2717    0.8297    0.2593 H   0  0  0  0  0  0  0  0  0  0  0  0
   -2.9179    2.1387   -1.6466 H   0  0  0  0  0  0  0  0  0  0  0  0
   -3.6198    2.8493   -3.8880 H   0  0  0  0  0  0  0  0  0  0  0  0
   -5.7474    2.1916   -4.7994 H   0  0  0  0  0  0  0  0  0  0  0  0
   -7.2491    0.7801   -3.4578 H   0  0  0  0  0  0  0  0  0  0  0  0
   -6.6752    0.0230   -1.2690 H   0  0  0  0  0  0  0  0  0  0  0  0
  1  2  1  0
  2  3  2  0
  3  4  1  0
  4  5  2  0
  5  6  1  0
  6  7  2  0
  7  8  1  0
  8  9  2  0
  9 10  1  0
 10 11  1  0
 11 12  1  0
 12 13  1  0
 13 14  1  0
 14 15  2  0
 15 16  1  0
 16 17  2  0
 17 18  1  0
 18 19  2  0
 10 20  1  0
 20 21  2  0
 21 22  1  0
 22 23  2  0
  2 24  1  0
 24 25  2  0
 24 26  1  0
 26 27  1  0
 27 28  2  0
 28 29  1  0
 29 30  2  0
 30 31  1  0
 31 32  2  0
 23  6  1  0
 32 27  1  0
 22  9  1  0
 19 14  1  0
  1 33  1  0
  1 34  1  0
  1 35  1  0
  5 36  1  0
  7 37  1  0
  8 38  1  0
 11 39  1  0
 11 40  1  0
 12 41  1  0
 12 42  1  0
 15 43  1  0
 16 44  1  0
 17 45  1  0
 18 46  1  0
 19 47  1  0
 21 48  1  0
 23 49  1  0
 26 50  1  0
 28 51  1  0
 29 52  1  0
 30 53  1  0
 31 54  1  0
 32 55  1  0
M  END
$$$$
[H]c1nc(C([H])([H])C([H])([H])[H])c([H])c(-c2c([H])c(-c3nc(-c4c([H])nc(C([H])([H])N([H])[H])c(C([H])([H])[H])c4[H])no3)c([H])c(C(F)(F)F)c2[H])c1[H]
     RDKit          3D

 52 55  0  0  0  0  0  0  0  0999 V2000
   -6.5332    2.8408   -0.5582 C   0  0  0  0  0  0  0  0  0  0  0  0
   -7.3798    1.6016   -0.4213 C   0  0  0  0  0  0  0  0  0  0  0  0
   -6.5930    0.3727   -0.4975 C   0  0  0  0  0  0  0  0  0  0  0  0
   -5.1801    0.3347   -0.4256 C   0  0  0  0  0  0  0  0  0  0  0  0
   -4.5598   -0.8590   -0.5236 C   0  0  0  0  0  0  0  0  0  0  0  0
   -5.3407   -2.0503   -0.6362 C   0  0  0  0  0  0  0  0  0  0  0  0
   -6.7270   -1.9999   -0.7034 C   0  0  0  0  0  0  0  0  0  0  0  0
   -7.2080   -0.7774   -0.6452 N   0  0  0  0  0  0  0  0  0  0  0  0
   -3.1515   -1.1042   -0.3712 C   0  0  0  0  0  0  0  0  0  0  0  0
   -2.0474   -0.4219   -0.8643 C   0  0  0  0  0  0  0  0  0  0  0  0
   -0.8122   -0.8853   -0.5553 C   0  0  0  0  0  0  0  0  0  0  0  0
   -0.6176   -2.0517    0.2579 C   0  0  0  0  0  0  0  0  0  0  0  0
   -1.6604   -2.7099    0.7892 C   0  0  0  0  0  0  0  0  0  0  0  0
   -2.8544   -2.1996    0.4675 C   0  0  0  0  0  0  0  0  0  0  0  0
   -1.3782   -3.7527    1.7898 C   0  0  0  0  0  0  0  0  0  0  0  0
   -0.9048   -4.9022    1.2552 F   0  0  0  0  0  0  0  0  0  0  0  0
   -2.4957   -3.9941    2.5714 F   0  0  0  0  0  0  0  0  0  0  0  0
   -0.4381   -3.2096    2.6963 F   0  0  0  0  0  0  0  0  0  0  0  0
    0.4162   -0.1123   -0.5561 C   0  0  0  0  0  0  0  0  0  0  0  0
    1.6667   -0.4890   -0.8679 N   0  0  0  0  0  0  0  0  0  0  0  0
    2.4659    0.5250   -0.6746 C   0  0  0  0  0  0  0  0  0  0  0  0
    1.6600    1.5890   -0.2307 N   0  0  0  0  0  0  0  0  0  0  0  0
    0.4941    1.1394   -0.2085 O   0  0  0  0  0  0  0  0  0  0  0  0
    3.9206    0.5933   -0.6640 C   0  0  0  0  0  0  0  0  0  0  0  0
    4.6520   -0.5523   -0.5763 C   0  0  0  0  0  0  0  0  0  0  0  0
    6.0126   -0.5748   -0.4157 N   0  0  0  0  0  0  0  0  0  0  0  0
    6.6600    0.6181   -0.3396 C   0  0  0  0  0  0  0  0  0  0  0  0
    8.1182    0.7466   -0.3593 C   0  0  0  0  0  0  0  0  0  0  0  0
    8.6398   -0.0425    0.7395 N   0  0  0  0  0  0  0  0  0  0  0  0
    5.9449    1.7840   -0.3542 C   0  0  0  0  0  0  0  0  0  0  0  0
    6.5982    2.9998    0.1959 C   0  0  0  0  0  0  0  0  0  0  0  0
    4.5904    1.8109   -0.5219 C   0  0  0  0  0  0  0  0  0  0  0  0
   -5.7253    2.9054    0.1657 H   0  0  0  0  0  0  0  0  0  0  0  0
   -7.2102    3.7002   -0.3944 H   0  0  0  0  0  0  0  0  0  0  0  0
   -6.1771    2.9521   -1.6257 H   0  0  0  0  0  0  0  0  0  0  0  0
   -8.1090    1.5727   -1.2557 H   0  0  0  0  0  0  0  0  0  0  0  0
   -7.9438    1.6789    0.5389 H   0  0  0  0  0  0  0  0  0  0  0  0
   -4.6667    1.2743   -0.4010 H   0  0  0  0  0  0  0  0  0  0  0  0
   -4.8456   -2.9745   -0.9377 H   0  0  0  0  0  0  0  0  0  0  0  0
   -7.3338   -2.8746   -0.7765 H   0  0  0  0  0  0  0  0  0  0  0  0
   -2.2601    0.4341   -1.4855 H   0  0  0  0  0  0  0  0  0  0  0  0
    0.4096   -2.4110    0.2689 H   0  0  0  0  0  0  0  0  0  0  0  0
   -3.6800   -2.5556    1.1238 H   0  0  0  0  0  0  0  0  0  0  0  0
    4.1809   -1.5496   -0.6064 H   0  0  0  0  0  0  0  0  0  0  0  0
    8.4134   -0.0285   -1.2479 H   0  0  0  0  0  0  0  0  0  0  0  0
    8.5942    1.6134   -0.7000 H   0  0  0  0  0  0  0  0  0  0  0  0
    8.2794   -0.9599    0.7854 H   0  0  0  0  0  0  0  0  0  0  0  0
    8.1409    0.4872    1.5981 H   0  0  0  0  0  0  0  0  0  0  0  0
    6.3281    2.7651    1.3534 H   0  0  0  0  0  0  0  0  0  0  0  0
    5.9771    3.8671    0.0129 H   0  0  0  0  0  0  0  0  0  0  0  0
    7.6253    3.1292    0.1322 H   0  0  0  0  0  0  0  0  0  0  0  0
    4.0454    2.7065   -0.6356 H   0  0  0  0  0  0  0  0  0  0  0  0
  1  2  1  0
  2  3  1  0
  3  4  2  0
  4  5  1  0
  5  6  2  0
  6  7  1  0
  7  8  2  0
  5  9  1  0
  9 10  2  0
 10 11  1  0
 11 12  2  0
 12 13  1  0
 13 14  2  0
 13 15  1  0
 15 16  1  0
 15 17  1  0
 15 18  1  0
 11 19  1  0
 19 20  2  0
 20 21  1  0
 21 22  2  0
 22 23  1  0
 21 24  1  0
 24 25  2  0
 25 26  1  0
 26 27  2  0
 27 28  1  0
 28 29  1  0
 27 30  1  0
 30 31  1  0
 30 32  2  0
  8  3  1  0
 14  9  1  0
 23 19  1  0
 32 24  1  0
  1 33  1  0
  1 34  1  0
  1 35  1  0
  2 36  1  0
  2 37  1  0
  4 38  1  0
  6 39  1  0
  7 40  1  0
 10 41  1  0
 12 42  1  0
 14 43  1  0
 25 44  1  0
 28 45  1  0
 28 46  1  0
 29 47  1  0
 29 48  1  0
 31 49  1  0
 31 50  1  0
 31 51  1  0
 32 52  1  0
M  END
$$$$
[H]OC(=O)C([H])([H])[C@@]1([H])S[C@]([H])(C(=O)N([H])[H])N1[C@@]1([H])C(=O)O[C@]1(OC(=O)C(C([H])([H])[H])(C([H])([H])[H])C([H])([H])[H])C([H])([H])[H]
     RDKit          3D

 44 45  0  0  0  0  0  0  0  0999 V2000
    2.9512   -0.6198   -1.5768 C   0  0  0  0  0  0  0  0  0  0  0  0
    3.0910    0.5793   -0.6523 C   0  0  0  0  0  0  0  0  0  0  0  0
    3.4924    1.8127   -1.3958 C   0  0  0  0  0  0  0  0  0  0  0  0
    4.1950    0.2356    0.3329 C   0  0  0  0  0  0  0  0  0  0  0  0
    1.8106    0.8030    0.0892 C   0  0  0  0  0  0  0  0  0  0  0  0
    1.1695    1.8764   -0.0142 O   0  0  0  0  0  0  0  0  0  0  0  0
    1.3107   -0.1667    0.9005 O   0  0  0  0  0  0  0  0  0  0  0  0
    0.1577   -0.1713    1.6523 C   0  0  1  0  0  0  0  0  0  0  0  0
   -0.0550    0.9192    2.6732 C   0  0  0  0  0  0  0  0  0  0  0  0
   -1.0501   -0.9473    1.2017 C   0  0  1  0  0  0  0  0  0  0  0  0
   -1.5652   -0.8116   -0.0832 N   0  0  0  0  0  0  0  0  0  0  0  0
   -2.0570    0.4986   -0.4521 C   0  0  1  0  0  0  0  0  0  0  0  0
   -1.9431    0.8576   -1.8959 C   0  0  0  0  0  0  0  0  0  0  0  0
   -2.4906    2.2218   -2.0948 C   0  0  0  0  0  0  0  0  0  0  0  0
   -3.0083    2.9310   -1.0228 O   0  0  0  0  0  0  0  0  0  0  0  0
   -2.5114    2.7904   -3.2249 O   0  0  0  0  0  0  0  0  0  0  0  0
   -3.7396    0.1394    0.0262 S   0  0  0  0  0  0  0  0  0  0  0  0
   -2.8026   -1.4004   -0.3920 C   0  0  2  0  0  0  0  0  0  0  0  0
   -3.4021   -2.4885    0.3616 C   0  0  0  0  0  0  0  0  0  0  0  0
   -2.9781   -3.1461    1.5232 N   0  0  0  0  0  0  0  0  0  0  0  0
   -4.5211   -2.9324   -0.1152 O   0  0  0  0  0  0  0  0  0  0  0  0
   -0.0055   -2.0312    1.3176 C   0  0  0  0  0  0  0  0  0  0  0  0
    0.4224   -3.0226    0.7230 O   0  0  0  0  0  0  0  0  0  0  0  0
    0.3296   -1.3974    2.5031 O   0  0  0  0  0  0  0  0  0  0  0  0
    3.0047   -1.5660   -0.9829 H   0  0  0  0  0  0  0  0  0  0  0  0
    3.7691   -0.6381   -2.3021 H   0  0  0  0  0  0  0  0  0  0  0  0
    1.9641   -0.6317   -2.0887 H   0  0  0  0  0  0  0  0  0  0  0  0
    4.5533    2.1120   -1.1715 H   0  0  0  0  0  0  0  0  0  0  0  0
    3.4761    1.6557   -2.5124 H   0  0  0  0  0  0  0  0  0  0  0  0
    2.8820    2.7126   -1.1128 H   0  0  0  0  0  0  0  0  0  0  0  0
    5.1550    0.1860   -0.1836 H   0  0  0  0  0  0  0  0  0  0  0  0
    3.9426   -0.7355    0.8389 H   0  0  0  0  0  0  0  0  0  0  0  0
    4.1891    1.0347    1.1144 H   0  0  0  0  0  0  0  0  0  0  0  0
   -0.4475    1.8529    2.2457 H   0  0  0  0  0  0  0  0  0  0  0  0
    0.8986    1.0506    3.2111 H   0  0  0  0  0  0  0  0  0  0  0  0
   -0.7976    0.5799    3.4284 H   0  0  0  0  0  0  0  0  0  0  0  0
   -1.7816   -0.9453    2.0519 H   0  0  0  0  0  0  0  0  0  0  0  0
   -1.6591    1.3324    0.1751 H   0  0  0  0  0  0  0  0  0  0  0  0
   -0.8517    0.8190   -2.1786 H   0  0  0  0  0  0  0  0  0  0  0  0
   -2.4862    0.1639   -2.5692 H   0  0  0  0  0  0  0  0  0  0  0  0
   -3.9874    2.7809   -0.7700 H   0  0  0  0  0  0  0  0  0  0  0  0
   -2.9686   -1.5216   -1.5340 H   0  0  0  0  0  0  0  0  0  0  0  0
   -2.3961   -4.0225    1.5009 H   0  0  0  0  0  0  0  0  0  0  0  0
   -3.2590   -2.7495    2.4548 H   0  0  0  0  0  0  0  0  0  0  0  0
  1  2  1  0
  2  3  1  0
  2  4  1  0
  2  5  1  0
  5  6  2  0
  5  7  1  0
  8  7  1  6
  8  9  1  0
  8 10  1  0
 10 11  1  0
 11 12  1  0
 12 13  1  0
 13 14  1  0
 14 15  1  0
 14 16  2  0
 12 17  1  0
 17 18  1  0
 18 19  1  0
 19 20  1  0
 19 21  2  0
 10 22  1  0
 22 23  2  0
 22 24  1  0
 24  8  1  0
 18 11  1  0
  1 25  1  0
  1 26  1  0
  1 27  1  0
  3 28  1  0
  3 29  1  0
  3 30  1  0
  4 31  1  0
  4 32  1  0
  4 33  1  0
  9 34  1  0
  9 35  1  0
  9 36  1  0
 10 37  1  1
 12 38  1  1
 13 39  1  0
 13 40  1  0
 15 41  1  0
 18 42  1  6
 20 43  1  0
 20 44  1  0
M  END
$$$$
[H]c1nc(N([H])[H])c(-c2c([H])c([H])c(OC([H])([H])C([H])([H])N3C([H])([H])C([H])([H])OC([H])([H])C3([H])[H])c([H])c2[H])nc1C([H])([H])c1oc(-c2c([H])c([H])c([N+](=O)[O-])c([H])c2[H])c([H])c1[H]
     RDKit          3D

 64 68  0  0  0  0  0  0  0  0999 V2000
   10.5979    3.3241   -0.4449 O   0  0  0  0  0  0  0  0  0  0  0  0
    9.8574    3.0995    0.6658 N   0  0  0  0  0  0  0  0  0  0  0  0
   10.1169    3.6601    1.7263 O   0  0  0  0  0  0  0  0  0  0  0  0
    8.7618    2.2032    0.6124 C   0  0  0  0  0  0  0  0  0  0  0  0
    7.9798    1.9419    1.7169 C   0  0  0  0  0  0  0  0  0  0  0  0
    6.9078    1.0759    1.6964 C   0  0  0  0  0  0  0  0  0  0  0  0
    6.5863    0.4302    0.5226 C   0  0  0  0  0  0  0  0  0  0  0  0
    7.3592    0.6816   -0.5902 C   0  0  0  0  0  0  0  0  0  0  0  0
    8.4311    1.5467   -0.5718 C   0  0  0  0  0  0  0  0  0  0  0  0
    5.4586   -0.4841    0.4898 C   0  0  0  0  0  0  0  0  0  0  0  0
    4.6324   -0.8087    1.5286 C   0  0  0  0  0  0  0  0  0  0  0  0
    3.7126   -1.7148    1.0078 C   0  0  0  0  0  0  0  0  0  0  0  0
    4.0325   -1.8868   -0.3114 C   0  0  0  0  0  0  0  0  0  0  0  0
    3.3384   -2.7524   -1.2652 C   0  0  0  0  0  0  0  0  0  0  0  0
    2.2253   -2.0333   -1.9718 C   0  0  0  0  0  0  0  0  0  0  0  0
    2.4360   -1.3449   -3.1508 C   0  0  0  0  0  0  0  0  0  0  0  0
    1.4196   -0.7091   -3.7647 N   0  0  0  0  0  0  0  0  0  0  0  0
    0.1585   -0.7147   -3.2617 C   0  0  0  0  0  0  0  0  0  0  0  0
   -0.8944   -0.0305   -3.9267 N   0  0  0  0  0  0  0  0  0  0  0  0
   -0.0656   -1.3978   -2.0864 C   0  0  0  0  0  0  0  0  0  0  0  0
    0.9751   -2.0344   -1.4801 N   0  0  0  0  0  0  0  0  0  0  0  0
   -1.3872   -1.4653   -1.4515 C   0  0  0  0  0  0  0  0  0  0  0  0
   -2.5070   -1.7518   -2.1641 C   0  0  0  0  0  0  0  0  0  0  0  0
   -3.7065   -1.7903   -1.4990 C   0  0  0  0  0  0  0  0  0  0  0  0
   -3.7943   -1.5439   -0.1239 C   0  0  0  0  0  0  0  0  0  0  0  0
   -5.0007   -1.5911    0.5150 O   0  0  0  0  0  0  0  0  0  0  0  0
   -5.4009   -1.3857    1.7957 C   0  0  0  0  0  0  0  0  0  0  0  0
   -5.2354   -0.0386    2.4071 C   0  0  0  0  0  0  0  0  0  0  0  0
   -5.9324    1.0114    1.7381 N   0  0  0  0  0  0  0  0  0  0  0  0
   -7.3522    0.9732    1.8005 C   0  0  0  0  0  0  0  0  0  0  0  0
   -7.8664    1.9149    0.7023 C   0  0  0  0  0  0  0  0  0  0  0  0
   -7.1493    3.0971    0.8536 O   0  0  0  0  0  0  0  0  0  0  0  0
   -5.8534    2.9639    0.3750 C   0  0  0  0  0  0  0  0  0  0  0  0
   -5.3525    1.5313    0.5547 C   0  0  0  0  0  0  0  0  0  0  0  0
   -2.6558   -1.2552    0.5910 C   0  0  0  0  0  0  0  0  0  0  0  0
   -1.4538   -1.2171   -0.0800 C   0  0  0  0  0  0  0  0  0  0  0  0
    5.0668   -1.1417   -0.5685 O   0  0  0  0  0  0  0  0  0  0  0  0
    8.2126    2.4398    2.6579 H   0  0  0  0  0  0  0  0  0  0  0  0
    6.2889    0.8688    2.5687 H   0  0  0  0  0  0  0  0  0  0  0  0
    7.1347    0.1876   -1.5385 H   0  0  0  0  0  0  0  0  0  0  0  0
    9.0481    1.7507   -1.4494 H   0  0  0  0  0  0  0  0  0  0  0  0
    4.6349   -0.4739    2.5526 H   0  0  0  0  0  0  0  0  0  0  0  0
    2.8948   -2.1879    1.5703 H   0  0  0  0  0  0  0  0  0  0  0  0
    2.8816   -3.6594   -0.7829 H   0  0  0  0  0  0  0  0  0  0  0  0
    4.0040   -3.1275   -2.0815 H   0  0  0  0  0  0  0  0  0  0  0  0
    3.4548   -1.3508   -3.5409 H   0  0  0  0  0  0  0  0  0  0  0  0
   -1.5413    0.5530   -3.3558 H   0  0  0  0  0  0  0  0  0  0  0  0
   -1.0618   -0.0749   -4.9477 H   0  0  0  0  0  0  0  0  0  0  0  0
   -2.4353   -1.9475   -3.2302 H   0  0  0  0  0  0  0  0  0  0  0  0
   -4.6121   -2.0101   -2.0131 H   0  0  0  0  0  0  0  0  0  0  0  0
   -6.4488   -1.7688    1.9877 H   0  0  0  0  0  0  0  0  0  0  0  0
   -4.7870   -2.0878    2.4558 H   0  0  0  0  0  0  0  0  0  0  0  0
   -5.7348   -0.1151    3.4317 H   0  0  0  0  0  0  0  0  0  0  0  0
   -4.2287    0.2895    2.6229 H   0  0  0  0  0  0  0  0  0  0  0  0
   -7.8063   -0.0163    1.7406 H   0  0  0  0  0  0  0  0  0  0  0  0
   -7.6645    1.4528    2.7602 H   0  0  0  0  0  0  0  0  0  0  0  0
   -7.6129    1.4241   -0.2620 H   0  0  0  0  0  0  0  0  0  0  0  0
   -8.9516    2.0779    0.7813 H   0  0  0  0  0  0  0  0  0  0  0  0
   -5.1565    3.6497    0.8892 H   0  0  0  0  0  0  0  0  0  0  0  0
   -5.8592    3.2617   -0.6947 H   0  0  0  0  0  0  0  0  0  0  0  0
   -5.6207    1.0061   -0.3826 H   0  0  0  0  0  0  0  0  0  0  0  0
   -4.2520    1.5528    0.6842 H   0  0  0  0  0  0  0  0  0  0  0  0
   -2.6590   -1.0688    1.6562 H   0  0  0  0  0  0  0  0  0  0  0  0
   -0.5681   -0.9882    0.4972 H   0  0  0  0  0  0  0  0  0  0  0  0
  1  2  1  0
  2  3  2  0
  2  4  1  0
  4  5  2  0
  5  6  1  0
  6  7  2  0
  7  8  1  0
  8  9  2  0
  7 10  1  0
 10 11  2  0
 11 12  1  0
 12 13  2  0
 13 14  1  0
 14 15  1  0
 15 16  2  0
 16 17  1  0
 17 18  2  0
 18 19  1  0
 18 20  1  0
 20 21  2  0
 20 22  1  0
 22 23  2  0
 23 24  1  0
 24 25  2  0
 25 26  1  0
 26 27  1  0
 27 28  1  0
 28 29  1  0
 29 30  1  0
 30 31  1  0
 31 32  1  0
 32 33  1  0
 33 34  1  0
 25 35  1  0
 35 36  2  0
 13 37  1  0
  9  4  1  0
 37 10  1  0
 21 15  1  0
 36 22  1  0
 34 29  1  0
  5 38  1  0
  6 39  1  0
  8 40  1  0
  9 41  1  0
 11 42  1  0
 12 43  1  0
 14 44  1  0
 14 45  1  0
 16 46  1  0
 19 47  1  0
 19 48  1  0
 23 49  1  0
 24 50  1  0
 27 51  1  0
 27 52  1  0
 28 53  1  0
 28 54  1  0
 30 55  1  0
 30 56  1  0
 31 57  1  0
 31 58  1  0
 33 59  1  0
 33 60  1  0
 34 61  1  0
 34 62  1  0
 35 63  1  0
 36 64  1  0
M  CHG  2   1  -1   2   1
M  END
$$$$
[H]c1nc(N([H])C(=O)c2c([H])c([H])c(-c3nc([C@@]4([H])C([H])([H])N(C([H])([H])C(=O)N([H])[H])C([H])([H])C([H])([H])C4([H])[H])n4c([H])c([H])nc(N([H])[H])c34)c([H])c2[H])c([H])c(C(F)(F)F)c1[H]
     RDKit          3D

 64 68  0  0  0  0  0  0  0  0999 V2000
   -6.4151    4.1320    1.8318 N   0  0  0  0  0  0  0  0  0  0  0  0
   -6.4247    2.7709    1.3614 C   0  0  0  0  0  0  0  0  0  0  0  0
   -7.1967    2.3304    0.4987 O   0  0  0  0  0  0  0  0  0  0  0  0
   -5.4381    1.8729    1.9664 C   0  0  0  0  0  0  0  0  0  0  0  0
   -5.3741    0.5527    1.4864 N   0  0  0  0  0  0  0  0  0  0  0  0
   -6.3817   -0.3670    1.6767 C   0  0  0  0  0  0  0  0  0  0  0  0
   -6.2087   -1.7411    1.1039 C   0  0  0  0  0  0  0  0  0  0  0  0
   -5.3940   -1.5565   -0.2145 C   0  0  0  0  0  0  0  0  0  0  0  0
   -4.0671   -1.1532    0.2464 C   0  0  2  0  0  0  0  0  0  0  0  0
   -4.1552    0.2273    0.9193 C   0  0  0  0  0  0  0  0  0  0  0  0
   -2.9031   -1.1835   -0.6316 C   0  0  0  0  0  0  0  0  0  0  0  0
   -1.6427   -1.4021   -0.1148 N   0  0  0  0  0  0  0  0  0  0  0  0
   -0.7194   -1.2784   -1.1184 C   0  0  0  0  0  0  0  0  0  0  0  0
    0.7125   -1.3532   -0.8706 C   0  0  0  0  0  0  0  0  0  0  0  0
    1.3186   -2.4271   -0.3283 C   0  0  0  0  0  0  0  0  0  0  0  0
    2.6508   -2.3673    0.1088 C   0  0  0  0  0  0  0  0  0  0  0  0
    3.4013   -1.2281    0.0090 C   0  0  0  0  0  0  0  0  0  0  0  0
    2.7928   -0.0961   -0.5626 C   0  0  0  0  0  0  0  0  0  0  0  0
    1.4892   -0.1857   -0.9794 C   0  0  0  0  0  0  0  0  0  0  0  0
    4.7300   -1.1223    0.5878 C   0  0  0  0  0  0  0  0  0  0  0  0
    5.0628   -1.9286    1.4868 O   0  0  0  0  0  0  0  0  0  0  0  0
    5.6053   -0.1246    0.1469 N   0  0  0  0  0  0  0  0  0  0  0  0
    6.8405    0.1634    0.7768 C   0  0  0  0  0  0  0  0  0  0  0  0
    7.7117    1.1141    0.3140 C   0  0  0  0  0  0  0  0  0  0  0  0
    8.8742    1.4514    0.9768 C   0  0  0  0  0  0  0  0  0  0  0  0
    9.1959    0.8198    2.1482 C   0  0  0  0  0  0  0  0  0  0  0  0
    8.3061   -0.1555    2.6212 C   0  0  0  0  0  0  0  0  0  0  0  0
    7.2037   -0.4377    1.9446 N   0  0  0  0  0  0  0  0  0  0  0  0
    9.7758    2.5050    0.4187 C   0  0  0  0  0  0  0  0  0  0  0  0
    8.9785    3.6142    0.2395 F   0  0  0  0  0  0  0  0  0  0  0  0
   10.2101    2.0161   -0.8054 F   0  0  0  0  0  0  0  0  0  0  0  0
   10.8173    2.7519    1.2800 F   0  0  0  0  0  0  0  0  0  0  0  0
   -1.4390   -0.9956   -2.2337 C   0  0  0  0  0  0  0  0  0  0  0  0
   -1.0586   -0.7699   -3.5481 C   0  0  0  0  0  0  0  0  0  0  0  0
    0.3118   -0.8777   -3.8738 N   0  0  0  0  0  0  0  0  0  0  0  0
   -1.9866   -0.5006   -4.4777 N   0  0  0  0  0  0  0  0  0  0  0  0
   -3.2843   -0.4482   -4.1540 C   0  0  0  0  0  0  0  0  0  0  0  0
   -3.7157   -0.6669   -2.8523 C   0  0  0  0  0  0  0  0  0  0  0  0
   -2.7864   -0.9365   -1.9265 N   0  0  0  0  0  0  0  0  0  0  0  0
   -5.6583    4.7958    1.4789 H   0  0  0  0  0  0  0  0  0  0  0  0
   -7.1285    4.4401    2.4972 H   0  0  0  0  0  0  0  0  0  0  0  0
   -5.4687    1.8495    3.0746 H   0  0  0  0  0  0  0  0  0  0  0  0
   -4.4316    2.3531    1.7414 H   0  0  0  0  0  0  0  0  0  0  0  0
   -7.4080   -0.0099    1.3369 H   0  0  0  0  0  0  0  0  0  0  0  0
   -6.5685   -0.5308    2.7778 H   0  0  0  0  0  0  0  0  0  0  0  0
   -5.7485   -2.4714    1.7589 H   0  0  0  0  0  0  0  0  0  0  0  0
   -7.1740   -2.2008    0.7478 H   0  0  0  0  0  0  0  0  0  0  0  0
   -6.0007   -0.7550   -0.7073 H   0  0  0  0  0  0  0  0  0  0  0  0
   -5.4230   -2.4623   -0.8270 H   0  0  0  0  0  0  0  0  0  0  0  0
   -3.8168   -1.8062    1.1569 H   0  0  0  0  0  0  0  0  0  0  0  0
   -3.3135    0.3153    1.6361 H   0  0  0  0  0  0  0  0  0  0  0  0
   -3.9171    0.9374    0.1008 H   0  0  0  0  0  0  0  0  0  0  0  0
    0.8201   -3.3652   -0.2236 H   0  0  0  0  0  0  0  0  0  0  0  0
    3.0777   -3.2931    0.5372 H   0  0  0  0  0  0  0  0  0  0  0  0
    3.3913    0.7951   -0.6365 H   0  0  0  0  0  0  0  0  0  0  0  0
    1.0385    0.6793   -1.3968 H   0  0  0  0  0  0  0  0  0  0  0  0
    5.3146    0.5245   -0.6198 H   0  0  0  0  0  0  0  0  0  0  0  0
    7.4523    1.6029   -0.6380 H   0  0  0  0  0  0  0  0  0  0  0  0
   10.0962    1.0536    2.7005 H   0  0  0  0  0  0  0  0  0  0  0  0
    8.5947   -0.6364    3.5708 H   0  0  0  0  0  0  0  0  0  0  0  0
    0.9867   -0.1243   -4.0591 H   0  0  0  0  0  0  0  0  0  0  0  0
    0.6803   -1.8600   -3.9453 H   0  0  0  0  0  0  0  0  0  0  0  0
   -4.0207   -0.2315   -4.9060 H   0  0  0  0  0  0  0  0  0  0  0  0
   -4.7719   -0.6186   -2.6148 H   0  0  0  0  0  0  0  0  0  0  0  0
  1  2  1  0
  2  3  2  0
  2  4  1  0
  4  5  1  0
  5  6  1  0
  6  7  1  0
  7  8  1  0
  8  9  1  0
  9 10  1  0
  9 11  1  0
 11 12  2  0
 12 13  1  0
 13 14  1  0
 14 15  2  0
 15 16  1  0
 16 17  2  0
 17 18  1  0
 18 19  2  0
 17 20  1  0
 20 21  2  0
 20 22  1  0
 22 23  1  0
 23 24  2  0
 24 25  1  0
 25 26  2  0
 26 27  1  0
 27 28  2  0
 25 29  1  0
 29 30  1  0
 29 31  1  0
 29 32  1  0
 13 33  2  0
 33 34  1  0
 34 35  1  0
 34 36  2  0
 36 37  1  0
 37 38  2  0
 38 39  1  0
 10  5  1  0
 39 11  1  0
 19 14  1  0
 28 23  1  0
 39 33  1  0
  1 40  1  0
  1 41  1  0
  4 42  1  0
  4 43  1  0
  6 44  1  0
  6 45  1  0
  7 46  1  0
  7 47  1  0
  8 48  1  0
  8 49  1  0
  9 50  1  1
 10 51  1  0
 10 52  1  0
 15 53  1  0
 16 54  1  0
 18 55  1  0
 19 56  1  0
 22 57  1  0
 24 58  1  0
 26 59  1  0
 27 60  1  0
 35 61  1  0
 35 62  1  0
 37 63  1  0
 38 64  1  0
M  END
$$$$
[H]OC(=O)c1nn(C([H])([H])C(=O)N2C([H])([H])C([H])([H])C([H])(N([H])c3c([H])c([H])c(OC([H])([H])[H])c([H])c3[H])C([H])([H])C2([H])[H])c(C([H])([H])[H])c1[H]
     RDKit          3D

 51 53  0  0  0  0  0  0  0  0999 V2000
    8.3542   -1.1453   -0.1971 C   0  0  0  0  0  0  0  0  0  0  0  0
    7.0565   -1.6482   -0.0160 O   0  0  0  0  0  0  0  0  0  0  0  0
    5.9301   -0.8215    0.0300 C   0  0  0  0  0  0  0  0  0  0  0  0
    6.0566    0.5448   -0.1030 C   0  0  0  0  0  0  0  0  0  0  0  0
    4.9496    1.3675   -0.0590 C   0  0  0  0  0  0  0  0  0  0  0  0
    3.6580    0.8697    0.1200 C   0  0  0  0  0  0  0  0  0  0  0  0
    2.5767    1.7917    0.1591 N   0  0  0  0  0  0  0  0  0  0  0  0
    1.1762    1.4643    0.1925 C   0  0  0  0  0  0  0  0  0  0  0  0
    0.7177    0.7530   -1.0290 C   0  0  0  0  0  0  0  0  0  0  0  0
   -0.6038    0.0504   -0.9021 C   0  0  0  0  0  0  0  0  0  0  0  0
   -1.1829    0.2316    0.4115 N   0  0  0  0  0  0  0  0  0  0  0  0
   -0.2918   -0.1447    1.4916 C   0  0  0  0  0  0  0  0  0  0  0  0
    0.7783    0.9054    1.5146 C   0  0  0  0  0  0  0  0  0  0  0  0
   -2.4712    0.7219    0.6870 C   0  0  0  0  0  0  0  0  0  0  0  0
   -2.8212    0.8430    1.8960 O   0  0  0  0  0  0  0  0  0  0  0  0
   -3.4822    1.1201   -0.3124 C   0  0  0  0  0  0  0  0  0  0  0  0
   -4.5670    0.1322   -0.2532 N   0  0  0  0  0  0  0  0  0  0  0  0
   -4.5962   -0.9996   -0.9271 N   0  0  0  0  0  0  0  0  0  0  0  0
   -5.7125   -1.6606   -0.6239 C   0  0  0  0  0  0  0  0  0  0  0  0
   -6.4130   -0.9001    0.2844 C   0  0  0  0  0  0  0  0  0  0  0  0
   -5.6658    0.2328    0.5040 C   0  0  0  0  0  0  0  0  0  0  0  0
   -6.0602    1.3143    1.4024 C   0  0  0  0  0  0  0  0  0  0  0  0
   -6.1011   -2.9543   -1.1650 C   0  0  0  0  0  0  0  0  0  0  0  0
   -5.2697   -3.5788   -2.0726 O   0  0  0  0  0  0  0  0  0  0  0  0
   -7.2040   -3.4962   -0.7951 O   0  0  0  0  0  0  0  0  0  0  0  0
    3.5357   -0.4853    0.2520 C   0  0  0  0  0  0  0  0  0  0  0  0
    4.6626   -1.3231    0.2069 C   0  0  0  0  0  0  0  0  0  0  0  0
    9.0566   -2.0057   -0.1853 H   0  0  0  0  0  0  0  0  0  0  0  0
    8.3745   -0.6346   -1.1925 H   0  0  0  0  0  0  0  0  0  0  0  0
    8.5608   -0.4249    0.6189 H   0  0  0  0  0  0  0  0  0  0  0  0
    7.0635    0.9532   -0.2428 H   0  0  0  0  0  0  0  0  0  0  0  0
    5.0628    2.4336   -0.1639 H   0  0  0  0  0  0  0  0  0  0  0  0
    2.8041    2.8441    0.1686 H   0  0  0  0  0  0  0  0  0  0  0  0
    0.6402    2.4721    0.1450 H   0  0  0  0  0  0  0  0  0  0  0  0
    0.6000    1.4776   -1.8900 H   0  0  0  0  0  0  0  0  0  0  0  0
    1.4655    0.0428   -1.3909 H   0  0  0  0  0  0  0  0  0  0  0  0
   -0.4343   -1.0625   -0.9951 H   0  0  0  0  0  0  0  0  0  0  0  0
   -1.2811    0.2884   -1.7366 H   0  0  0  0  0  0  0  0  0  0  0  0
    0.1364   -1.1538    1.3098 H   0  0  0  0  0  0  0  0  0  0  0  0
   -0.8197   -0.1629    2.4447 H   0  0  0  0  0  0  0  0  0  0  0  0
    1.6601    0.5198    2.0524 H   0  0  0  0  0  0  0  0  0  0  0  0
    0.3801    1.7150    2.2005 H   0  0  0  0  0  0  0  0  0  0  0  0
   -3.0255    1.1987   -1.2946 H   0  0  0  0  0  0  0  0  0  0  0  0
   -3.8886    2.1141    0.0323 H   0  0  0  0  0  0  0  0  0  0  0  0
   -7.3785   -1.1632    0.7358 H   0  0  0  0  0  0  0  0  0  0  0  0
   -6.1906    0.8879    2.4368 H   0  0  0  0  0  0  0  0  0  0  0  0
   -5.3395    2.1509    1.4599 H   0  0  0  0  0  0  0  0  0  0  0  0
   -7.0468    1.7689    1.0990 H   0  0  0  0  0  0  0  0  0  0  0  0
   -4.5098   -4.1347   -1.6643 H   0  0  0  0  0  0  0  0  0  0  0  0
    2.5540   -0.9229    0.4042 H   0  0  0  0  0  0  0  0  0  0  0  0
    4.5465   -2.3872    0.3119 H   0  0  0  0  0  0  0  0  0  0  0  0
  1  2  1  0
  2  3  1  0
  3  4  2  0
  4  5  1  0
  5  6  2  0
  6  7  1  0
  7  8  1  0
  8  9  1  0
  9 10  1  0
 10 11  1  0
 11 12  1  0
 12 13  1  0
 11 14  1  0
 14 15  2  0
 14 16  1  0
 16 17  1  0
 17 18  1  0
 18 19  2  0
 19 20  1  0
 20 21  2  0
 21 22  1  0
 19 23  1  0
 23 24  1  0
 23 25  2  0
  6 26  1  0
 26 27  2  0
 27  3  1  0
 13  8  1  0
 21 17  1  0
  1 28  1  0
  1 29  1  0
  1 30  1  0
  4 31  1  0
  5 32  1  0
  7 33  1  0
  8 34  1  0
  9 35  1  0
  9 36  1  0
 10 37  1  0
 10 38  1  0
 12 39  1  0
 12 40  1  0
 13 41  1  0
 13 42  1  0
 16 43  1  0
 16 44  1  0
 20 45  1  0
 22 46  1  0
 22 47  1  0
 22 48  1  0
 24 49  1  0
 26 50  1  0
 27 51  1  0
M  END
$$$$
[H]c1nc2c(c([H])c1[H])c(-c1c([H])c([H])c3c(c(N([H])[H])nn3[H])c1[H])c([H])n2[C@]1([H])C([H])([H])OC([H])([H])C([H])([H])C1([H])[H]
     RDKit          3D

 44 48  0  0  0  0  0  0  0  0999 V2000
    5.4745    0.6764   -1.8966 N   0  0  0  0  0  0  0  0  0  0  0  0
    5.2075   -0.5253   -1.1838 C   0  0  0  0  0  0  0  0  0  0  0  0
    6.0235   -1.5655   -0.9650 N   0  0  0  0  0  0  0  0  0  0  0  0
    5.4194   -2.4988   -0.2606 N   0  0  0  0  0  0  0  0  0  0  0  0
    4.1674   -2.1086    0.0170 C   0  0  0  0  0  0  0  0  0  0  0  0
    3.1085   -2.6966    0.7188 C   0  0  0  0  0  0  0  0  0  0  0  0
    1.9332   -1.9834    0.8030 C   0  0  0  0  0  0  0  0  0  0  0  0
    1.7675   -0.7273    0.2272 C   0  0  0  0  0  0  0  0  0  0  0  0
    2.8075   -0.1622   -0.4558 C   0  0  0  0  0  0  0  0  0  0  0  0
    4.0145   -0.8635   -0.5581 C   0  0  0  0  0  0  0  0  0  0  0  0
    0.5127    0.0049    0.3287 C   0  0  0  0  0  0  0  0  0  0  0  0
   -0.7760   -0.4628    0.1256 C   0  0  0  0  0  0  0  0  0  0  0  0
   -1.6711    0.5150    0.3096 N   0  0  0  0  0  0  0  0  0  0  0  0
   -3.1271    0.4253    0.1895 C   0  0  1  0  0  0  0  0  0  0  0  0
   -3.5430    0.1102   -1.2126 C   0  0  0  0  0  0  0  0  0  0  0  0
   -5.0305   -0.1917   -1.1988 C   0  0  0  0  0  0  0  0  0  0  0  0
   -5.2189   -1.4096   -0.3004 C   0  0  0  0  0  0  0  0  0  0  0  0
   -4.8903   -1.0185    0.9828 O   0  0  0  0  0  0  0  0  0  0  0  0
   -3.5658   -0.6890    1.1121 C   0  0  0  0  0  0  0  0  0  0  0  0
   -0.9837    1.6335    0.6349 C   0  0  0  0  0  0  0  0  0  0  0  0
   -1.4347    2.8753    0.9153 N   0  0  0  0  0  0  0  0  0  0  0  0
   -0.5642    3.8666    1.2219 C   0  0  0  0  0  0  0  0  0  0  0  0
    0.7959    3.6480    1.2588 C   0  0  0  0  0  0  0  0  0  0  0  0
    1.2505    2.3684    0.9692 C   0  0  0  0  0  0  0  0  0  0  0  0
    0.3790    1.3366    0.6522 C   0  0  0  0  0  0  0  0  0  0  0  0
    6.4194    1.1200   -1.7900 H   0  0  0  0  0  0  0  0  0  0  0  0
    4.7547    1.0976   -2.5017 H   0  0  0  0  0  0  0  0  0  0  0  0
    5.8117   -3.4268    0.0623 H   0  0  0  0  0  0  0  0  0  0  0  0
    3.2532   -3.6665    1.1571 H   0  0  0  0  0  0  0  0  0  0  0  0
    1.0862   -2.3892    1.3316 H   0  0  0  0  0  0  0  0  0  0  0  0
    2.7778    0.8078   -0.9397 H   0  0  0  0  0  0  0  0  0  0  0  0
   -0.9837   -1.4971   -0.1465 H   0  0  0  0  0  0  0  0  0  0  0  0
   -3.5796    1.3566    0.5747 H   0  0  0  0  0  0  0  0  0  0  0  0
   -3.0153   -0.8103   -1.5335 H   0  0  0  0  0  0  0  0  0  0  0  0
   -3.3146    0.9488   -1.9007 H   0  0  0  0  0  0  0  0  0  0  0  0
   -5.4273   -0.3803   -2.1989 H   0  0  0  0  0  0  0  0  0  0  0  0
   -5.5531    0.6611   -0.6822 H   0  0  0  0  0  0  0  0  0  0  0  0
   -4.5420   -2.2001   -0.6609 H   0  0  0  0  0  0  0  0  0  0  0  0
   -6.2865   -1.6878   -0.3124 H   0  0  0  0  0  0  0  0  0  0  0  0
   -3.4089   -0.3019    2.1558 H   0  0  0  0  0  0  0  0  0  0  0  0
   -2.9147   -1.5850    1.0269 H   0  0  0  0  0  0  0  0  0  0  0  0
   -0.9557    4.8493    1.4415 H   0  0  0  0  0  0  0  0  0  0  0  0
    1.5226    4.4032    1.4968 H   0  0  0  0  0  0  0  0  0  0  0  0
    2.2995    2.1433    0.9848 H   0  0  0  0  0  0  0  0  0  0  0  0
  1  2  1  0
  2  3  2  0
  3  4  1  0
  4  5  1  0
  5  6  2  0
  6  7  1  0
  7  8  2  0
  8  9  1  0
  9 10  2  0
  8 11  1  0
 11 12  2  0
 12 13  1  0
 13 14  1  0
 14 15  1  0
 15 16  1  0
 16 17  1  0
 17 18  1  0
 18 19  1  0
 13 20  1  0
 20 21  2  0
 21 22  1  0
 22 23  2  0
 23 24  1  0
 24 25  2  0
 10  2  1  0
 25 11  1  0
 10  5  1  0
 19 14  1  0
 25 20  1  0
  1 26  1  0
  1 27  1  0
  4 28  1  0
  6 29  1  0
  7 30  1  0
  9 31  1  0
 12 32  1  0
 14 33  1  1
 15 34  1  0
 15 35  1  0
 16 36  1  0
 16 37  1  0
 17 38  1  0
 17 39  1  0
 19 40  1  0
 19 41  1  0
 22 42  1  0
 23 43  1  0
 24 44  1  0
M  END
$$$$
[H]ON([H])C(=O)C([H])([H])C([H])([H])C([H])([H])C([H])([H])C([H])([H])C([H])([H])N([H])C(=O)c1c([H])c([H])c(C([H])([H])C2([H])N(C([H])([H])[H])C([H])([H])C([H])([H])c3c([H])c([H])c([H])c([H])c3C2([H])[H])c([H])c1[H]
     RDKit          3D

 67 69  0  0  0  0  0  0  0  0999 V2000
   -4.9456   -1.7959   -1.6232 C   0  0  0  0  0  0  0  0  0  0  0  0
   -4.4913   -0.9126   -0.6214 N   0  0  0  0  0  0  0  0  0  0  0  0
   -4.7572   -1.2943    0.7219 C   0  0  0  0  0  0  0  0  0  0  0  0
   -6.2524   -1.3591    0.9180 C   0  0  0  0  0  0  0  0  0  0  0  0
   -6.8502   -0.0056    0.8910 C   0  0  0  0  0  0  0  0  0  0  0  0
   -7.7047    0.1627    1.9876 C   0  0  0  0  0  0  0  0  0  0  0  0
   -8.3795    1.3643    2.1589 C   0  0  0  0  0  0  0  0  0  0  0  0
   -8.1869    2.3696    1.2329 C   0  0  0  0  0  0  0  0  0  0  0  0
   -7.3535    2.2320    0.1458 C   0  0  0  0  0  0  0  0  0  0  0  0
   -6.6993    1.0312    0.0034 C   0  0  0  0  0  0  0  0  0  0  0  0
   -5.8416    1.0504   -1.2112 C   0  0  0  0  0  0  0  0  0  0  0  0
   -4.4653    0.4613   -0.8926 C   0  0  0  0  0  0  0  0  0  0  0  0
   -3.4983    0.9445   -1.8985 C   0  0  0  0  0  0  0  0  0  0  0  0
   -2.0701    0.6611   -1.5427 C   0  0  0  0  0  0  0  0  0  0  0  0
   -1.4016    1.5755   -0.7771 C   0  0  0  0  0  0  0  0  0  0  0  0
   -0.0833    1.3560   -0.4347 C   0  0  0  0  0  0  0  0  0  0  0  0
    0.6008    0.2413   -0.8347 C   0  0  0  0  0  0  0  0  0  0  0  0
   -0.1019   -0.6613   -1.6058 C   0  0  0  0  0  0  0  0  0  0  0  0
   -1.4142   -0.4699   -1.9624 C   0  0  0  0  0  0  0  0  0  0  0  0
    1.9746    0.0090   -0.4745 C   0  0  0  0  0  0  0  0  0  0  0  0
    2.5983   -0.8635   -1.1168 O   0  0  0  0  0  0  0  0  0  0  0  0
    2.5870    0.7300    0.5535 N   0  0  0  0  0  0  0  0  0  0  0  0
    3.9715    0.4763    0.9073 C   0  0  0  0  0  0  0  0  0  0  0  0
    4.1610   -0.9301    1.4013 C   0  0  0  0  0  0  0  0  0  0  0  0
    5.5849   -1.1629    1.7915 C   0  0  0  0  0  0  0  0  0  0  0  0
    6.5021   -0.9604    0.6119 C   0  0  0  0  0  0  0  0  0  0  0  0
    7.9155   -1.2279    1.0538 C   0  0  0  0  0  0  0  0  0  0  0  0
    8.9506   -1.0781    0.0060 C   0  0  0  0  0  0  0  0  0  0  0  0
    9.0844    0.2590   -0.5776 C   0  0  0  0  0  0  0  0  0  0  0  0
    8.4414    1.2362   -0.1778 O   0  0  0  0  0  0  0  0  0  0  0  0
    9.9956    0.4449   -1.6540 N   0  0  0  0  0  0  0  0  0  0  0  0
   10.1703    1.6568   -2.2414 O   0  0  0  0  0  0  0  0  0  0  0  0
   -5.7892   -1.4405   -2.2121 H   0  0  0  0  0  0  0  0  0  0  0  0
   -5.2815   -2.7573   -1.1260 H   0  0  0  0  0  0  0  0  0  0  0  0
   -4.0748   -2.1258   -2.2408 H   0  0  0  0  0  0  0  0  0  0  0  0
   -4.2609   -0.6754    1.4620 H   0  0  0  0  0  0  0  0  0  0  0  0
   -4.3696   -2.3459    0.8516 H   0  0  0  0  0  0  0  0  0  0  0  0
   -6.5147   -1.8927    1.8641 H   0  0  0  0  0  0  0  0  0  0  0  0
   -6.6930   -1.9372    0.0618 H   0  0  0  0  0  0  0  0  0  0  0  0
   -7.8389   -0.6409    2.7003 H   0  0  0  0  0  0  0  0  0  0  0  0
   -9.0530    1.5432    2.9924 H   0  0  0  0  0  0  0  0  0  0  0  0
   -8.7199    3.3266    1.3617 H   0  0  0  0  0  0  0  0  0  0  0  0
   -7.1778    2.9933   -0.5975 H   0  0  0  0  0  0  0  0  0  0  0  0
   -6.2832    0.5255   -2.0576 H   0  0  0  0  0  0  0  0  0  0  0  0
   -5.6400    2.1047   -1.5116 H   0  0  0  0  0  0  0  0  0  0  0  0
   -4.1874    0.9813    0.0824 H   0  0  0  0  0  0  0  0  0  0  0  0
   -3.5948    2.0498   -1.9800 H   0  0  0  0  0  0  0  0  0  0  0  0
   -3.6841    0.5555   -2.9246 H   0  0  0  0  0  0  0  0  0  0  0  0
   -1.9031    2.4939   -0.4249 H   0  0  0  0  0  0  0  0  0  0  0  0
    0.4009    2.1063    0.1654 H   0  0  0  0  0  0  0  0  0  0  0  0
    0.4642   -1.5518   -1.9184 H   0  0  0  0  0  0  0  0  0  0  0  0
   -1.9210   -1.2000   -2.5684 H   0  0  0  0  0  0  0  0  0  0  0  0
    2.0218    1.4564    1.0667 H   0  0  0  0  0  0  0  0  0  0  0  0
    4.5537    0.6006   -0.0372 H   0  0  0  0  0  0  0  0  0  0  0  0
    4.2580    1.2105    1.6755 H   0  0  0  0  0  0  0  0  0  0  0  0
    3.4720   -1.0373    2.2869 H   0  0  0  0  0  0  0  0  0  0  0  0
    3.8169   -1.7119    0.7008 H   0  0  0  0  0  0  0  0  0  0  0  0
    5.8592   -0.3596    2.5308 H   0  0  0  0  0  0  0  0  0  0  0  0
    5.7407   -2.1379    2.2820 H   0  0  0  0  0  0  0  0  0  0  0  0
    6.4201    0.0448    0.1768 H   0  0  0  0  0  0  0  0  0  0  0  0
    6.2194   -1.6584   -0.2313 H   0  0  0  0  0  0  0  0  0  0  0  0
    7.9629   -2.2884    1.4208 H   0  0  0  0  0  0  0  0  0  0  0  0
    8.1597   -0.6049    1.9467 H   0  0  0  0  0  0  0  0  0  0  0  0
    8.8210   -1.8632   -0.7794 H   0  0  0  0  0  0  0  0  0  0  0  0
    9.9483   -1.2896    0.5068 H   0  0  0  0  0  0  0  0  0  0  0  0
   10.5836   -0.3395   -2.0549 H   0  0  0  0  0  0  0  0  0  0  0  0
   10.2434    2.3252   -1.4976 H   0  0  0  0  0  0  0  0  0  0  0  0
  1  2  1  0
  2  3  1  0
  3  4  1  0
  4  5  1  0
  5  6  2  0
  6  7  1  0
  7  8  2  0
  8  9  1  0
  9 10  2  0
 10 11  1  0
 11 12  1  0
 12 13  1  0
 13 14  1  0
 14 15  2  0
 15 16  1  0
 16 17  2  0
 17 18  1  0
 18 19  2  0
 17 20  1  0
 20 21  2  0
 20 22  1  0
 22 23  1  0
 23 24  1  0
 24 25  1  0
 25 26  1  0
 26 27  1  0
 27 28  1  0
 28 29  1  0
 29 30  2  0
 29 31  1  0
 31 32  1  0
 12  2  1  0
 19 14  1  0
 10  5  1  0
  1 33  1  0
  1 34  1  0
  1 35  1  0
  3 36  1  0
  3 37  1  0
  4 38  1  0
  4 39  1  0
  6 40  1  0
  7 41  1  0
  8 42  1  0
  9 43  1  0
 11 44  1  0
 11 45  1  0
 12 46  1  0
 13 47  1  0
 13 48  1  0
 15 49  1  0
 16 50  1  0
 18 51  1  0
 19 52  1  0
 22 53  1  0
 23 54  1  0
 23 55  1  0
 24 56  1  0
 24 57  1  0
 25 58  1  0
 25 59  1  0
 26 60  1  0
 26 61  1  0
 27 62  1  0
 27 63  1  0
 28 64  1  0
 28 65  1  0
 31 66  1  0
 32 67  1  0
M  END
$$$$
[H]OC(=O)[C@@]([H])(C([H])([H])O[H])C([H])([H])[C@]([H])(OC([H])([H])[H])C(=O)N1C([H])([H])C([H])([H])C([H])([H])C([H])([H])[C@@]1([H])C(=O)O[C@]([H])(C(=O)OC1(C([H])([H])O[C@]2([H])C([H])([H])C([H])([H])[C@@]([H])(OC([H])([H])[H])C([H])([H])C2([H])[H])C([H])([H])C([H])([H])C([H])([H])C([H])([H])C1([H])[H])C([H])([H])OC(=O)[C@]([H])(N([H])C(=O)[C@@]([H])(OC([H])([H])[H])C([H])([H])c1c([H])c([H])c(OC([H])([H])[H])c([H])c1[H])C([H])([H])[H]
     RDKit          2D

128131  0  0  0  0  0  0  0  0999 V2000
    4.0586   -0.4512    0.0000 C   0  0  0  0  0  0  0  0  0  0  0  0
    2.6491   -0.9642    0.0000 O   0  0  0  0  0  0  0  0  0  0  0  0
    1.5000    0.0000    0.0000 C   0  0  0  0  0  0  0  0  0  0  0  0
    0.7500   -1.2990    0.0000 C   0  0  0  0  0  0  0  0  0  0  0  0
   -0.7500   -1.2990    0.0000 C   0  0  0  0  0  0  0  0  0  0  0  0
   -1.5000    0.0000    0.0000 C   0  0  0  0  0  0  0  0  0  0  0  0
   -0.7500    1.2990    0.0000 C   0  0  0  0  0  0  0  0  0  0  0  0
    0.7500    1.2990    0.0000 C   0  0  0  0  0  0  0  0  0  0  0  0
   -2.6491    0.9642    0.0000 O   0  0  0  0  0  0  0  0  0  0  0  0
   -4.0586    0.4512    0.0000 C   0  0  0  0  0  0  0  0  0  0  0  0
   -5.4681   -0.0619    0.0000 C   0  0  0  0  0  0  0  0  0  0  0  0
   -5.7286    1.4153    0.0000 C   0  0  0  0  0  0  0  0  0  0  0  0
   -7.1382    1.9284    0.0000 C   0  0  0  0  0  0  0  0  0  0  0  0
   -8.2872    0.9642    0.0000 C   0  0  0  0  0  0  0  0  0  0  0  0
   -8.0268   -0.5130    0.0000 C   0  0  0  0  0  0  0  0  0  0  0  0
   -6.6172   -1.0261    0.0000 C   0  0  0  0  0  0  0  0  0  0  0  0
   -4.7181   -1.3609    0.0000 O   0  0  0  0  0  0  0  0  0  0  0  0
   -5.4681   -2.6600    0.0000 C   0  0  0  0  0  0  0  0  0  0  0  0
   -6.9681   -2.6600    0.0000 O   0  0  0  0  0  0  0  0  0  0  0  0
   -4.7181   -3.9590    0.0000 C   0  0  0  0  0  0  0  0  0  0  0  0
   -6.0172   -4.7090    0.0000 C   0  0  0  0  0  0  0  0  0  0  0  0
   -7.3162   -5.4590    0.0000 O   0  0  0  0  0  0  0  0  0  0  0  0
   -7.3162   -6.9590    0.0000 C   0  0  0  0  0  0  0  0  0  0  0  0
   -5.9354   -7.5451    0.0000 O   0  0  0  0  0  0  0  0  0  0  0  0
   -8.6153   -7.7090    0.0000 C   0  0  0  0  0  0  0  0  0  0  0  0
   -7.8653   -9.0080    0.0000 C   0  0  0  0  0  0  0  0  0  0  0  0
   -9.9143   -8.4590    0.0000 N   0  0  0  0  0  0  0  0  0  0  0  0
   -9.9143   -9.9590    0.0000 C   0  0  0  0  0  0  0  0  0  0  0  0
   -8.5335  -10.5451    0.0000 O   0  0  0  0  0  0  0  0  0  0  0  0
  -11.2133  -10.7090    0.0000 C   0  0  0  0  0  0  0  0  0  0  0  0
  -10.4633  -12.0080    0.0000 C   0  0  0  0  0  0  0  0  0  0  0  0
   -9.7133  -13.3071    0.0000 C   0  0  0  0  0  0  0  0  0  0  0  0
  -10.4633  -14.6061    0.0000 C   0  0  0  0  0  0  0  0  0  0  0  0
   -9.7133  -15.9051    0.0000 C   0  0  0  0  0  0  0  0  0  0  0  0
   -8.2133  -15.9051    0.0000 C   0  0  0  0  0  0  0  0  0  0  0  0
   -7.4633  -17.2042    0.0000 O   0  0  0  0  0  0  0  0  0  0  0  0
   -5.9633  -17.2042    0.0000 C   0  0  0  0  0  0  0  0  0  0  0  0
   -7.4633  -14.6061    0.0000 C   0  0  0  0  0  0  0  0  0  0  0  0
   -8.2133  -13.3071    0.0000 C   0  0  0  0  0  0  0  0  0  0  0  0
  -12.5124  -11.4590    0.0000 O   0  0  0  0  0  0  0  0  0  0  0  0
  -13.8114  -10.7090    0.0000 C   0  0  0  0  0  0  0  0  0  0  0  0
   -3.9681   -5.2580    0.0000 O   0  0  0  0  0  0  0  0  0  0  0  0
   -2.4681   -5.2580    0.0000 C   0  0  0  0  0  0  0  0  0  0  0  0
   -1.7181   -3.9590    0.0000 O   0  0  0  0  0  0  0  0  0  0  0  0
   -1.7181   -6.5571    0.0000 C   0  0  0  0  0  0  0  0  0  0  0  0
   -3.1277   -7.0701    0.0000 C   0  0  0  0  0  0  0  0  0  0  0  0
   -3.3882   -8.5473    0.0000 C   0  0  0  0  0  0  0  0  0  0  0  0
   -2.2391   -9.5115    0.0000 C   0  0  0  0  0  0  0  0  0  0  0  0
   -0.8296   -8.9985    0.0000 C   0  0  0  0  0  0  0  0  0  0  0  0
   -0.5691   -7.5213    0.0000 N   0  0  0  0  0  0  0  0  0  0  0  0
    0.8405   -7.0082    0.0000 C   0  0  0  0  0  0  0  0  0  0  0  0
    0.7357   -5.5119    0.0000 O   0  0  0  0  0  0  0  0  0  0  0  0
    1.9895   -7.9724    0.0000 C   0  0  0  0  0  0  0  0  0  0  0  0
    2.9537   -6.8233    0.0000 C   0  0  0  0  0  0  0  0  0  0  0  0
    3.9179   -5.6743    0.0000 C   0  0  0  0  0  0  0  0  0  0  0  0
    2.7688   -4.7101    0.0000 C   0  0  0  0  0  0  0  0  0  0  0  0
    1.6198   -3.7459    0.0000 O   0  0  0  0  0  0  0  0  0  0  0  0
    5.0670   -6.6385    0.0000 C   0  0  0  0  0  0  0  0  0  0  0  0
    6.4765   -6.1254    0.0000 O   0  0  0  0  0  0  0  0  0  0  0  0
    4.9885   -8.1364    0.0000 O   0  0  0  0  0  0  0  0  0  0  0  0
    3.1386   -8.9366    0.0000 O   0  0  0  0  0  0  0  0  0  0  0  0
    2.8781  -10.4138    0.0000 C   0  0  0  0  0  0  0  0  0  0  0  0
    4.5716   -1.8607    0.0000 H   0  0  0  0  0  0  0  0  0  0  0  0
    3.7212    1.0104    0.0000 H   0  0  0  0  0  0  0  0  0  0  0  0
    5.4681    0.0619    0.0000 H   0  0  0  0  0  0  0  0  0  0  0  0
    2.3286    0.8886    0.0000 H   0  0  0  0  0  0  0  0  0  0  0  0
    1.9339   -1.5723    0.0000 H   0  0  0  0  0  0  0  0  0  0  0  0
    0.4895   -2.7762    0.0000 H   0  0  0  0  0  0  0  0  0  0  0  0
   -0.4895   -2.7762    0.0000 H   0  0  0  0  0  0  0  0  0  0  0  0
   -1.8917   -1.7146    0.0000 H   0  0  0  0  0  0  0  0  0  0  0  0
   -2.3286   -0.8886    0.0000 H   0  0  0  0  0  0  0  0  0  0  0  0
   -2.1595    1.8121    0.0000 H   0  0  0  0  0  0  0  0  0  0  0  0
   -0.4895    2.7762    0.0000 H   0  0  0  0  0  0  0  0  0  0  0  0
    0.4895    2.7762    0.0000 H   0  0  0  0  0  0  0  0  0  0  0  0
    1.8917    1.7146    0.0000 H   0  0  0  0  0  0  0  0  0  0  0  0
   -4.2379    1.2279    0.0000 H   0  0  0  0  0  0  0  0  0  0  0  0
   -3.7212   -1.0104    0.0000 H   0  0  0  0  0  0  0  0  0  0  0  0
   -5.4681    2.8925    0.0000 H   0  0  0  0  0  0  0  0  0  0  0  0
   -4.9374    1.5125    0.0000 H   0  0  0  0  0  0  0  0  0  0  0  0
   -8.2872    2.8925    0.0000 H   0  0  0  0  0  0  0  0  0  0  0  0
   -6.3882    3.2274    0.0000 H   0  0  0  0  0  0  0  0  0  0  0  0
   -9.6968    0.4512    0.0000 H   0  0  0  0  0  0  0  0  0  0  0  0
   -9.0372    2.2632    0.0000 H   0  0  0  0  0  0  0  0  0  0  0  0
   -8.2872   -1.9902    0.0000 H   0  0  0  0  0  0  0  0  0  0  0  0
   -9.5268   -0.5130    0.0000 H   0  0  0  0  0  0  0  0  0  0  0  0
   -5.7356   -2.2396    0.0000 H   0  0  0  0  0  0  0  0  0  0  0  0
   -7.5200   -2.2240    0.0000 H   0  0  0  0  0  0  0  0  0  0  0  0
   -3.4191   -3.2090    0.0000 H   0  0  0  0  0  0  0  0  0  0  0  0
   -6.9199   -3.5111    0.0000 H   0  0  0  0  0  0  0  0  0  0  0  0
   -5.2672   -6.0080    0.0000 H   0  0  0  0  0  0  0  0  0  0  0  0
   -9.3653   -6.4100    0.0000 H   0  0  0  0  0  0  0  0  0  0  0  0
   -8.9442  -10.0501    0.0000 H   0  0  0  0  0  0  0  0  0  0  0  0
   -6.4845   -8.4220    0.0000 H   0  0  0  0  0  0  0  0  0  0  0  0
   -7.1153  -10.3071    0.0000 H   0  0  0  0  0  0  0  0  0  0  0  0
  -11.2133   -7.7090    0.0000 H   0  0  0  0  0  0  0  0  0  0  0  0
  -11.9633   -9.4100    0.0000 H   0  0  0  0  0  0  0  0  0  0  0  0
  -11.7624  -12.7580    0.0000 H   0  0  0  0  0  0  0  0  0  0  0  0
   -9.0826  -11.4220    0.0000 H   0  0  0  0  0  0  0  0  0  0  0  0
  -11.9633  -14.6061    0.0000 H   0  0  0  0  0  0  0  0  0  0  0  0
  -10.4633  -17.2042    0.0000 H   0  0  0  0  0  0  0  0  0  0  0  0
   -5.9633  -18.7042    0.0000 H   0  0  0  0  0  0  0  0  0  0  0  0
   -5.9633  -15.7042    0.0000 H   0  0  0  0  0  0  0  0  0  0  0  0
   -4.4633  -17.2042    0.0000 H   0  0  0  0  0  0  0  0  0  0  0  0
   -5.9633  -14.6061    0.0000 H   0  0  0  0  0  0  0  0  0  0  0  0
   -7.4633  -12.0080    0.0000 H   0  0  0  0  0  0  0  0  0  0  0  0
  -14.5614  -12.0080    0.0000 H   0  0  0  0  0  0  0  0  0  0  0  0
  -13.0614   -9.4100    0.0000 H   0  0  0  0  0  0  0  0  0  0  0  0
  -15.1104   -9.9590    0.0000 H   0  0  0  0  0  0  0  0  0  0  0  0
   -0.5691   -5.5929    0.0000 H   0  0  0  0  0  0  0  0  0  0  0  0
   -4.6277   -7.0701    0.0000 H   0  0  0  0  0  0  0  0  0  0  0  0
   -3.7379   -5.6998    0.0000 H   0  0  0  0  0  0  0  0  0  0  0  0
   -4.1382   -9.8463    0.0000 H   0  0  0  0  0  0  0  0  0  0  0  0
   -4.7977   -8.0343    0.0000 H   0  0  0  0  0  0  0  0  0  0  0  0
   -1.4891  -10.8105    0.0000 H   0  0  0  0  0  0  0  0  0  0  0  0
   -3.3882  -10.4757    0.0000 H   0  0  0  0  0  0  0  0  0  0  0  0
    0.6593   -9.1813    0.0000 H   0  0  0  0  0  0  0  0  0  0  0  0
   -0.5691  -10.4757    0.0000 H   0  0  0  0  0  0  0  0  0  0  0  0
    1.1726   -9.2304    0.0000 H   0  0  0  0  0  0  0  0  0  0  0  0
    3.9767   -7.9204    0.0000 H   0  0  0  0  0  0  0  0  0  0  0  0
    1.8046   -5.8592    0.0000 H   0  0  0  0  0  0  0  0  0  0  0  0
    4.8821   -4.5252    0.0000 H   0  0  0  0  0  0  0  0  0  0  0  0
    1.5553   -5.5917    0.0000 H   0  0  0  0  0  0  0  0  0  0  0  0
    3.7330   -3.5610    0.0000 H   0  0  0  0  0  0  0  0  0  0  0  0
    2.0584   -2.3115    0.0000 H   0  0  0  0  0  0  0  0  0  0  0  0
    7.6256   -7.0896    0.0000 H   0  0  0  0  0  0  0  0  0  0  0  0
    4.3553  -10.6743    0.0000 H   0  0  0  0  0  0  0  0  0  0  0  0
    1.4009  -10.1533    0.0000 H   0  0  0  0  0  0  0  0  0  0  0  0
    2.6176  -11.8910    0.0000 H   0  0  0  0  0  0  0  0  0  0  0  0
  1  2  1  0
  2  3  1  0
  3  4  1  0
  4  5  1  0
  5  6  1  0
  6  7  1  0
  7  8  1  0
  6  9  1  0
  9 10  1  0
 10 11  1  0
 11 12  1  0
 12 13  1  0
 13 14  1  0
 14 15  1  0
 15 16  1  0
 11 17  1  0
 17 18  1  0
 18 19  2  0
 18 20  1  0
 20 21  1  0
 21 22  1  0
 22 23  1  0
 23 24  2  0
 23 25  1  0
 25 26  1  0
 25 27  1  0
 27 28  1  0
 28 29  2  0
 28 30  1  0
 30 31  1  0
 31 32  1  0
 32 33  2  0
 33 34  1  0
 34 35  2  0
 35 36  1  0
 36 37  1  0
 35 38  1  0
 38 39  2  0
 30 40  1  0
 40 41  1  0
 20 42  1  0
 42 43  1  0
 43 44  2  0
 43 45  1  0
 45 46  1  0
 46 47  1  0
 47 48  1  0
 48 49  1  0
 49 50  1  0
 50 51  1  0
 51 52  2  0
 51 53  1  0
 53 54  1  0
 54 55  1  0
 55 56  1  0
 56 57  1  0
 55 58  1  0
 58 59  1  0
 58 60  2  0
 53 61  1  0
 61 62  1  0
  8  3  1  0
 16 11  1  0
 39 32  1  0
 50 45  1  0
  1 63  1  0
  1 64  1  0
  1 65  1  0
  3 66  1  6
  4 67  1  0
  4 68  1  0
  5 69  1  0
  5 70  1  0
  6 71  1  1
  7 72  1  0
  7 73  1  0
  8 74  1  0
  8 75  1  0
 10 76  1  0
 10 77  1  0
 12 78  1  0
 12 79  1  0
 13 80  1  0
 13 81  1  0
 14 82  1  0
 14 83  1  0
 15 84  1  0
 15 85  1  0
 16 86  1  0
 16 87  1  0
 20 88  1  6
 21 89  1  0
 21 90  1  0
 25 91  1  6
 26 92  1  0
 26 93  1  0
 26 94  1  0
 27 95  1  0
 30 96  1  1
 31 97  1  0
 31 98  1  0
 33 99  1  0
 34100  1  0
 37101  1  0
 37102  1  0
 37103  1  0
 38104  1  0
 39105  1  0
 41106  1  0
 41107  1  0
 41108  1  0
 45109  1  6
 46110  1  0
 46111  1  0
 47112  1  0
 47113  1  0
 48114  1  0
 48115  1  0
 49116  1  0
 49117  1  0
 53118  1  1
 54119  1  0
 54120  1  0
 55121  1  1
 56122  1  0
 56123  1  0
 57124  1  0
 59125  1  0
 62126  1  0
 62127  1  0
 62128  1  0
M  END
$$$$
[H]c1c([H])c(Cl)c(N([H])C(=O)N([H])c2c([H])c([H])c(-c3nnc(N([H])c4c([H])c(N5C([H])([H])C([H])([H])OC([H])([H])C5([H])[H])c([H])c(C(F)(F)F)c4[H])o3)c([H])c2[H])c(Cl)c1F
     RDKit          3D

 61 65  0  0  0  0  0  0  0  0999 V2000
   12.5412    0.1892    1.7070 F   0  0  0  0  0  0  0  0  0  0  0  0
   11.6356    0.6197    0.8156 C   0  0  0  0  0  0  0  0  0  0  0  0
   11.8331    1.7732    0.0599 C   0  0  0  0  0  0  0  0  0  0  0  0
   10.8930    2.2046   -0.8532 C   0  0  0  0  0  0  0  0  0  0  0  0
    9.7269    1.4524   -1.0054 C   0  0  0  0  0  0  0  0  0  0  0  0
    8.5037    1.9617   -2.1531 Cl  0  0  0  0  0  0  0  0  0  0  0  0
    9.4898    0.2976   -0.2783 C   0  0  0  0  0  0  0  0  0  0  0  0
    8.3461   -0.4823   -0.5054 N   0  0  0  0  0  0  0  0  0  0  0  0
    7.0525   -0.2861    0.0458 C   0  0  0  0  0  0  0  0  0  0  0  0
    6.9539    0.7086    0.8178 O   0  0  0  0  0  0  0  0  0  0  0  0
    6.0434   -1.1834   -0.3165 N   0  0  0  0  0  0  0  0  0  0  0  0
    4.7071   -1.1901    0.0556 C   0  0  0  0  0  0  0  0  0  0  0  0
    3.8151   -2.0256   -0.6718 C   0  0  0  0  0  0  0  0  0  0  0  0
    2.4655   -2.0181   -0.4292 C   0  0  0  0  0  0  0  0  0  0  0  0
    1.9033   -1.2021    0.5277 C   0  0  0  0  0  0  0  0  0  0  0  0
    2.7907   -0.4092    1.2211 C   0  0  0  0  0  0  0  0  0  0  0  0
    4.1655   -0.3790    1.0156 C   0  0  0  0  0  0  0  0  0  0  0  0
    0.4520   -1.0893    0.5656 C   0  0  0  0  0  0  0  0  0  0  0  0
   -0.3641   -1.5294   -0.4574 N   0  0  0  0  0  0  0  0  0  0  0  0
   -1.6031   -1.2850   -0.1942 N   0  0  0  0  0  0  0  0  0  0  0  0
   -1.6119   -0.6776    1.0256 C   0  0  0  0  0  0  0  0  0  0  0  0
   -2.7936   -0.2059    1.7060 N   0  0  0  0  0  0  0  0  0  0  0  0
   -3.9029    0.0888    0.8467 C   0  0  0  0  0  0  0  0  0  0  0  0
   -3.5706    0.7288   -0.3710 C   0  0  0  0  0  0  0  0  0  0  0  0
   -4.5209    1.0994   -1.2873 C   0  0  0  0  0  0  0  0  0  0  0  0
   -5.8270    0.8154   -0.9552 C   0  0  0  0  0  0  0  0  0  0  0  0
   -6.1978    0.1895    0.2276 C   0  0  0  0  0  0  0  0  0  0  0  0
   -5.1981   -0.1748    1.1328 C   0  0  0  0  0  0  0  0  0  0  0  0
   -7.5702   -0.0490    0.4713 N   0  0  0  0  0  0  0  0  0  0  0  0
   -8.5624    0.5305   -0.4556 C   0  0  0  0  0  0  0  0  0  0  0  0
   -9.9031   -0.1156   -0.2617 C   0  0  0  0  0  0  0  0  0  0  0  0
  -10.3761   -0.0945    1.0172 O   0  0  0  0  0  0  0  0  0  0  0  0
   -9.4025   -0.1113    2.0048 C   0  0  0  0  0  0  0  0  0  0  0  0
   -8.1106   -0.8074    1.5359 C   0  0  0  0  0  0  0  0  0  0  0  0
   -4.1653    1.7787   -2.5762 C   0  0  0  0  0  0  0  0  0  0  0  0
   -2.7963    2.0661   -2.4849 F   0  0  0  0  0  0  0  0  0  0  0  0
   -4.3229    0.9271   -3.6529 F   0  0  0  0  0  0  0  0  0  0  0  0
   -4.8480    2.9381   -2.7791 F   0  0  0  0  0  0  0  0  0  0  0  0
   -0.3838   -0.5896    1.4360 O   0  0  0  0  0  0  0  0  0  0  0  0
   10.4823   -0.0735    0.6246 C   0  0  0  0  0  0  0  0  0  0  0  0
   10.2318   -1.5298    1.6024 Cl  0  0  0  0  0  0  0  0  0  0  0  0
   12.7387    2.3177    0.2081 H   0  0  0  0  0  0  0  0  0  0  0  0
   10.9983    3.1054   -1.4564 H   0  0  0  0  0  0  0  0  0  0  0  0
    8.4509   -1.3284   -1.1547 H   0  0  0  0  0  0  0  0  0  0  0  0
    6.3528   -1.9767   -0.9808 H   0  0  0  0  0  0  0  0  0  0  0  0
    4.2159   -2.6829   -1.4320 H   0  0  0  0  0  0  0  0  0  0  0  0
    1.7893   -2.6821   -0.9961 H   0  0  0  0  0  0  0  0  0  0  0  0
    2.3763    0.2495    1.9811 H   0  0  0  0  0  0  0  0  0  0  0  0
    4.7956    0.2917    1.6194 H   0  0  0  0  0  0  0  0  0  0  0  0
   -2.8011   -0.1118    2.7144 H   0  0  0  0  0  0  0  0  0  0  0  0
   -2.5446    0.9496   -0.5961 H   0  0  0  0  0  0  0  0  0  0  0  0
   -6.5634    1.1226   -1.6714 H   0  0  0  0  0  0  0  0  0  0  0  0
   -5.4839   -0.6685    2.0456 H   0  0  0  0  0  0  0  0  0  0  0  0
   -8.2449    0.2341   -1.4923 H   0  0  0  0  0  0  0  0  0  0  0  0
   -8.6359    1.5982   -0.3259 H   0  0  0  0  0  0  0  0  0  0  0  0
  -10.6257    0.4363   -0.9205 H   0  0  0  0  0  0  0  0  0  0  0  0
   -9.8934   -1.1728   -0.6532 H   0  0  0  0  0  0  0  0  0  0  0  0
   -9.1988    0.9136    2.3377 H   0  0  0  0  0  0  0  0  0  0  0  0
   -9.7607   -0.7369    2.8354 H   0  0  0  0  0  0  0  0  0  0  0  0
   -8.4685   -1.8060    1.1558 H   0  0  0  0  0  0  0  0  0  0  0  0
   -7.4985   -0.9135    2.4403 H   0  0  0  0  0  0  0  0  0  0  0  0
  1  2  1  0
  2  3  2  0
  3  4  1  0
  4  5  2  0
  5  6  1  0
  5  7  1  0
  7  8  1  0
  8  9  1  0
  9 10  2  0
  9 11  1  0
 11 12  1  0
 12 13  2  0
 13 14  1  0
 14 15  2  0
 15 16  1  0
 16 17  2  0
 15 18  1  0
 18 19  2  0
 19 20  1  0
 20 21  2  0
 21 22  1  0
 22 23  1  0
 23 24  2  0
 24 25  1  0
 25 26  2  0
 26 27  1  0
 27 28  2  0
 27 29  1  0
 29 30  1  0
 30 31  1  0
 31 32  1  0
 32 33  1  0
 33 34  1  0
 25 35  1  0
 35 36  1  0
 35 37  1  0
 35 38  1  0
 21 39  1  0
  7 40  2  0
 40 41  1  0
 40  2  1  0
 17 12  1  0
 39 18  1  0
 28 23  1  0
 34 29  1  0
  3 42  1  0
  4 43  1  0
  8 44  1  0
 11 45  1  0
 13 46  1  0
 14 47  1  0
 16 48  1  0
 17 49  1  0
 22 50  1  0
 24 51  1  0
 26 52  1  0
 28 53  1  0
 30 54  1  0
 30 55  1  0
 31 56  1  0
 31 57  1  0
 33 58  1  0
 33 59  1  0
 34 60  1  0
 34 61  1  0
M  END
$$$$
[H]Oc1c([H])c([H])c(C([H])([H])[H])c([H])c1-c1c([H])c(C(=O)N([H])c2nc(C([H])([H])[H])nc([H])c2[H])c([H])c(OC([H])([H])C([H])(C([H])([H])O[H])C([H])([H])OC([H])([H])[H])c1OC([H])([H])[H]
     RDKit          3D

 63 65  0  0  0  0  0  0  0  0999 V2000
   -4.8612   -3.0150    1.7416 C   0  0  0  0  0  0  0  0  0  0  0  0
   -4.1865   -2.9306    0.5318 O   0  0  0  0  0  0  0  0  0  0  0  0
   -2.8154   -2.8758    0.7776 C   0  0  0  0  0  0  0  0  0  0  0  0
   -2.0095   -2.7816   -0.5079 C   0  0  0  0  0  0  0  0  0  0  0  0
   -2.2713   -3.9949   -1.3900 C   0  0  0  0  0  0  0  0  0  0  0  0
   -1.9206   -5.1854   -0.7567 O   0  0  0  0  0  0  0  0  0  0  0  0
   -2.4093   -1.5833   -1.3253 C   0  0  0  0  0  0  0  0  0  0  0  0
   -2.2802   -0.3546   -0.7787 O   0  0  0  0  0  0  0  0  0  0  0  0
   -1.1853    0.3334   -0.3862 C   0  0  0  0  0  0  0  0  0  0  0  0
    0.0863   -0.1590   -0.5583 C   0  0  0  0  0  0  0  0  0  0  0  0
    1.1963    0.5322   -0.1566 C   0  0  0  0  0  0  0  0  0  0  0  0
    1.0511    1.7599    0.4380 C   0  0  0  0  0  0  0  0  0  0  0  0
   -0.2321    2.2977    0.6305 C   0  0  0  0  0  0  0  0  0  0  0  0
   -1.3349    1.6058    0.2301 C   0  0  0  0  0  0  0  0  0  0  0  0
   -2.6128    2.0447    0.3834 O   0  0  0  0  0  0  0  0  0  0  0  0
   -3.4355    2.7412   -0.4966 C   0  0  0  0  0  0  0  0  0  0  0  0
   -0.2191    3.6147    1.2566 C   0  0  0  0  0  0  0  0  0  0  0  0
   -0.7655    4.7540    0.7501 C   0  0  0  0  0  0  0  0  0  0  0  0
   -0.6881    5.9836    1.3692 C   0  0  0  0  0  0  0  0  0  0  0  0
   -1.3049    7.2068    0.7794 C   0  0  0  0  0  0  0  0  0  0  0  0
   -0.0152    6.0515    2.5696 C   0  0  0  0  0  0  0  0  0  0  0  0
    0.5450    4.9112    3.0976 C   0  0  0  0  0  0  0  0  0  0  0  0
    0.4698    3.6851    2.4847 C   0  0  0  0  0  0  0  0  0  0  0  0
    1.0427    2.5480    3.0373 O   0  0  0  0  0  0  0  0  0  0  0  0
    2.5471   -0.0463   -0.3631 C   0  0  0  0  0  0  0  0  0  0  0  0
    3.5181    0.7591   -0.3199 O   0  0  0  0  0  0  0  0  0  0  0  0
    2.7671   -1.4085   -0.5943 N   0  0  0  0  0  0  0  0  0  0  0  0
    4.0073   -2.0301   -0.7966 C   0  0  0  0  0  0  0  0  0  0  0  0
    5.2355   -1.4557   -0.8006 C   0  0  0  0  0  0  0  0  0  0  0  0
    6.4241   -2.1877   -1.0217 C   0  0  0  0  0  0  0  0  0  0  0  0
    6.2727   -3.5026   -1.2311 N   0  0  0  0  0  0  0  0  0  0  0  0
    5.0721   -4.0936   -1.2324 C   0  0  0  0  0  0  0  0  0  0  0  0
    5.0332   -5.5714   -1.4808 C   0  0  0  0  0  0  0  0  0  0  0  0
    3.9608   -3.3893   -1.0220 N   0  0  0  0  0  0  0  0  0  0  0  0
   -4.5173   -3.9502    2.2628 H   0  0  0  0  0  0  0  0  0  0  0  0
   -4.5881   -2.1847    2.4225 H   0  0  0  0  0  0  0  0  0  0  0  0
   -5.9491   -3.0922    1.5545 H   0  0  0  0  0  0  0  0  0  0  0  0
   -2.5579   -1.9811    1.3796 H   0  0  0  0  0  0  0  0  0  0  0  0
   -2.4862   -3.7763    1.3437 H   0  0  0  0  0  0  0  0  0  0  0  0
   -0.9616   -2.7900   -0.2383 H   0  0  0  0  0  0  0  0  0  0  0  0
   -1.6685   -3.8923   -2.3137 H   0  0  0  0  0  0  0  0  0  0  0  0
   -3.3346   -4.0423   -1.7009 H   0  0  0  0  0  0  0  0  0  0  0  0
   -1.0080   -5.0891   -0.4214 H   0  0  0  0  0  0  0  0  0  0  0  0
   -3.5010   -1.7497   -1.5651 H   0  0  0  0  0  0  0  0  0  0  0  0
   -1.8148   -1.7001   -2.2883 H   0  0  0  0  0  0  0  0  0  0  0  0
    0.2493   -1.1122   -1.0559 H   0  0  0  0  0  0  0  0  0  0  0  0
    1.9418    2.3222    0.7620 H   0  0  0  0  0  0  0  0  0  0  0  0
   -4.3632    2.1198   -0.6631 H   0  0  0  0  0  0  0  0  0  0  0  0
   -3.8058    3.7099   -0.1089 H   0  0  0  0  0  0  0  0  0  0  0  0
   -2.9678    2.8404   -1.5028 H   0  0  0  0  0  0  0  0  0  0  0  0
   -1.2685    4.7346   -0.1952 H   0  0  0  0  0  0  0  0  0  0  0  0
   -2.1815    6.9922    0.1555 H   0  0  0  0  0  0  0  0  0  0  0  0
   -0.5667    7.7973    0.2013 H   0  0  0  0  0  0  0  0  0  0  0  0
   -1.6416    7.8620    1.6106 H   0  0  0  0  0  0  0  0  0  0  0  0
    0.0484    7.0173    3.0603 H   0  0  0  0  0  0  0  0  0  0  0  0
    1.0747    4.9982    4.0544 H   0  0  0  0  0  0  0  0  0  0  0  0
    1.5258    2.6501    3.9204 H   0  0  0  0  0  0  0  0  0  0  0  0
    1.8815   -2.0472   -0.6171 H   0  0  0  0  0  0  0  0  0  0  0  0
    5.3491   -0.4004   -0.6307 H   0  0  0  0  0  0  0  0  0  0  0  0
    7.3684   -1.6657   -1.0109 H   0  0  0  0  0  0  0  0  0  0  0  0
    4.1248   -5.8277   -2.0729 H   0  0  0  0  0  0  0  0  0  0  0  0
    5.0073   -6.1551   -0.5489 H   0  0  0  0  0  0  0  0  0  0  0  0
    5.9293   -5.8515   -2.0967 H   0  0  0  0  0  0  0  0  0  0  0  0
  1  2  1  0
  2  3  1  0
  3  4  1  0
  4  5  1  0
  5  6  1  0
  4  7  1  0
  7  8  1  0
  8  9  1  0
  9 10  2  0
 10 11  1  0
 11 12  2  0
 12 13  1  0
 13 14  2  0
 14 15  1  0
 15 16  1  0
 13 17  1  0
 17 18  2  0
 18 19  1  0
 19 20  1  0
 19 21  2  0
 21 22  1  0
 22 23  2  0
 23 24  1  0
 11 25  1  0
 25 26  2  0
 25 27  1  0
 27 28  1  0
 28 29  2  0
 29 30  1  0
 30 31  2  0
 31 32  1  0
 32 33  1  0
 32 34  2  0
 14  9  1  0
 23 17  1  0
 34 28  1  0
  1 35  1  0
  1 36  1  0
  1 37  1  0
  3 38  1  0
  3 39  1  0
  4 40  1  0
  5 41  1  0
  5 42  1  0
  6 43  1  0
  7 44  1  0
  7 45  1  0
 10 46  1  0
 12 47  1  0
 16 48  1  0
 16 49  1  0
 16 50  1  0
 18 51  1  0
 20 52  1  0
 20 53  1  0
 20 54  1  0
 21 55  1  0
 22 56  1  0
 24 57  1  0
 27 58  1  0
 29 59  1  0
 30 60  1  0
 33 61  1  0
 33 62  1  0
 33 63  1  0
M  END
$$$$
[H]N=S(=O)(c1c([H])c([H])c(N([H])c2nc([H])c([H])c(-c3sc(N([H])C([H])([H])[H])nc3[H])n2)c([H])c1[H])N1C([H])([H])C([H])([H])OC([H])([H])C1([H])[H]
     RDKit          3D

 50 53  0  0  0  0  0  0  0  0999 V2000
   10.5474    0.4921   -0.6954 C   0  0  0  0  0  0  0  0  0  0  0  0
    9.2464    0.6205   -1.2649 N   0  0  0  0  0  0  0  0  0  0  0  0
    8.1089    0.2107   -0.4979 C   0  0  0  0  0  0  0  0  0  0  0  0
    8.0318   -0.2949    0.7116 N   0  0  0  0  0  0  0  0  0  0  0  0
    6.8903   -0.6038    1.2334 C   0  0  0  0  0  0  0  0  0  0  0  0
    5.7747   -0.3843    0.4799 C   0  0  0  0  0  0  0  0  0  0  0  0
    6.4379    0.2596   -0.9486 S   0  0  0  0  0  0  0  0  0  0  0  0
    4.3669   -0.6511    0.8467 C   0  0  0  0  0  0  0  0  0  0  0  0
    4.0508   -1.1823    2.0707 C   0  0  0  0  0  0  0  0  0  0  0  0
    2.7281   -1.4174    2.3779 C   0  0  0  0  0  0  0  0  0  0  0  0
    1.8145   -1.1104    1.4529 N   0  0  0  0  0  0  0  0  0  0  0  0
    2.0733   -0.5909    0.2460 C   0  0  0  0  0  0  0  0  0  0  0  0
    1.1323   -0.2598   -0.7419 N   0  0  0  0  0  0  0  0  0  0  0  0
   -0.2706   -0.3997   -0.6486 C   0  0  0  0  0  0  0  0  0  0  0  0
   -1.0019   -0.3724   -1.8507 C   0  0  0  0  0  0  0  0  0  0  0  0
   -2.3720   -0.4817   -1.8569 C   0  0  0  0  0  0  0  0  0  0  0  0
   -3.1077   -0.6229   -0.7055 C   0  0  0  0  0  0  0  0  0  0  0  0
   -2.4112   -0.6511    0.4756 C   0  0  0  0  0  0  0  0  0  0  0  0
   -1.0079   -0.5398    0.4951 C   0  0  0  0  0  0  0  0  0  0  0  0
   -4.8501   -0.7628   -0.7097 S   0  0  0  0  0  0  0  0  0  0  0  0
   -5.2587   -1.3818   -2.0846 N   0  0  0  0  0  0  0  0  0  0  0  0
   -5.3296   -1.6964    0.3625 O   0  0  0  0  0  0  0  0  0  0  0  0
   -5.5634    0.7800   -0.5982 N   0  0  0  0  0  0  0  0  0  0  0  0
   -5.2855    1.4745    0.6207 C   0  0  0  0  0  0  0  0  0  0  0  0
   -6.5591    2.1291    1.1327 C   0  0  0  0  0  0  0  0  0  0  0  0
   -7.5059    1.1246    1.3158 O   0  0  0  0  0  0  0  0  0  0  0  0
   -7.9111    0.5904    0.1178 C   0  0  0  0  0  0  0  0  0  0  0  0
   -6.9385    0.8284   -0.9879 C   0  0  0  0  0  0  0  0  0  0  0  0
    3.3826   -0.3770   -0.0124 N   0  0  0  0  0  0  0  0  0  0  0  0
   11.3235    0.8771   -1.3927 H   0  0  0  0  0  0  0  0  0  0  0  0
   10.8330   -0.5574   -0.4707 H   0  0  0  0  0  0  0  0  0  0  0  0
   10.6220    1.1301    0.2165 H   0  0  0  0  0  0  0  0  0  0  0  0
    9.1285    1.0024   -2.2137 H   0  0  0  0  0  0  0  0  0  0  0  0
    6.7956   -1.0319    2.2519 H   0  0  0  0  0  0  0  0  0  0  0  0
    4.8268   -1.4157    2.7899 H   0  0  0  0  0  0  0  0  0  0  0  0
    2.4534   -1.8430    3.3543 H   0  0  0  0  0  0  0  0  0  0  0  0
    1.5573    0.1423   -1.6466 H   0  0  0  0  0  0  0  0  0  0  0  0
   -0.4258   -0.2612   -2.7736 H   0  0  0  0  0  0  0  0  0  0  0  0
   -2.9200   -0.4581   -2.8004 H   0  0  0  0  0  0  0  0  0  0  0  0
   -2.9404   -0.7604    1.4114 H   0  0  0  0  0  0  0  0  0  0  0  0
   -0.5086   -0.5539    1.4540 H   0  0  0  0  0  0  0  0  0  0  0  0
   -6.0552   -2.0348   -2.0724 H   0  0  0  0  0  0  0  0  0  0  0  0
   -4.8904    0.8188    1.4228 H   0  0  0  0  0  0  0  0  0  0  0  0
   -4.5279    2.2598    0.4203 H   0  0  0  0  0  0  0  0  0  0  0  0
   -6.4072    2.6369    2.0925 H   0  0  0  0  0  0  0  0  0  0  0  0
   -6.9270    2.8543    0.3723 H   0  0  0  0  0  0  0  0  0  0  0  0
   -8.0273   -0.5114    0.2558 H   0  0  0  0  0  0  0  0  0  0  0  0
   -8.9032    1.0601   -0.1472 H   0  0  0  0  0  0  0  0  0  0  0  0
   -7.1006    0.0892   -1.7952 H   0  0  0  0  0  0  0  0  0  0  0  0
   -7.1196    1.8272   -1.4505 H   0  0  0  0  0  0  0  0  0  0  0  0
  1  2  1  0
  2  3  1  0
  3  4  2  0
  4  5  1  0
  5  6  2  0
  6  7  1  0
  6  8  1  0
  8  9  2  0
  9 10  1  0
 10 11  2  0
 11 12  1  0
 12 13  1  0
 13 14  1  0
 14 15  2  0
 15 16  1  0
 16 17  2  0
 17 18  1  0
 18 19  2  0
 17 20  1  0
 20 21  2  3
 20 22  2  0
 20 23  1  0
 23 24  1  0
 24 25  1  0
 25 26  1  0
 26 27  1  0
 27 28  1  0
 12 29  2  0
  7  3  1  0
 29  8  1  0
 19 14  1  0
 28 23  1  0
  1 30  1  0
  1 31  1  0
  1 32  1  0
  2 33  1  0
  5 34  1  0
  9 35  1  0
 10 36  1  0
 13 37  1  0
 15 38  1  0
 16 39  1  0
 18 40  1  0
 19 41  1  0
 21 42  1  0
 24 43  1  0
 24 44  1  0
 25 45  1  0
 25 46  1  0
 27 47  1  0
 27 48  1  0
 28 49  1  0
 28 50  1  0
M  END
$$$$
[H]c1nc(N([H])[H])c2c(-c3c([H])c(N([H])C(=O)c4c(C([H])([H])[H])nn([H])c4Cl)c(Cl)c([H])c3N(C([H])([H])[H])S(=O)(=O)C([H])([H])[H])c([H])n([C@@]([H])(C([H])([H])[H])C([H])(C([H])([H])C([H])([H])[H])C([H])([H])C([H])([H])[H])c2n1
     RDKit          3D

 72 75  0  0  0  0  0  0  0  0999 V2000
   -5.6297    1.0666   -2.9261 C   0  0  0  0  0  0  0  0  0  0  0  0
   -5.5275    0.4748   -1.5370 C   0  0  0  0  0  0  0  0  0  0  0  0
   -4.0847    0.4205   -1.0847 C   0  0  0  0  0  0  0  0  0  0  0  0
   -3.5244    1.7859   -1.0685 C   0  0  0  0  0  0  0  0  0  0  0  0
   -4.2221    2.7655   -0.1531 C   0  0  0  0  0  0  0  0  0  0  0  0
   -3.9077   -0.4230    0.1320 C   0  0  2  0  0  0  0  0  0  0  0  0
   -4.6580    0.0053    1.3347 C   0  0  0  0  0  0  0  0  0  0  0  0
   -2.4996   -0.6666    0.4159 N   0  0  0  0  0  0  0  0  0  0  0  0
   -1.4779   -0.6109   -0.4424 C   0  0  0  0  0  0  0  0  0  0  0  0
   -0.2583   -0.9056    0.1826 C   0  0  0  0  0  0  0  0  0  0  0  0
    1.0562   -0.8503   -0.3995 C   0  0  0  0  0  0  0  0  0  0  0  0
    1.9610    0.1179    0.0728 C   0  0  0  0  0  0  0  0  0  0  0  0
    3.2068    0.3213   -0.4553 C   0  0  0  0  0  0  0  0  0  0  0  0
    4.1654    1.2674   -0.0405 N   0  0  0  0  0  0  0  0  0  0  0  0
    4.0342    2.1637    1.0154 C   0  0  0  0  0  0  0  0  0  0  0  0
    2.9571    2.1755    1.7042 O   0  0  0  0  0  0  0  0  0  0  0  0
    5.0437    3.1371    1.4349 C   0  0  0  0  0  0  0  0  0  0  0  0
    6.3393    3.2619    1.0733 C   0  0  0  0  0  0  0  0  0  0  0  0
    7.2000    2.4616    0.1878 C   0  0  0  0  0  0  0  0  0  0  0  0
    6.8398    4.3568    1.7284 N   0  0  0  0  0  0  0  0  0  0  0  0
    5.9168    4.8952    2.4635 N   0  0  0  0  0  0  0  0  0  0  0  0
    4.8095    4.1898    2.3183 C   0  0  0  0  0  0  0  0  0  0  0  0
    3.3099    4.5452    3.1177 Cl  0  0  0  0  0  0  0  0  0  0  0  0
    3.5710   -0.5043   -1.5349 C   0  0  0  0  0  0  0  0  0  0  0  0
    5.1754   -0.3205   -2.2962 Cl  0  0  0  0  0  0  0  0  0  0  0  0
    2.7250   -1.4341   -2.0030 C   0  0  0  0  0  0  0  0  0  0  0  0
    1.4500   -1.6179   -1.4355 C   0  0  0  0  0  0  0  0  0  0  0  0
    0.7151   -2.6551   -2.0491 N   0  0  0  0  0  0  0  0  0  0  0  0
   -0.1304   -2.3553   -3.1817 C   0  0  0  0  0  0  0  0  0  0  0  0
    0.8404   -4.2672   -1.5074 S   0  0  0  0  0  0  0  0  0  0  0  0
    0.3425   -4.5656    0.1404 C   0  0  0  0  0  0  0  0  0  0  0  0
    2.2832   -4.7687   -1.6534 O   0  0  0  0  0  0  0  0  0  0  0  0
    0.0480   -5.1694   -2.4255 O   0  0  0  0  0  0  0  0  0  0  0  0
   -0.5808   -1.1534    1.4987 C   0  0  0  0  0  0  0  0  0  0  0  0
    0.1955   -1.5109    2.5911 C   0  0  0  0  0  0  0  0  0  0  0  0
    1.5973   -1.7181    2.5372 N   0  0  0  0  0  0  0  0  0  0  0  0
   -0.4744   -1.6934    3.7637 N   0  0  0  0  0  0  0  0  0  0  0  0
   -1.7972   -1.5457    3.8855 C   0  0  0  0  0  0  0  0  0  0  0  0
   -2.5148   -1.2015    2.8074 N   0  0  0  0  0  0  0  0  0  0  0  0
   -1.9452   -0.9981    1.6003 C   0  0  0  0  0  0  0  0  0  0  0  0
   -4.8591    0.5784   -3.5587 H   0  0  0  0  0  0  0  0  0  0  0  0
   -5.5547    2.1549   -2.9422 H   0  0  0  0  0  0  0  0  0  0  0  0
   -6.6110    0.7634   -3.3483 H   0  0  0  0  0  0  0  0  0  0  0  0
   -6.2046    0.9774   -0.8232 H   0  0  0  0  0  0  0  0  0  0  0  0
   -5.8862   -0.5781   -1.6289 H   0  0  0  0  0  0  0  0  0  0  0  0
   -3.5559   -0.1317   -1.9233 H   0  0  0  0  0  0  0  0  0  0  0  0
   -3.6908    2.2003   -2.1119 H   0  0  0  0  0  0  0  0  0  0  0  0
   -2.4189    1.8335   -0.9555 H   0  0  0  0  0  0  0  0  0  0  0  0
   -3.7358    2.6972    0.8601 H   0  0  0  0  0  0  0  0  0  0  0  0
   -5.2882    2.5700   -0.0029 H   0  0  0  0  0  0  0  0  0  0  0  0
   -4.0840    3.8171   -0.5087 H   0  0  0  0  0  0  0  0  0  0  0  0
   -4.3199   -1.4386   -0.1615 H   0  0  0  0  0  0  0  0  0  0  0  0
   -4.9276   -0.9163    1.9319 H   0  0  0  0  0  0  0  0  0  0  0  0
   -5.6326    0.4838    1.1170 H   0  0  0  0  0  0  0  0  0  0  0  0
   -4.1317    0.6601    2.0364 H   0  0  0  0  0  0  0  0  0  0  0  0
   -1.6058   -0.3527   -1.4774 H   0  0  0  0  0  0  0  0  0  0  0  0
    1.6122    0.7284    0.8843 H   0  0  0  0  0  0  0  0  0  0  0  0
    5.0666    1.2981   -0.6104 H   0  0  0  0  0  0  0  0  0  0  0  0
    6.9867    2.5818   -0.8969 H   0  0  0  0  0  0  0  0  0  0  0  0
    7.1430    1.3507    0.4009 H   0  0  0  0  0  0  0  0  0  0  0  0
    8.2791    2.7771    0.3444 H   0  0  0  0  0  0  0  0  0  0  0  0
    6.0858    5.7543    3.0570 H   0  0  0  0  0  0  0  0  0  0  0  0
    3.0479   -2.0651   -2.8553 H   0  0  0  0  0  0  0  0  0  0  0  0
   -0.2866   -1.2607   -3.3095 H   0  0  0  0  0  0  0  0  0  0  0  0
    0.4319   -2.6760   -4.0930 H   0  0  0  0  0  0  0  0  0  0  0  0
   -1.0744   -2.9268   -3.1757 H   0  0  0  0  0  0  0  0  0  0  0  0
    0.1191   -5.6690    0.2170 H   0  0  0  0  0  0  0  0  0  0  0  0
   -0.6106   -4.0742    0.3743 H   0  0  0  0  0  0  0  0  0  0  0  0
    1.1486   -4.3547    0.8832 H   0  0  0  0  0  0  0  0  0  0  0  0
    2.2009   -1.1311    3.1460 H   0  0  0  0  0  0  0  0  0  0  0  0
    2.0611   -2.4174    1.9299 H   0  0  0  0  0  0  0  0  0  0  0  0
   -2.2551   -1.7107    4.8665 H   0  0  0  0  0  0  0  0  0  0  0  0
  1  2  1  0
  2  3  1  0
  3  4  1  0
  4  5  1  0
  3  6  1  0
  6  7  1  0
  6  8  1  0
  8  9  1  0
  9 10  2  0
 10 11  1  0
 11 12  2  0
 12 13  1  0
 13 14  1  0
 14 15  1  0
 15 16  2  0
 15 17  1  0
 17 18  1  0
 18 19  1  0
 18 20  2  0
 20 21  1  0
 21 22  1  0
 22 23  1  0
 13 24  2  0
 24 25  1  0
 24 26  1  0
 26 27  2  0
 27 28  1  0
 28 29  1  0
 28 30  1  0
 30 31  1  0
 30 32  2  0
 30 33  2  0
 10 34  1  0
 34 35  2  0
 35 36  1  0
 35 37  1  0
 37 38  2  0
 38 39  1  0
 39 40  2  0
 40  8  1  0
 27 11  1  0
 40 34  1  0
 22 17  2  0
  1 41  1  0
  1 42  1  0
  1 43  1  0
  2 44  1  0
  2 45  1  0
  3 46  1  0
  4 47  1  0
  4 48  1  0
  5 49  1  0
  5 50  1  0
  5 51  1  0
  6 52  1  6
  7 53  1  0
  7 54  1  0
  7 55  1  0
  9 56  1  0
 12 57  1  0
 14 58  1  0
 19 59  1  0
 19 60  1  0
 19 61  1  0
 21 62  1  0
 26 63  1  0
 29 64  1  0
 29 65  1  0
 29 66  1  0
 31 67  1  0
 31 68  1  0
 31 69  1  0
 36 70  1  0
 36 71  1  0
 38 72  1  0
M  END
$$$$
[H]c1c([H])c([H])c(C([H])([H])N([H])C(=O)C2(c3c([H])c([H])c([H])c([H])c3[H])C3=C(C(=O)N([H])[H])C([H])([H])N([H])C2([H])S3)c([H])c1[H]
     RDKit          3D

 45 48  0  0  0  0  0  0  0  0999 V2000
   -3.4553    4.1728    0.3104 N   0  0  0  0  0  0  0  0  0  0  0  0
   -3.0286    2.8631    0.7386 C   0  0  0  0  0  0  0  0  0  0  0  0
   -3.9079    2.2626    1.4226 O   0  0  0  0  0  0  0  0  0  0  0  0
   -1.8002    2.3506    0.4251 C   0  0  0  0  0  0  0  0  0  0  0  0
   -0.9655    1.4578    0.4690 C   0  0  0  0  0  0  0  0  0  0  0  0
    0.6752    1.5174   -0.2234 S   0  0  0  0  0  0  0  0  0  0  0  0
   -0.5566    0.4738   -1.1695 C   0  0  0  0  0  0  0  0  0  0  0  0
   -1.5408    1.3960   -1.6533 N   0  0  0  0  0  0  0  0  0  0  0  0
   -1.4176    2.8131   -1.1370 C   0  0  0  0  0  0  0  0  0  0  0  0
   -0.7925   -0.0023    0.3592 C   0  0  0  0  0  0  0  0  0  0  0  0
    0.5096   -0.4640    0.8467 C   0  0  0  0  0  0  0  0  0  0  0  0
    1.0738    0.0960    1.8100 O   0  0  0  0  0  0  0  0  0  0  0  0
    1.1259   -1.5623    0.2089 N   0  0  0  0  0  0  0  0  0  0  0  0
    2.3981   -2.0979    0.6098 C   0  0  0  0  0  0  0  0  0  0  0  0
    3.4664   -1.1998    0.0974 C   0  0  0  0  0  0  0  0  0  0  0  0
    4.1485   -0.3375    0.9282 C   0  0  0  0  0  0  0  0  0  0  0  0
    5.1385    0.5040    0.4660 C   0  0  0  0  0  0  0  0  0  0  0  0
    5.4734    0.5012   -0.8578 C   0  0  0  0  0  0  0  0  0  0  0  0
    4.8206   -0.3405   -1.7192 C   0  0  0  0  0  0  0  0  0  0  0  0
    3.8222   -1.1863   -1.2425 C   0  0  0  0  0  0  0  0  0  0  0  0
   -1.8620   -0.9375    0.5000 C   0  0  0  0  0  0  0  0  0  0  0  0
   -2.1243   -1.8826   -0.4701 C   0  0  0  0  0  0  0  0  0  0  0  0
   -3.1291   -2.8306   -0.3222 C   0  0  0  0  0  0  0  0  0  0  0  0
   -3.8945   -2.8443    0.8142 C   0  0  0  0  0  0  0  0  0  0  0  0
   -3.6531   -1.9125    1.7959 C   0  0  0  0  0  0  0  0  0  0  0  0
   -2.6493   -0.9832    1.6228 C   0  0  0  0  0  0  0  0  0  0  0  0
   -3.0587    4.9868    0.7805 H   0  0  0  0  0  0  0  0  0  0  0  0
   -4.1368    4.2487   -0.4454 H   0  0  0  0  0  0  0  0  0  0  0  0
   -0.0685   -0.2278   -1.7639 H   0  0  0  0  0  0  0  0  0  0  0  0
   -1.3912    1.4960   -2.6704 H   0  0  0  0  0  0  0  0  0  0  0  0
   -2.2382    3.3726   -1.4833 H   0  0  0  0  0  0  0  0  0  0  0  0
   -0.4281    3.1045   -1.0893 H   0  0  0  0  0  0  0  0  0  0  0  0
    0.6679   -2.0531   -0.6183 H   0  0  0  0  0  0  0  0  0  0  0  0
    2.5631   -3.0818    0.1488 H   0  0  0  0  0  0  0  0  0  0  0  0
    2.4162   -2.1489    1.7259 H   0  0  0  0  0  0  0  0  0  0  0  0
    3.9178   -0.3103    1.9652 H   0  0  0  0  0  0  0  0  0  0  0  0
    5.6624    1.1771    1.1461 H   0  0  0  0  0  0  0  0  0  0  0  0
    6.2324    1.1454   -1.2165 H   0  0  0  0  0  0  0  0  0  0  0  0
    5.0373   -0.3917   -2.7753 H   0  0  0  0  0  0  0  0  0  0  0  0
    3.2831   -1.8689   -1.9054 H   0  0  0  0  0  0  0  0  0  0  0  0
   -1.5600   -1.9130   -1.3819 H   0  0  0  0  0  0  0  0  0  0  0  0
   -3.3378   -3.5741   -1.0813 H   0  0  0  0  0  0  0  0  0  0  0  0
   -4.6902   -3.5961    0.9294 H   0  0  0  0  0  0  0  0  0  0  0  0
   -4.2715   -1.9481    2.6788 H   0  0  0  0  0  0  0  0  0  0  0  0
   -2.4741   -0.2442    2.4261 H   0  0  0  0  0  0  0  0  0  0  0  0
  1  2  1  0
  2  3  2  0
  2  4  1  0
  4  5  2  0
  5  6  1  0
  6  7  1  0
  7  8  1  0
  8  9  1  0
  7 10  1  0
 10 11  1  0
 11 12  2  0
 11 13  1  0
 13 14  1  0
 14 15  1  0
 15 16  2  0
 16 17  1  0
 17 18  2  0
 18 19  1  0
 19 20  2  0
 10 21  1  0
 21 22  2  0
 22 23  1  0
 23 24  2  0
 24 25  1  0
 25 26  2  0
  9  4  1  0
 20 15  1  0
 26 21  1  0
 10  5  1  0
  1 27  1  0
  1 28  1  0
  7 29  1  0
  8 30  1  0
  9 31  1  0
  9 32  1  0
 13 33  1  0
 14 34  1  0
 14 35  1  0
 16 36  1  0
 17 37  1  0
 18 38  1  0
 19 39  1  0
 20 40  1  0
 22 41  1  0
 23 42  1  0
 24 43  1  0
 25 44  1  0
 26 45  1  0
M  END
$$$$
[H]c1c([H])c([H])c(C(=O)c2c([H])c([H])c(N([H])[C@]([H])(C(F)(F)F)[P+]([O-])(OC([H])([H])[H])OC([H])([H])[H])c([H])c2[H])c([H])c1[H]
     RDKit          3D

 43 44  0  0  0  0  0  0  0  0999 V2000
   -2.2037    0.1489   -2.0290 O   0  0  0  0  0  0  0  0  0  0  0  0
   -3.4485    0.0746   -0.8782 P   0  0  0  0  0  0  0  0  0  0  0  0
   -3.8176    1.6325   -0.4464 O   0  0  0  0  0  0  0  0  0  0  0  0
   -4.4256    1.7950    0.7612 C   0  0  0  0  0  0  0  0  0  0  0  0
   -4.7391   -0.6937   -1.6813 O   0  0  0  0  0  0  0  0  0  0  0  0
   -5.8866    0.0652   -1.7122 C   0  0  0  0  0  0  0  0  0  0  0  0
   -2.8893   -0.9763    0.4800 C   0  0  2  0  0  0  0  0  0  0  0  0
   -1.5954   -1.5589    0.2098 N   0  0  0  0  0  0  0  0  0  0  0  0
   -0.3877   -0.7963    0.0950 C   0  0  0  0  0  0  0  0  0  0  0  0
   -0.3325    0.5558    0.3760 C   0  0  0  0  0  0  0  0  0  0  0  0
    0.8592    1.2292    0.2392 C   0  0  0  0  0  0  0  0  0  0  0  0
    2.0230    0.6129   -0.1716 C   0  0  0  0  0  0  0  0  0  0  0  0
    1.9481   -0.7266   -0.4456 C   0  0  0  0  0  0  0  0  0  0  0  0
    0.7463   -1.4350   -0.3135 C   0  0  0  0  0  0  0  0  0  0  0  0
    3.2663    1.3224   -0.3358 C   0  0  0  0  0  0  0  0  0  0  0  0
    3.1557    2.5540   -0.6612 O   0  0  0  0  0  0  0  0  0  0  0  0
    4.6038    0.8135   -0.1783 C   0  0  0  0  0  0  0  0  0  0  0  0
    4.8898   -0.2828    0.5927 C   0  0  0  0  0  0  0  0  0  0  0  0
    6.1929   -0.7702    0.7208 C   0  0  0  0  0  0  0  0  0  0  0  0
    7.2301   -0.1516    0.0672 C   0  0  0  0  0  0  0  0  0  0  0  0
    6.9634    0.9585   -0.7174 C   0  0  0  0  0  0  0  0  0  0  0  0
    5.6734    1.4164   -0.8254 C   0  0  0  0  0  0  0  0  0  0  0  0
   -3.8549   -2.1080    0.7566 C   0  0  0  0  0  0  0  0  0  0  0  0
   -3.3131   -2.8424    1.8187 F   0  0  0  0  0  0  0  0  0  0  0  0
   -3.9614   -2.9737   -0.3029 F   0  0  0  0  0  0  0  0  0  0  0  0
   -5.0746   -1.6514    1.2134 F   0  0  0  0  0  0  0  0  0  0  0  0
   -4.3919    2.8976    1.0046 H   0  0  0  0  0  0  0  0  0  0  0  0
   -5.5219    1.5696    0.7068 H   0  0  0  0  0  0  0  0  0  0  0  0
   -3.9284    1.2993    1.6130 H   0  0  0  0  0  0  0  0  0  0  0  0
   -5.7293    1.1331   -1.9603 H   0  0  0  0  0  0  0  0  0  0  0  0
   -6.5071   -0.0436   -0.7731 H   0  0  0  0  0  0  0  0  0  0  0  0
   -6.5418   -0.4093   -2.5019 H   0  0  0  0  0  0  0  0  0  0  0  0
   -2.7630   -0.4048    1.4264 H   0  0  0  0  0  0  0  0  0  0  0  0
   -1.5422   -2.5933    0.0915 H   0  0  0  0  0  0  0  0  0  0  0  0
   -1.2412    1.0379    0.6989 H   0  0  0  0  0  0  0  0  0  0  0  0
    0.9121    2.2853    0.4576 H   0  0  0  0  0  0  0  0  0  0  0  0
    2.8267   -1.2536   -0.7812 H   0  0  0  0  0  0  0  0  0  0  0  0
    0.7391   -2.4941   -0.5409 H   0  0  0  0  0  0  0  0  0  0  0  0
    4.0955   -0.7878    1.1310 H   0  0  0  0  0  0  0  0  0  0  0  0
    6.4042   -1.6317    1.3291 H   0  0  0  0  0  0  0  0  0  0  0  0
    8.2597   -0.5083    0.1474 H   0  0  0  0  0  0  0  0  0  0  0  0
    7.8168    1.4164   -1.2179 H   0  0  0  0  0  0  0  0  0  0  0  0
    5.4910    2.2752   -1.4352 H   0  0  0  0  0  0  0  0  0  0  0  0
  1  2  1  0
  2  3  1  0
  3  4  1  0
  2  5  1  0
  5  6  1  0
  2  7  1  0
  7  8  1  0
  8  9  1  0
  9 10  2  0
 10 11  1  0
 11 12  2  0
 12 13  1  0
 13 14  2  0
 12 15  1  0
 15 16  2  0
 15 17  1  0
 17 18  2  0
 18 19  1  0
 19 20  2  0
 20 21  1  0
 21 22  2  0
  7 23  1  0
 23 24  1  0
 23 25  1  0
 23 26  1  0
 14  9  1  0
 22 17  1  0
  4 27  1  0
  4 28  1  0
  4 29  1  0
  6 30  1  0
  6 31  1  0
  6 32  1  0
  7 33  1  1
  8 34  1  0
 10 35  1  0
 11 36  1  0
 13 37  1  0
 14 38  1  0
 18 39  1  0
 19 40  1  0
 20 41  1  0
 21 42  1  0
 22 43  1  0
M  CHG  2   1  -1   2   1
M  END
$$$$
[H]c1c([H])c(C([H])([H])n2c(=O)n([H])c3c([H])c(Cl)c(SC([H])([H])[H])c([H])c32)c([H])c(Cl)c1OC([H])([H])[H]
     RDKit          3D

 37 39  0  0  0  0  0  0  0  0999 V2000
    3.4321    2.7625    0.8090 C   0  0  0  0  0  0  0  0  0  0  0  0
    4.1489    1.2537    1.4799 S   0  0  0  0  0  0  0  0  0  0  0  0
    3.3434   -0.2044    0.8044 C   0  0  0  0  0  0  0  0  0  0  0  0
    2.3171   -0.1224   -0.1043 C   0  0  0  0  0  0  0  0  0  0  0  0
    1.6766   -1.2298   -0.6425 C   0  0  0  0  0  0  0  0  0  0  0  0
    0.6805   -1.4401   -1.5203 N   0  0  0  0  0  0  0  0  0  0  0  0
   -0.0514   -0.3805   -2.1915 C   0  0  0  0  0  0  0  0  0  0  0  0
   -1.2382    0.0472   -1.4486 C   0  0  0  0  0  0  0  0  0  0  0  0
   -1.1780    1.0666   -0.5424 C   0  0  0  0  0  0  0  0  0  0  0  0
   -2.3221    1.4572    0.1542 C   0  0  0  0  0  0  0  0  0  0  0  0
   -3.5432    0.8470   -0.0336 C   0  0  0  0  0  0  0  0  0  0  0  0
   -4.6913    1.2205    0.6487 O   0  0  0  0  0  0  0  0  0  0  0  0
   -4.6909    2.2638    1.5947 C   0  0  0  0  0  0  0  0  0  0  0  0
   -3.5796   -0.1785   -0.9527 C   0  0  0  0  0  0  0  0  0  0  0  0
   -5.1296   -0.9854   -1.2206 Cl  0  0  0  0  0  0  0  0  0  0  0  0
   -2.4562   -0.5903   -1.6623 C   0  0  0  0  0  0  0  0  0  0  0  0
    0.4545   -2.7641   -1.6896 C   0  0  0  0  0  0  0  0  0  0  0  0
   -0.4179   -3.3004   -2.4510 O   0  0  0  0  0  0  0  0  0  0  0  0
    1.3320   -3.3942   -0.8969 N   0  0  0  0  0  0  0  0  0  0  0  0
    2.0897   -2.4957   -0.2464 C   0  0  0  0  0  0  0  0  0  0  0  0
    3.1227   -2.5827    0.6684 C   0  0  0  0  0  0  0  0  0  0  0  0
    3.7421   -1.4659    1.1880 C   0  0  0  0  0  0  0  0  0  0  0  0
    5.0482   -1.5961    2.3453 Cl  0  0  0  0  0  0  0  0  0  0  0  0
    2.5669    3.1019    1.4451 H   0  0  0  0  0  0  0  0  0  0  0  0
    3.1089    2.5768   -0.2356 H   0  0  0  0  0  0  0  0  0  0  0  0
    4.2219    3.5504    0.8279 H   0  0  0  0  0  0  0  0  0  0  0  0
    1.9966    0.8726   -0.4141 H   0  0  0  0  0  0  0  0  0  0  0  0
   -0.3711   -0.7870   -3.1734 H   0  0  0  0  0  0  0  0  0  0  0  0
    0.6416    0.4600   -2.4303 H   0  0  0  0  0  0  0  0  0  0  0  0
   -0.2741    1.6133   -0.3223 H   0  0  0  0  0  0  0  0  0  0  0  0
   -2.2762    2.2720    0.8793 H   0  0  0  0  0  0  0  0  0  0  0  0
   -3.7900    2.1315    2.2402 H   0  0  0  0  0  0  0  0  0  0  0  0
   -4.6443    3.2705    1.1359 H   0  0  0  0  0  0  0  0  0  0  0  0
   -5.5667    2.1554    2.2771 H   0  0  0  0  0  0  0  0  0  0  0  0
   -2.5705   -1.3945   -2.3611 H   0  0  0  0  0  0  0  0  0  0  0  0
    1.4209   -4.4232   -0.7936 H   0  0  0  0  0  0  0  0  0  0  0  0
    3.4469   -3.5877    0.9798 H   0  0  0  0  0  0  0  0  0  0  0  0
  1  2  1  0
  2  3  1  0
  3  4  2  0
  4  5  1  0
  5  6  1  0
  6  7  1  0
  7  8  1  0
  8  9  2  0
  9 10  1  0
 10 11  2  0
 11 12  1  0
 12 13  1  0
 11 14  1  0
 14 15  1  0
 14 16  2  0
  6 17  1  0
 17 18  2  0
 17 19  1  0
 19 20  1  0
 20 21  1  0
 21 22  2  0
 22 23  1  0
 22  3  1  0
 20  5  2  0
 16  8  1  0
  1 24  1  0
  1 25  1  0
  1 26  1  0
  4 27  1  0
  7 28  1  0
  7 29  1  0
  9 30  1  0
 10 31  1  0
 13 32  1  0
 13 33  1  0
 13 34  1  0
 16 35  1  0
 19 36  1  0
 21 37  1  0
M  END
$$$$
[H]N=C(c1c([H])c([H])c(OC(=O)c2oc3c([H])c([H])c(C(=N[H])N([H])[H])c([H])c3c2C([H])([H])[H])c([H])c1[H])N([H])[H]
     RDKit          3D

 41 43  0  0  0  0  0  0  0  0999 V2000
    7.7670    0.4241    0.5126 N   0  0  0  0  0  0  0  0  0  0  0  0
    6.6090    0.6214   -0.2519 C   0  0  0  0  0  0  0  0  0  0  0  0
    6.6785    1.1176   -1.4233 N   0  0  0  0  0  0  0  0  0  0  0  0
    5.3157    0.2593    0.2897 C   0  0  0  0  0  0  0  0  0  0  0  0
    5.1951   -0.2813    1.5541 C   0  0  0  0  0  0  0  0  0  0  0  0
    3.9603   -0.6261    2.0691 C   0  0  0  0  0  0  0  0  0  0  0  0
    2.8150   -0.4381    1.3302 C   0  0  0  0  0  0  0  0  0  0  0  0
    1.5584   -0.6821    1.5981 O   0  0  0  0  0  0  0  0  0  0  0  0
    0.7947   -0.3409    0.5886 C   0  0  0  0  0  0  0  0  0  0  0  0
   -0.6447   -0.4778    0.5540 C   0  0  0  0  0  0  0  0  0  0  0  0
   -1.2791   -0.9524    1.5309 O   0  0  0  0  0  0  0  0  0  0  0  0
   -1.4157   -0.0995   -0.5462 O   0  0  0  0  0  0  0  0  0  0  0  0
   -2.8167   -0.2558   -0.5247 C   0  0  0  0  0  0  0  0  0  0  0  0
   -3.5249    0.8107   -0.0422 C   0  0  0  0  0  0  0  0  0  0  0  0
   -4.8886    0.7605    0.0207 C   0  0  0  0  0  0  0  0  0  0  0  0
   -5.5471   -0.3701   -0.4046 C   0  0  0  0  0  0  0  0  0  0  0  0
   -4.8220   -1.4359   -0.8879 C   0  0  0  0  0  0  0  0  0  0  0  0
   -3.4353   -1.3857   -0.9522 C   0  0  0  0  0  0  0  0  0  0  0  0
   -7.0261   -0.4363   -0.3413 C   0  0  0  0  0  0  0  0  0  0  0  0
   -7.7443    0.6631    0.1555 N   0  0  0  0  0  0  0  0  0  0  0  0
   -7.5975   -1.5012   -0.7449 N   0  0  0  0  0  0  0  0  0  0  0  0
    1.6061    0.1570   -0.3998 C   0  0  0  0  0  0  0  0  0  0  0  0
    1.2082    0.6706   -1.7302 C   0  0  0  0  0  0  0  0  0  0  0  0
    2.9058    0.0952    0.0757 C   0  0  0  0  0  0  0  0  0  0  0  0
    4.1359    0.4331   -0.4238 C   0  0  0  0  0  0  0  0  0  0  0  0
    8.5361    1.1166    0.4713 H   0  0  0  0  0  0  0  0  0  0  0  0
    7.8664   -0.4048    1.1197 H   0  0  0  0  0  0  0  0  0  0  0  0
    7.6093    1.3761   -1.8080 H   0  0  0  0  0  0  0  0  0  0  0  0
    6.0943   -0.4275    2.1310 H   0  0  0  0  0  0  0  0  0  0  0  0
    3.9371   -1.0440    3.0643 H   0  0  0  0  0  0  0  0  0  0  0  0
   -3.0323    1.7228    0.3033 H   0  0  0  0  0  0  0  0  0  0  0  0
   -5.4904    1.5946    0.4010 H   0  0  0  0  0  0  0  0  0  0  0  0
   -5.3286   -2.3201   -1.2210 H   0  0  0  0  0  0  0  0  0  0  0  0
   -2.8471   -2.2149   -1.3297 H   0  0  0  0  0  0  0  0  0  0  0  0
   -8.3942    0.6077    0.9605 H   0  0  0  0  0  0  0  0  0  0  0  0
   -7.6431    1.6171   -0.2900 H   0  0  0  0  0  0  0  0  0  0  0  0
   -8.6196   -1.6136   -0.7286 H   0  0  0  0  0  0  0  0  0  0  0  0
    0.6431    1.6189   -1.6711 H   0  0  0  0  0  0  0  0  0  0  0  0
    2.1038    0.8453   -2.3555 H   0  0  0  0  0  0  0  0  0  0  0  0
    0.5646   -0.0499   -2.2718 H   0  0  0  0  0  0  0  0  0  0  0  0
    4.1932    0.8464   -1.3995 H   0  0  0  0  0  0  0  0  0  0  0  0
  1  2  1  0
  2  3  2  3
  2  4  1  0
  4  5  2  0
  5  6  1  0
  6  7  2  0
  7  8  1  0
  8  9  1  0
  9 10  1  0
 10 11  2  0
 10 12  1  0
 12 13  1  0
 13 14  2  0
 14 15  1  0
 15 16  2  0
 16 17  1  0
 17 18  2  0
 16 19  1  0
 19 20  1  0
 19 21  2  3
  9 22  2  0
 22 23  1  0
 22 24  1  0
 24 25  2  0
 25  4  1  0
 24  7  1  0
 18 13  1  0
  1 26  1  0
  1 27  1  0
  3 28  1  0
  5 29  1  0
  6 30  1  0
 14 31  1  0
 15 32  1  0
 17 33  1  0
 18 34  1  0
 20 35  1  0
 20 36  1  0
 21 37  1  0
 23 38  1  0
 23 39  1  0
 23 40  1  0
 25 41  1  0
M  END
$$$$
[H]c1nc2c(C([H])([H])[H])c(C([H])([H])[H])c(-c3c(C([H])(C([H])([H])[H])C([H])([H])[H])c4c([H])c(C5([H])C([H])([H])C([H])([H])N(C6([H])C([H])([H])OC([H])([H])C6([H])[H])C([H])([H])C5([H])[H])c([H])c([H])c4n3[H])c([H])n2n1
     RDKit          3D

 69 74  0  0  0  0  0  0  0  0999 V2000
   -1.8057   -1.8497   -2.0603 C   0  0  0  0  0  0  0  0  0  0  0  0
   -2.5664   -0.5699   -1.9022 C   0  0  0  0  0  0  0  0  0  0  0  0
   -2.0760    0.2719   -3.1277 C   0  0  0  0  0  0  0  0  0  0  0  0
   -2.2391    0.2639   -0.7483 C   0  0  0  0  0  0  0  0  0  0  0  0
   -3.1320    1.1067   -0.0437 C   0  0  0  0  0  0  0  0  0  0  0  0
   -2.3719    1.7148    0.8751 N   0  0  0  0  0  0  0  0  0  0  0  0
   -1.0896    1.3212    0.8010 C   0  0  0  0  0  0  0  0  0  0  0  0
    0.0331    1.6999    1.5394 C   0  0  0  0  0  0  0  0  0  0  0  0
    1.2752    1.1739    1.2722 C   0  0  0  0  0  0  0  0  0  0  0  0
    1.4383    0.2582    0.2666 C   0  0  0  0  0  0  0  0  0  0  0  0
    0.2949   -0.1099   -0.4653 C   0  0  0  0  0  0  0  0  0  0  0  0
   -0.9593    0.4018   -0.2159 C   0  0  0  0  0  0  0  0  0  0  0  0
    2.7173   -0.3538   -0.0977 C   0  0  0  0  0  0  0  0  0  0  0  0
    3.6946    0.5355   -0.7763 C   0  0  0  0  0  0  0  0  0  0  0  0
    5.1067    0.0734   -0.7227 C   0  0  0  0  0  0  0  0  0  0  0  0
    5.4901   -0.5913    0.4922 N   0  0  0  0  0  0  0  0  0  0  0  0
    4.5748   -1.7057    0.6578 C   0  0  0  0  0  0  0  0  0  0  0  0
    3.2626   -1.0695    1.1260 C   0  0  0  0  0  0  0  0  0  0  0  0
    6.8133   -1.1230    0.3921 C   0  0  0  0  0  0  0  0  0  0  0  0
    7.1526   -1.7256    1.7648 C   0  0  0  0  0  0  0  0  0  0  0  0
    8.6411   -1.5026    1.8042 C   0  0  0  0  0  0  0  0  0  0  0  0
    8.7946   -0.2520    1.2623 O   0  0  0  0  0  0  0  0  0  0  0  0
    7.8738   -0.0619    0.2673 C   0  0  0  0  0  0  0  0  0  0  0  0
   -4.5977    1.1250   -0.2170 C   0  0  0  0  0  0  0  0  0  0  0  0
   -5.1960    1.2031   -1.4520 C   0  0  0  0  0  0  0  0  0  0  0  0
   -6.5224    1.1144   -1.6812 N   0  0  0  0  0  0  0  0  0  0  0  0
   -7.2667    1.1593   -2.7755 N   0  0  0  0  0  0  0  0  0  0  0  0
   -8.5638    1.0170   -2.4863 C   0  0  0  0  0  0  0  0  0  0  0  0
   -8.6108    0.8768   -1.1346 N   0  0  0  0  0  0  0  0  0  0  0  0
   -7.3540    0.9379   -0.6447 C   0  0  0  0  0  0  0  0  0  0  0  0
   -6.8383    0.8505    0.6265 C   0  0  0  0  0  0  0  0  0  0  0  0
   -7.7762    0.6720    1.7408 C   0  0  0  0  0  0  0  0  0  0  0  0
   -5.4436    0.9422    0.8588 C   0  0  0  0  0  0  0  0  0  0  0  0
   -5.0621    0.7741    2.2625 C   0  0  0  0  0  0  0  0  0  0  0  0
   -1.3924   -2.2146   -1.1036 H   0  0  0  0  0  0  0  0  0  0  0  0
   -1.0180   -1.7586   -2.7932 H   0  0  0  0  0  0  0  0  0  0  0  0
   -2.4944   -2.6539   -2.5022 H   0  0  0  0  0  0  0  0  0  0  0  0
   -3.6260   -0.7841   -2.0681 H   0  0  0  0  0  0  0  0  0  0  0  0
   -2.8432    0.1540   -3.9341 H   0  0  0  0  0  0  0  0  0  0  0  0
   -1.1314   -0.1118   -3.5194 H   0  0  0  0  0  0  0  0  0  0  0  0
   -2.0339    1.3418   -2.8805 H   0  0  0  0  0  0  0  0  0  0  0  0
   -2.7401    2.4384    1.5657 H   0  0  0  0  0  0  0  0  0  0  0  0
   -0.1341    2.4233    2.3305 H   0  0  0  0  0  0  0  0  0  0  0  0
    2.1324    1.4784    1.8536 H   0  0  0  0  0  0  0  0  0  0  0  0
    0.4278   -0.8103   -1.2583 H   0  0  0  0  0  0  0  0  0  0  0  0
    2.5056   -1.1946   -0.8291 H   0  0  0  0  0  0  0  0  0  0  0  0
    3.4159    0.5370   -1.8783 H   0  0  0  0  0  0  0  0  0  0  0  0
    3.6675    1.5983   -0.4930 H   0  0  0  0  0  0  0  0  0  0  0  0
    5.3935   -0.5903   -1.5885 H   0  0  0  0  0  0  0  0  0  0  0  0
    5.7916    0.9620   -0.8364 H   0  0  0  0  0  0  0  0  0  0  0  0
    4.3609   -2.1027   -0.3690 H   0  0  0  0  0  0  0  0  0  0  0  0
    4.9223   -2.4897    1.3229 H   0  0  0  0  0  0  0  0  0  0  0  0
    2.5902   -1.9353    1.3358 H   0  0  0  0  0  0  0  0  0  0  0  0
    3.4001   -0.4076    1.9933 H   0  0  0  0  0  0  0  0  0  0  0  0
    6.9085   -1.9517   -0.3211 H   0  0  0  0  0  0  0  0  0  0  0  0
    6.8742   -2.7756    1.8431 H   0  0  0  0  0  0  0  0  0  0  0  0
    6.7079   -1.0979    2.5827 H   0  0  0  0  0  0  0  0  0  0  0  0
    8.9909   -1.4602    2.8715 H   0  0  0  0  0  0  0  0  0  0  0  0
    9.1345   -2.3210    1.2388 H   0  0  0  0  0  0  0  0  0  0  0  0
    8.3244   -0.1396   -0.7338 H   0  0  0  0  0  0  0  0  0  0  0  0
    7.4488    0.9678    0.3646 H   0  0  0  0  0  0  0  0  0  0  0  0
   -4.5873    1.3849   -2.3237 H   0  0  0  0  0  0  0  0  0  0  0  0
   -9.4052    1.0143   -3.1794 H   0  0  0  0  0  0  0  0  0  0  0  0
   -8.7527    0.2915    1.3044 H   0  0  0  0  0  0  0  0  0  0  0  0
   -8.0168    1.6113    2.2839 H   0  0  0  0  0  0  0  0  0  0  0  0
   -7.4288   -0.1143    2.4325 H   0  0  0  0  0  0  0  0  0  0  0  0
   -5.5923    1.5282    2.8986 H   0  0  0  0  0  0  0  0  0  0  0  0
   -5.4867   -0.2187    2.6521 H   0  0  0  0  0  0  0  0  0  0  0  0
   -4.0050    0.8227    2.4617 H   0  0  0  0  0  0  0  0  0  0  0  0
  1  2  1  0
  2  3  1  0
  2  4  1  0
  4  5  2  0
  5  6  1  0
  6  7  1  0
  7  8  2  0
  8  9  1  0
  9 10  2  0
 10 11  1  0
 11 12  2  0
 10 13  1  0
 13 14  1  0
 14 15  1  0
 15 16  1  0
 16 17  1  0
 17 18  1  0
 16 19  1  0
 19 20  1  0
 20 21  1  0
 21 22  1  0
 22 23  1  0
  5 24  1  0
 24 25  2  0
 25 26  1  0
 26 27  1  0
 27 28  2  0
 28 29  1  0
 29 30  2  0
 30 31  1  0
 31 32  1  0
 31 33  2  0
 33 34  1  0
 12  4  1  0
 18 13  1  0
 23 19  1  0
 33 24  1  0
 12  7  1  0
 30 26  1  0
  1 35  1  0
  1 36  1  0
  1 37  1  0
  2 38  1  0
  3 39  1  0
  3 40  1  0
  3 41  1  0
  6 42  1  0
  8 43  1  0
  9 44  1  0
 11 45  1  0
 13 46  1  0
 14 47  1  0
 14 48  1  0
 15 49  1  0
 15 50  1  0
 17 51  1  0
 17 52  1  0
 18 53  1  0
 18 54  1  0
 19 55  1  0
 20 56  1  0
 20 57  1  0
 21 58  1  0
 21 59  1  0
 23 60  1  0
 23 61  1  0
 25 62  1  0
 28 63  1  0
 32 64  1  0
 32 65  1  0
 32 66  1  0
 34 67  1  0
 34 68  1  0
 34 69  1  0
M  END
$$$$
[H]N=C(N([H])[H])N([H])C([H])([H])C([H])([H])C(=O)O[H]
     RDKit          3D

 18 17  0  0  0  0  0  0  0  0999 V2000
   -2.5786   -0.9794   -0.0629 N   0  0  0  0  0  0  0  0  0  0  0  0
   -1.9897    0.2715   -0.3356 C   0  0  0  0  0  0  0  0  0  0  0  0
   -2.4263    0.9675   -1.3327 N   0  0  0  0  0  0  0  0  0  0  0  0
   -0.9376    0.7435    0.4880 N   0  0  0  0  0  0  0  0  0  0  0  0
    0.4418    0.7137    0.1346 C   0  0  0  0  0  0  0  0  0  0  0  0
    1.0432   -0.6966    0.0955 C   0  0  0  0  0  0  0  0  0  0  0  0
    2.4597   -0.5046   -0.2714 C   0  0  0  0  0  0  0  0  0  0  0  0
    2.7903   -0.2939   -1.5907 O   0  0  0  0  0  0  0  0  0  0  0  0
    3.3390   -0.5320    0.6004 O   0  0  0  0  0  0  0  0  0  0  0  0
   -2.3273   -1.8540   -0.5381 H   0  0  0  0  0  0  0  0  0  0  0  0
   -3.3093   -0.9940    0.6687 H   0  0  0  0  0  0  0  0  0  0  0  0
   -2.0861    1.8863   -1.6374 H   0  0  0  0  0  0  0  0  0  0  0  0
   -1.2015    1.1421    1.4287 H   0  0  0  0  0  0  0  0  0  0  0  0
    1.0527    1.3133    0.8369 H   0  0  0  0  0  0  0  0  0  0  0  0
    0.6396    1.1240   -0.8921 H   0  0  0  0  0  0  0  0  0  0  0  0
    0.8868   -1.2287    1.0524 H   0  0  0  0  0  0  0  0  0  0  0  0
    0.5610   -1.2897   -0.7437 H   0  0  0  0  0  0  0  0  0  0  0  0
    3.6424    0.2110   -1.8110 H   0  0  0  0  0  0  0  0  0  0  0  0
  1  2  1  0
  2  3  2  3
  2  4  1  0
  4  5  1  0
  5  6  1  0
  6  7  1  0
  7  8  1  0
  7  9  2  0
  1 10  1  0
  1 11  1  0
  3 12  1  0
  4 13  1  0
  5 14  1  0
  5 15  1  0
  6 16  1  0
  6 17  1  0
  8 18  1  0
M  END
$$$$
[H]c1nc2nc(N([H])[H])nc(N([H])[H])c2c(C([H])([H])[H])c1N(C([H])([H])[H])C([H])([H])c1c([H])c(OC([H])([H])[H])c([H])c(OC([H])([H])[H])c1[H]
     RDKit          3D

 48 50  0  0  0  0  0  0  0  0999 V2000
   -6.3325    0.3734   -0.1063 C   0  0  0  0  0  0  0  0  0  0  0  0
   -5.2250   -0.4759   -0.1662 O   0  0  0  0  0  0  0  0  0  0  0  0
   -4.0194   -0.0971    0.3702 C   0  0  0  0  0  0  0  0  0  0  0  0
   -2.9323   -0.9409    0.3067 C   0  0  0  0  0  0  0  0  0  0  0  0
   -1.7130   -0.5785    0.8397 C   0  0  0  0  0  0  0  0  0  0  0  0
   -0.5753   -1.4937    0.7708 C   0  0  0  0  0  0  0  0  0  0  0  0
    0.0150   -1.6958   -0.5190 N   0  0  0  0  0  0  0  0  0  0  0  0
   -0.7839   -1.9862   -1.6910 C   0  0  0  0  0  0  0  0  0  0  0  0
    1.4567   -1.6517   -0.6228 C   0  0  0  0  0  0  0  0  0  0  0  0
    2.1496   -2.8522   -0.5380 C   0  0  0  0  0  0  0  0  0  0  0  0
    3.4709   -2.8951   -0.5671 N   0  0  0  0  0  0  0  0  0  0  0  0
    4.1717   -1.7629   -0.6798 C   0  0  0  0  0  0  0  0  0  0  0  0
    5.5160   -1.8015   -0.7000 N   0  0  0  0  0  0  0  0  0  0  0  0
    6.2788   -0.7028   -0.8017 C   0  0  0  0  0  0  0  0  0  0  0  0
    7.6980   -0.8101   -0.8180 N   0  0  0  0  0  0  0  0  0  0  0  0
    5.6470    0.4686   -0.8849 N   0  0  0  0  0  0  0  0  0  0  0  0
    4.2811    0.5904   -0.8713 C   0  0  0  0  0  0  0  0  0  0  0  0
    3.7527    1.8748   -0.9443 N   0  0  0  0  0  0  0  0  0  0  0  0
    3.5190   -0.5177   -0.7701 C   0  0  0  0  0  0  0  0  0  0  0  0
    2.1362   -0.4610   -0.7432 C   0  0  0  0  0  0  0  0  0  0  0  0
    1.4534    0.8347   -0.9042 C   0  0  0  0  0  0  0  0  0  0  0  0
   -1.6041    0.6506    1.4398 C   0  0  0  0  0  0  0  0  0  0  0  0
   -2.6857    1.5120    1.5130 C   0  0  0  0  0  0  0  0  0  0  0  0
   -2.5586    2.7477    2.1216 O   0  0  0  0  0  0  0  0  0  0  0  0
   -3.6664    3.6172    2.1907 C   0  0  0  0  0  0  0  0  0  0  0  0
   -3.8896    1.1338    0.9774 C   0  0  0  0  0  0  0  0  0  0  0  0
   -6.6921    0.4327    0.9282 H   0  0  0  0  0  0  0  0  0  0  0  0
   -6.0325    1.3860   -0.4778 H   0  0  0  0  0  0  0  0  0  0  0  0
   -7.1238   -0.0535   -0.7693 H   0  0  0  0  0  0  0  0  0  0  0  0
   -3.0858   -1.8991   -0.1817 H   0  0  0  0  0  0  0  0  0  0  0  0
   -0.9001   -2.4963    1.1841 H   0  0  0  0  0  0  0  0  0  0  0  0
    0.2452   -1.1230    1.4595 H   0  0  0  0  0  0  0  0  0  0  0  0
   -1.3807   -2.9301   -1.5194 H   0  0  0  0  0  0  0  0  0  0  0  0
   -0.1833   -2.1758   -2.5838 H   0  0  0  0  0  0  0  0  0  0  0  0
   -1.4919   -1.1652   -1.9416 H   0  0  0  0  0  0  0  0  0  0  0  0
    1.5277   -3.7530   -0.4463 H   0  0  0  0  0  0  0  0  0  0  0  0
    8.2601   -0.9706    0.0485 H   0  0  0  0  0  0  0  0  0  0  0  0
    8.1932   -0.7249   -1.7298 H   0  0  0  0  0  0  0  0  0  0  0  0
    3.4767    2.4141   -0.0984 H   0  0  0  0  0  0  0  0  0  0  0  0
    3.6335    2.3438   -1.8678 H   0  0  0  0  0  0  0  0  0  0  0  0
    1.3690    1.4735   -0.0402 H   0  0  0  0  0  0  0  0  0  0  0  0
    1.5668    1.3119   -1.9042 H   0  0  0  0  0  0  0  0  0  0  0  0
    0.3483    0.5354   -1.0298 H   0  0  0  0  0  0  0  0  0  0  0  0
   -0.6391    0.9249    1.8558 H   0  0  0  0  0  0  0  0  0  0  0  0
   -3.4494    4.5334    2.7717 H   0  0  0  0  0  0  0  0  0  0  0  0
   -4.5473    3.1184    2.6417 H   0  0  0  0  0  0  0  0  0  0  0  0
   -3.9149    3.9176    1.1398 H   0  0  0  0  0  0  0  0  0  0  0  0
   -4.7401    1.8198    1.0392 H   0  0  0  0  0  0  0  0  0  0  0  0
  1  2  1  0
  2  3  1  0
  3  4  2  0
  4  5  1  0
  5  6  1  0
  6  7  1  0
  7  8  1  0
  7  9  1  0
  9 10  2  0
 10 11  1  0
 11 12  2  0
 12 13  1  0
 13 14  2  0
 14 15  1  0
 14 16  1  0
 16 17  2  0
 17 18  1  0
 17 19  1  0
 19 20  2  0
 20 21  1  0
  5 22  2  0
 22 23  1  0
 23 24  1  0
 24 25  1  0
 23 26  2  0
 26  3  1  0
 20  9  1  0
 19 12  1  0
  1 27  1  0
  1 28  1  0
  1 29  1  0
  4 30  1  0
  6 31  1  0
  6 32  1  0
  8 33  1  0
  8 34  1  0
  8 35  1  0
 10 36  1  0
 15 37  1  0
 15 38  1  0
 18 39  1  0
 18 40  1  0
 21 41  1  0
 21 42  1  0
 21 43  1  0
 22 44  1  0
 25 45  1  0
 25 46  1  0
 25 47  1  0
 26 48  1  0
M  END
$$$$
[H]c1nc(C([H])([H])[H])nc(N([H])c2nc([H])c3c(n2)c2c([H])c([H])c([H])c(C([H])([H])[H])c2c(=O)n3C([H])([H])[H])c1[H]
     RDKit          3D

 41 44  0  0  0  0  0  0  0  0999 V2000
    3.5498   -2.1523    1.8320 C   0  0  0  0  0  0  0  0  0  0  0  0
    4.1043   -1.1896    0.8408 C   0  0  0  0  0  0  0  0  0  0  0  0
    5.4369   -1.1065    0.6536 N   0  0  0  0  0  0  0  0  0  0  0  0
    5.9615   -0.2416   -0.2390 C   0  0  0  0  0  0  0  0  0  0  0  0
    5.0940    0.5617   -0.9609 C   0  0  0  0  0  0  0  0  0  0  0  0
    3.7267    0.4904   -0.7826 C   0  0  0  0  0  0  0  0  0  0  0  0
    2.8835    1.3316   -1.5436 N   0  0  0  0  0  0  0  0  0  0  0  0
    1.4661    1.3496   -1.4492 C   0  0  0  0  0  0  0  0  0  0  0  0
    0.7235    2.1892   -2.2166 N   0  0  0  0  0  0  0  0  0  0  0  0
   -0.6136    2.2468   -2.1675 C   0  0  0  0  0  0  0  0  0  0  0  0
   -1.2448    1.4038   -1.2880 C   0  0  0  0  0  0  0  0  0  0  0  0
   -2.5769    1.4467   -1.2249 N   0  0  0  0  0  0  0  0  0  0  0  0
   -3.3248    2.3634   -2.0677 C   0  0  0  0  0  0  0  0  0  0  0  0
   -3.2585    0.6337   -0.3710 C   0  0  0  0  0  0  0  0  0  0  0  0
   -4.5088    0.6952   -0.3325 O   0  0  0  0  0  0  0  0  0  0  0  0
   -2.6154   -0.2493    0.4470 C   0  0  0  0  0  0  0  0  0  0  0  0
   -3.3437   -1.0569    1.2991 C   0  0  0  0  0  0  0  0  0  0  0  0
   -4.8290   -1.0327    1.3928 C   0  0  0  0  0  0  0  0  0  0  0  0
   -2.5919   -1.9264    2.0951 C   0  0  0  0  0  0  0  0  0  0  0  0
   -1.2207   -1.9763    2.0357 C   0  0  0  0  0  0  0  0  0  0  0  0
   -0.5397   -1.1502    1.1690 C   0  0  0  0  0  0  0  0  0  0  0  0
   -1.2299   -0.2792    0.3667 C   0  0  0  0  0  0  0  0  0  0  0  0
   -0.5258    0.5396   -0.4946 C   0  0  0  0  0  0  0  0  0  0  0  0
    0.8272    0.5315   -0.5938 N   0  0  0  0  0  0  0  0  0  0  0  0
    3.2999   -0.3975    0.1249 N   0  0  0  0  0  0  0  0  0  0  0  0
    2.7601   -2.7895    1.4017 H   0  0  0  0  0  0  0  0  0  0  0  0
    4.3475   -2.7295    2.3026 H   0  0  0  0  0  0  0  0  0  0  0  0
    3.0672   -1.5181    2.6321 H   0  0  0  0  0  0  0  0  0  0  0  0
    7.0409   -0.1861   -0.3789 H   0  0  0  0  0  0  0  0  0  0  0  0
    5.5577    1.2480   -1.6728 H   0  0  0  0  0  0  0  0  0  0  0  0
    3.3262    1.9866   -2.2233 H   0  0  0  0  0  0  0  0  0  0  0  0
   -1.1995    2.9141   -2.7777 H   0  0  0  0  0  0  0  0  0  0  0  0
   -4.4135    2.1995   -1.9354 H   0  0  0  0  0  0  0  0  0  0  0  0
   -3.1172    2.1746   -3.1521 H   0  0  0  0  0  0  0  0  0  0  0  0
   -3.0868    3.4305   -1.7923 H   0  0  0  0  0  0  0  0  0  0  0  0
   -5.2392   -0.1117    1.8350 H   0  0  0  0  0  0  0  0  0  0  0  0
   -5.3486   -1.4198    0.5060 H   0  0  0  0  0  0  0  0  0  0  0  0
   -5.0938   -1.8102    2.1797 H   0  0  0  0  0  0  0  0  0  0  0  0
   -3.1273   -2.5907    2.7910 H   0  0  0  0  0  0  0  0  0  0  0  0
   -0.6622   -2.6629    2.6669 H   0  0  0  0  0  0  0  0  0  0  0  0
    0.5384   -1.1595    1.0928 H   0  0  0  0  0  0  0  0  0  0  0  0
  1  2  1  0
  2  3  2  0
  3  4  1  0
  4  5  2  0
  5  6  1  0
  6  7  1  0
  7  8  1  0
  8  9  2  0
  9 10  1  0
 10 11  2  0
 11 12  1  0
 12 13  1  0
 12 14  1  0
 14 15  2  0
 14 16  1  0
 16 17  2  0
 17 18  1  0
 17 19  1  0
 19 20  2  0
 20 21  1  0
 21 22  2  0
 22 23  1  0
 23 24  2  0
  6 25  2  0
 25  2  1  0
 24  8  1  0
 23 11  1  0
 22 16  1  0
  1 26  1  0
  1 27  1  0
  1 28  1  0
  4 29  1  0
  5 30  1  0
  7 31  1  0
 10 32  1  0
 13 33  1  0
 13 34  1  0
 13 35  1  0
 18 36  1  0
 18 37  1  0
 18 38  1  0
 19 39  1  0
 20 40  1  0
 21 41  1  0
M  END
$$$$
[H]OC(=O)c1oc2c([H])c([H])c(F)c([H])c2c1-c1c([H])c([H])c(C([H])([H])[C@@]2([H])O[C@]([H])(O[H])C2([H])[H])c([H])c1[H]
     RDKit          3D

 40 43  0  0  0  0  0  0  0  0999 V2000
    6.1016   -1.6238   -0.7026 O   0  0  0  0  0  0  0  0  0  0  0  0
    5.0436   -1.0865    0.0310 C   0  0  2  0  0  0  0  0  0  0  0  0
    4.1994   -0.0950   -0.7462 C   0  0  0  0  0  0  0  0  0  0  0  0
    4.1133    0.5204    0.6060 C   0  0  1  0  0  0  0  0  0  0  0  0
    3.0866    0.0379    1.5639 C   0  0  0  0  0  0  0  0  0  0  0  0
    1.7228    0.2197    1.0146 C   0  0  0  0  0  0  0  0  0  0  0  0
    0.9868    1.3834    1.2476 C   0  0  0  0  0  0  0  0  0  0  0  0
   -0.2892    1.5189    0.7409 C   0  0  0  0  0  0  0  0  0  0  0  0
   -0.8905    0.5409   -0.0022 C   0  0  0  0  0  0  0  0  0  0  0  0
   -0.1262   -0.6050   -0.2165 C   0  0  0  0  0  0  0  0  0  0  0  0
    1.1370   -0.7603    0.2758 C   0  0  0  0  0  0  0  0  0  0  0  0
   -2.2285    0.5915   -0.5273 C   0  0  0  0  0  0  0  0  0  0  0  0
   -2.8377    1.3678   -1.4760 C   0  0  0  0  0  0  0  0  0  0  0  0
   -2.1554    2.4182   -2.1981 C   0  0  0  0  0  0  0  0  0  0  0  0
   -0.8529    2.7743   -2.0611 O   0  0  0  0  0  0  0  0  0  0  0  0
   -2.8469    3.0769   -3.0497 O   0  0  0  0  0  0  0  0  0  0  0  0
   -4.0864    0.9970   -1.5982 O   0  0  0  0  0  0  0  0  0  0  0  0
   -4.3622   -0.0039   -0.7726 C   0  0  0  0  0  0  0  0  0  0  0  0
   -5.5307   -0.7046   -0.5605 C   0  0  0  0  0  0  0  0  0  0  0  0
   -5.5531   -1.7215    0.3720 C   0  0  0  0  0  0  0  0  0  0  0  0
   -4.3916   -2.0000    1.0639 C   0  0  0  0  0  0  0  0  0  0  0  0
   -4.3806   -2.9951    1.9854 F   0  0  0  0  0  0  0  0  0  0  0  0
   -3.2202   -1.3052    0.8588 C   0  0  0  0  0  0  0  0  0  0  0  0
   -3.2221   -0.2958   -0.0754 C   0  0  0  0  0  0  0  0  0  0  0  0
    5.3916   -0.0263    0.8710 O   0  0  0  0  0  0  0  0  0  0  0  0
    5.9311   -2.5881   -0.8473 H   0  0  0  0  0  0  0  0  0  0  0  0
    4.4762   -1.8588    0.5738 H   0  0  0  0  0  0  0  0  0  0  0  0
    4.8811    0.5115   -1.3911 H   0  0  0  0  0  0  0  0  0  0  0  0
    3.3079   -0.4787   -1.2297 H   0  0  0  0  0  0  0  0  0  0  0  0
    4.1969    1.6261    0.6333 H   0  0  0  0  0  0  0  0  0  0  0  0
    3.1937   -1.0172    1.8873 H   0  0  0  0  0  0  0  0  0  0  0  0
    3.1363    0.7254    2.4552 H   0  0  0  0  0  0  0  0  0  0  0  0
    1.4533    2.1636    1.8323 H   0  0  0  0  0  0  0  0  0  0  0  0
   -0.8174    2.4286    0.9443 H   0  0  0  0  0  0  0  0  0  0  0  0
   -0.5352   -1.4168   -0.7932 H   0  0  0  0  0  0  0  0  0  0  0  0
    1.7111   -1.6715    0.0920 H   0  0  0  0  0  0  0  0  0  0  0  0
   -0.5244    3.6324   -1.6374 H   0  0  0  0  0  0  0  0  0  0  0  0
   -6.4394   -0.4709   -1.1143 H   0  0  0  0  0  0  0  0  0  0  0  0
   -6.4708   -2.2975    0.5592 H   0  0  0  0  0  0  0  0  0  0  0  0
   -2.3087   -1.5119    1.3913 H   0  0  0  0  0  0  0  0  0  0  0  0
  1  2  1  0
  2  3  1  0
  3  4  1  0
  4  5  1  0
  5  6  1  0
  6  7  2  0
  7  8  1  0
  8  9  2  0
  9 10  1  0
 10 11  2  0
  9 12  1  0
 12 13  2  0
 13 14  1  0
 14 15  1  0
 14 16  2  0
 13 17  1  0
 17 18  1  0
 18 19  2  0
 19 20  1  0
 20 21  2  0
 21 22  1  0
 21 23  1  0
 23 24  2  0
  4 25  1  0
 25  2  1  0
 11  6  1  0
 24 12  1  0
 24 18  1  0
  1 26  1  0
  2 27  1  1
  3 28  1  0
  3 29  1  0
  4 30  1  6
  5 31  1  0
  5 32  1  0
  7 33  1  0
  8 34  1  0
 10 35  1  0
 11 36  1  0
 15 37  1  0
 19 38  1  0
 20 39  1  0
 23 40  1  0
M  END
$$$$
[H]c1nc(C([H])([H])[H])c([H])c(-c2c(N([H])[H])nc([H])c(-c3c([H])c(C(=O)N([H])[C@]4([H])c5c([H])c([H])c([H])c([H])c5-c5c(C([H])([H])[H])nn([H])c5C([H])([H])C4([H])[H])c([H])c([H])c3C([H])([H])[H])c2[H])c1[H]
     RDKit          3D

 69 74  0  0  0  0  0  0  0  0999 V2000
   -9.7909   -2.4278   -0.2318 C   0  0  0  0  0  0  0  0  0  0  0  0
   -8.8397   -1.3627   -0.6335 C   0  0  0  0  0  0  0  0  0  0  0  0
   -7.7219   -1.0210    0.1371 C   0  0  0  0  0  0  0  0  0  0  0  0
   -6.8644   -0.0281   -0.2689 C   0  0  0  0  0  0  0  0  0  0  0  0
   -7.1553    0.6111   -1.4639 C   0  0  0  0  0  0  0  0  0  0  0  0
   -8.2533    0.2877   -2.2377 C   0  0  0  0  0  0  0  0  0  0  0  0
   -9.0506   -0.6946   -1.7784 N   0  0  0  0  0  0  0  0  0  0  0  0
   -5.6972    0.3391    0.5328 C   0  0  0  0  0  0  0  0  0  0  0  0
   -4.4707    0.4686   -0.0733 C   0  0  0  0  0  0  0  0  0  0  0  0
   -3.3733    0.8061    0.6487 C   0  0  0  0  0  0  0  0  0  0  0  0
   -3.5305    1.0170    2.0248 C   0  0  0  0  0  0  0  0  0  0  0  0
   -4.7172    0.8871    2.5873 N   0  0  0  0  0  0  0  0  0  0  0  0
   -5.8144    0.5551    1.8954 C   0  0  0  0  0  0  0  0  0  0  0  0
   -7.0436    0.4423    2.5783 N   0  0  0  0  0  0  0  0  0  0  0  0
   -2.0420    0.9731    0.0918 C   0  0  0  0  0  0  0  0  0  0  0  0
   -0.9322    0.3709    0.6695 C   0  0  0  0  0  0  0  0  0  0  0  0
    0.3280    0.5149    0.1454 C   0  0  0  0  0  0  0  0  0  0  0  0
    0.4700    1.2834   -0.9870 C   0  0  0  0  0  0  0  0  0  0  0  0
   -0.6014    1.8965   -1.5899 C   0  0  0  0  0  0  0  0  0  0  0  0
   -1.8822    1.7374   -1.0379 C   0  0  0  0  0  0  0  0  0  0  0  0
   -2.9760    2.4402   -1.7458 C   0  0  0  0  0  0  0  0  0  0  0  0
    1.5204   -0.0876    0.7191 C   0  0  0  0  0  0  0  0  0  0  0  0
    1.3635   -0.5375    1.9120 O   0  0  0  0  0  0  0  0  0  0  0  0
    2.7419   -0.1823    0.0528 N   0  0  0  0  0  0  0  0  0  0  0  0
    3.8861   -0.7929    0.6909 C   0  0  1  0  0  0  0  0  0  0  0  0
    4.2215   -2.1112    0.1613 C   0  0  0  0  0  0  0  0  0  0  0  0
    5.3992   -2.8360    0.8413 C   0  0  0  0  0  0  0  0  0  0  0  0
    6.6214   -2.4419    0.0473 C   0  0  0  0  0  0  0  0  0  0  0  0
    7.4562   -3.1216   -0.6748 N   0  0  0  0  0  0  0  0  0  0  0  0
    8.3281   -2.2993   -1.2885 N   0  0  0  0  0  0  0  0  0  0  0  0
    8.0428   -0.9920   -0.9423 C   0  0  0  0  0  0  0  0  0  0  0  0
    8.7126    0.2079   -1.4683 C   0  0  0  0  0  0  0  0  0  0  0  0
    6.9885   -1.0819   -0.1102 C   0  0  0  0  0  0  0  0  0  0  0  0
    6.3403    0.0419    0.5653 C   0  0  0  0  0  0  0  0  0  0  0  0
    7.2804    1.0059    0.8445 C   0  0  0  0  0  0  0  0  0  0  0  0
    6.8202    2.1587    1.4650 C   0  0  0  0  0  0  0  0  0  0  0  0
    5.4808    2.2924    1.7730 C   0  0  0  0  0  0  0  0  0  0  0  0
    4.5946    1.3182    1.4838 C   0  0  0  0  0  0  0  0  0  0  0  0
    4.9950    0.1361    0.8600 C   0  0  0  0  0  0  0  0  0  0  0  0
  -10.7767   -2.1844   -0.6846 H   0  0  0  0  0  0  0  0  0  0  0  0
   -9.4569   -3.4326   -0.5548 H   0  0  0  0  0  0  0  0  0  0  0  0
   -9.8627   -2.4373    0.8832 H   0  0  0  0  0  0  0  0  0  0  0  0
   -7.5649   -1.5672    1.0509 H   0  0  0  0  0  0  0  0  0  0  0  0
   -6.4907    1.3940   -1.7976 H   0  0  0  0  0  0  0  0  0  0  0  0
   -8.4380    0.8129   -3.1582 H   0  0  0  0  0  0  0  0  0  0  0  0
   -4.4046    0.2918   -1.1258 H   0  0  0  0  0  0  0  0  0  0  0  0
   -2.6695    1.2872    2.6233 H   0  0  0  0  0  0  0  0  0  0  0  0
   -7.9265    0.8942    2.3070 H   0  0  0  0  0  0  0  0  0  0  0  0
   -7.0739   -0.1567    3.4475 H   0  0  0  0  0  0  0  0  0  0  0  0
   -1.0738   -0.2276    1.5575 H   0  0  0  0  0  0  0  0  0  0  0  0
    1.4438    1.4543   -1.4721 H   0  0  0  0  0  0  0  0  0  0  0  0
   -0.4560    2.4909   -2.4734 H   0  0  0  0  0  0  0  0  0  0  0  0
   -3.7732    2.8241   -1.0742 H   0  0  0  0  0  0  0  0  0  0  0  0
   -2.5336    3.3697   -2.2030 H   0  0  0  0  0  0  0  0  0  0  0  0
   -3.3474    1.8487   -2.5969 H   0  0  0  0  0  0  0  0  0  0  0  0
    2.8641    0.1717   -0.8975 H   0  0  0  0  0  0  0  0  0  0  0  0
    3.5290   -0.9924    1.7725 H   0  0  0  0  0  0  0  0  0  0  0  0
    4.5122   -2.0604   -0.9304 H   0  0  0  0  0  0  0  0  0  0  0  0
    3.3648   -2.8365    0.1470 H   0  0  0  0  0  0  0  0  0  0  0  0
    5.2286   -3.9258    0.7682 H   0  0  0  0  0  0  0  0  0  0  0  0
    5.4478   -2.4730    1.8840 H   0  0  0  0  0  0  0  0  0  0  0  0
    7.4390   -4.1750   -0.7584 H   0  0  0  0  0  0  0  0  0  0  0  0
    8.0662    1.0930   -1.6385 H   0  0  0  0  0  0  0  0  0  0  0  0
    8.9506   -0.0615   -2.5574 H   0  0  0  0  0  0  0  0  0  0  0  0
    9.7195    0.4138   -1.0862 H   0  0  0  0  0  0  0  0  0  0  0  0
    8.2990    0.8627    0.6660 H   0  0  0  0  0  0  0  0  0  0  0  0
    7.4995    2.9661    1.7163 H   0  0  0  0  0  0  0  0  0  0  0  0
    5.1285    3.2079    2.2618 H   0  0  0  0  0  0  0  0  0  0  0  0
    3.5212    1.3743    1.7091 H   0  0  0  0  0  0  0  0  0  0  0  0
  1  2  1  0
  2  3  2  0
  3  4  1  0
  4  5  2  0
  5  6  1  0
  6  7  2  0
  4  8  1  0
  8  9  2  0
  9 10  1  0
 10 11  2  0
 11 12  1  0
 12 13  2  0
 13 14  1  0
 10 15  1  0
 15 16  2  0
 16 17  1  0
 17 18  2  0
 18 19  1  0
 19 20  2  0
 20 21  1  0
 17 22  1  0
 22 23  2  0
 22 24  1  0
 24 25  1  0
 25 26  1  0
 26 27  1  0
 27 28  1  0
 28 29  1  0
 29 30  1  0
 30 31  2  0
 31 32  1  0
 31 33  1  0
 33 34  1  0
 34 35  2  0
 35 36  1  0
 36 37  2  0
 37 38  1  0
 38 39  2  0
  7  2  1  0
 13  8  1  0
 20 15  1  0
 39 25  1  0
 33 28  2  0
 39 34  1  0
  1 40  1  0
  1 41  1  0
  1 42  1  0
  3 43  1  0
  5 44  1  0
  6 45  1  0
  9 46  1  0
 11 47  1  0
 14 48  1  0
 14 49  1  0
 16 50  1  0
 18 51  1  0
 19 52  1  0
 21 53  1  0
 21 54  1  0
 21 55  1  0
 24 56  1  0
 25 57  1  1
 26 58  1  0
 26 59  1  0
 27 60  1  0
 27 61  1  0
 29 62  1  0
 32 63  1  0
 32 64  1  0
 32 65  1  0
 35 66  1  0
 36 67  1  0
 37 68  1  0
 38 69  1  0
M  END
$$$$
[H]OC(C([H])([H])[H])(C([H])([H])[H])[C@@]([H])(N([H])C(=O)c1c([H])c([H])c(-c2c([H])c([H])c([H])c([H])c2[H])c([H])c1[H])C([H])([H])Oc1c([H])c([H])c(S(=O)(=O)C([H])([H])[H])c([H])c1[H]
     RDKit          3D

 59 61  0  0  0  0  0  0  0  0999 V2000
   -0.8544   -3.1111   -1.7300 C   0  0  0  0  0  0  0  0  0  0  0  0
   -1.3715   -2.5162   -0.4188 C   0  0  0  0  0  0  0  0  0  0  0  0
   -2.8354   -2.8537   -0.2258 C   0  0  0  0  0  0  0  0  0  0  0  0
   -0.7481   -3.2978    0.6008 O   0  0  0  0  0  0  0  0  0  0  0  0
   -1.0382   -1.0747   -0.2463 C   0  0  2  0  0  0  0  0  0  0  0  0
   -1.5464   -0.1361   -1.2928 C   0  0  0  0  0  0  0  0  0  0  0  0
   -2.8515    0.0041   -1.5666 O   0  0  0  0  0  0  0  0  0  0  0  0
   -3.9579    0.4005   -0.8857 C   0  0  0  0  0  0  0  0  0  0  0  0
   -4.0248    0.7992    0.4240 C   0  0  0  0  0  0  0  0  0  0  0  0
   -5.2297    1.1846    1.0164 C   0  0  0  0  0  0  0  0  0  0  0  0
   -6.3880    1.1752    0.2999 C   0  0  0  0  0  0  0  0  0  0  0  0
   -6.3605    0.7781   -1.0258 C   0  0  0  0  0  0  0  0  0  0  0  0
   -5.1642    0.4053   -1.5843 C   0  0  0  0  0  0  0  0  0  0  0  0
   -7.9278    1.6535    0.9727 S   0  0  0  0  0  0  0  0  0  0  0  0
   -8.0717    3.4161    0.6414 C   0  0  0  0  0  0  0  0  0  0  0  0
   -9.0295    0.9828    0.1840 O   0  0  0  0  0  0  0  0  0  0  0  0
   -8.0293    1.3794    2.4285 O   0  0  0  0  0  0  0  0  0  0  0  0
    0.4138   -0.8628   -0.2717 N   0  0  0  0  0  0  0  0  0  0  0  0
    1.1204   -0.0308    0.6280 C   0  0  0  0  0  0  0  0  0  0  0  0
    0.4726    0.5739    1.5139 O   0  0  0  0  0  0  0  0  0  0  0  0
    2.5598    0.1536    0.5668 C   0  0  0  0  0  0  0  0  0  0  0  0
    3.4143   -0.7820    1.1608 C   0  0  0  0  0  0  0  0  0  0  0  0
    4.7853   -0.6272    1.0907 C   0  0  0  0  0  0  0  0  0  0  0  0
    5.3785    0.4358    0.4465 C   0  0  0  0  0  0  0  0  0  0  0  0
    4.5492    1.3688   -0.1444 C   0  0  0  0  0  0  0  0  0  0  0  0
    3.1734    1.2057   -0.0697 C   0  0  0  0  0  0  0  0  0  0  0  0
    6.8576    0.5488    0.3864 C   0  0  0  0  0  0  0  0  0  0  0  0
    7.4887    1.7440    0.3625 C   0  0  0  0  0  0  0  0  0  0  0  0
    8.8763    1.8472    0.2941 C   0  0  0  0  0  0  0  0  0  0  0  0
    9.5795    0.6611    0.2515 C   0  0  0  0  0  0  0  0  0  0  0  0
    8.9672   -0.5691    0.2730 C   0  0  0  0  0  0  0  0  0  0  0  0
    7.5877   -0.6174    0.3417 C   0  0  0  0  0  0  0  0  0  0  0  0
   -1.0971   -4.2006   -1.7815 H   0  0  0  0  0  0  0  0  0  0  0  0
   -1.2679   -2.5372   -2.5762 H   0  0  0  0  0  0  0  0  0  0  0  0
    0.2481   -3.0753   -1.8103 H   0  0  0  0  0  0  0  0  0  0  0  0
   -3.4307   -2.6814   -1.1274 H   0  0  0  0  0  0  0  0  0  0  0  0
   -3.2384   -2.2115    0.5816 H   0  0  0  0  0  0  0  0  0  0  0  0
   -2.8967   -3.9309    0.0752 H   0  0  0  0  0  0  0  0  0  0  0  0
   -0.0293   -2.7402    1.0381 H   0  0  0  0  0  0  0  0  0  0  0  0
   -1.4120   -0.7203    0.7194 H   0  0  0  0  0  0  0  0  0  0  0  0
   -1.1018    0.8814   -1.0385 H   0  0  0  0  0  0  0  0  0  0  0  0
   -0.9637   -0.3945   -2.2396 H   0  0  0  0  0  0  0  0  0  0  0  0
   -3.1526    0.8301    1.0257 H   0  0  0  0  0  0  0  0  0  0  0  0
   -5.2682    1.5022    2.0704 H   0  0  0  0  0  0  0  0  0  0  0  0
   -7.2916    0.7716   -1.5971 H   0  0  0  0  0  0  0  0  0  0  0  0
   -5.1923    0.1077   -2.6320 H   0  0  0  0  0  0  0  0  0  0  0  0
   -8.1838    3.5837   -0.4425 H   0  0  0  0  0  0  0  0  0  0  0  0
   -8.8965    3.8590    1.2021 H   0  0  0  0  0  0  0  0  0  0  0  0
   -7.0937    3.8565    0.9406 H   0  0  0  0  0  0  0  0  0  0  0  0
    0.9597   -1.3648   -1.0009 H   0  0  0  0  0  0  0  0  0  0  0  0
    2.9340   -1.6146    1.6684 H   0  0  0  0  0  0  0  0  0  0  0  0
    5.4486   -1.3612    1.5606 H   0  0  0  0  0  0  0  0  0  0  0  0
    5.0035    2.2026   -0.6499 H   0  0  0  0  0  0  0  0  0  0  0  0
    2.5042    1.9448   -0.5362 H   0  0  0  0  0  0  0  0  0  0  0  0
    6.9049    2.6723    0.3986 H   0  0  0  0  0  0  0  0  0  0  0  0
    9.3860    2.7934    0.2766 H   0  0  0  0  0  0  0  0  0  0  0  0
   10.6840    0.6792    0.1971 H   0  0  0  0  0  0  0  0  0  0  0  0
    9.5613   -1.4988    0.2370 H   0  0  0  0  0  0  0  0  0  0  0  0
    7.0865   -1.5918    0.3579 H   0  0  0  0  0  0  0  0  0  0  0  0
  1  2  1  0
  2  3  1  0
  2  4  1  0
  2  5  1  0
  5  6  1  0
  6  7  1  0
  7  8  1  0
  8  9  2  0
  9 10  1  0
 10 11  2  0
 11 12  1  0
 12 13  2  0
 11 14  1  0
 14 15  1  0
 14 16  2  0
 14 17  2  0
  5 18  1  0
 18 19  1  0
 19 20  2  0
 19 21  1  0
 21 22  2  0
 22 23  1  0
 23 24  2  0
 24 25  1  0
 25 26  2  0
 24 27  1  0
 27 28  2  0
 28 29  1  0
 29 30  2  0
 30 31  1  0
 31 32  2  0
 13  8  1  0
 26 21  1  0
 32 27  1  0
  1 33  1  0
  1 34  1  0
  1 35  1  0
  3 36  1  0
  3 37  1  0
  3 38  1  0
  4 39  1  0
  5 40  1  1
  6 41  1  0
  6 42  1  0
  9 43  1  0
 10 44  1  0
 12 45  1  0
 13 46  1  0
 15 47  1  0
 15 48  1  0
 15 49  1  0
 18 50  1  0
 22 51  1  0
 23 52  1  0
 25 53  1  0
 26 54  1  0
 28 55  1  0
 29 56  1  0
 30 57  1  0
 31 58  1  0
 32 59  1  0
M  END
$$$$
[H]OC(=O)c1c([H])c([H])c([H])c2c(C(=O)N([H])C3([H])C([H])([H])C([H])([H])N(C([H])([H])c4nc([H])c([H])c([H])c4[N+](=O)[O-])C([H])([H])C3([H])[H])nn(-c3c([H])c([H])c([H])c([H])c3[H])c12
     RDKit          3D

 61 65  0  0  0  0  0  0  0  0999 V2000
    7.9824    2.1043    1.0376 O   0  0  0  0  0  0  0  0  0  0  0  0
    8.0544    1.0040    1.8245 N   0  0  0  0  0  0  0  0  0  0  0  0
    9.1588    0.5266    2.1174 O   0  0  0  0  0  0  0  0  0  0  0  0
    6.8770    0.3831    2.3238 C   0  0  0  0  0  0  0  0  0  0  0  0
    6.9725   -0.3207    3.5288 C   0  0  0  0  0  0  0  0  0  0  0  0
    5.8772   -0.9435    4.0264 C   0  0  0  0  0  0  0  0  0  0  0  0
    4.6650   -0.8905    3.3550 C   0  0  0  0  0  0  0  0  0  0  0  0
    4.6238   -0.2111    2.2171 N   0  0  0  0  0  0  0  0  0  0  0  0
    5.6714    0.4283    1.6695 C   0  0  0  0  0  0  0  0  0  0  0  0
    5.5010    1.1723    0.3830 C   0  0  0  0  0  0  0  0  0  0  0  0
    4.2078    1.1056   -0.1774 N   0  0  0  0  0  0  0  0  0  0  0  0
    3.1151    1.6296    0.5460 C   0  0  0  0  0  0  0  0  0  0  0  0
    2.1279    2.1457   -0.5206 C   0  0  0  0  0  0  0  0  0  0  0  0
    1.6067    0.9110   -1.2171 C   0  0  0  0  0  0  0  0  0  0  0  0
    2.4873   -0.3125   -0.9735 C   0  0  0  0  0  0  0  0  0  0  0  0
    3.9416    0.1364   -1.1706 C   0  0  0  0  0  0  0  0  0  0  0  0
    0.2677    0.5819   -0.8400 N   0  0  0  0  0  0  0  0  0  0  0  0
   -0.7765    0.5124   -1.8311 C   0  0  0  0  0  0  0  0  0  0  0  0
   -0.5336    0.7358   -3.0304 O   0  0  0  0  0  0  0  0  0  0  0  0
   -2.1331    0.1761   -1.4189 C   0  0  0  0  0  0  0  0  0  0  0  0
   -2.5453   -0.0858   -0.1720 N   0  0  0  0  0  0  0  0  0  0  0  0
   -3.8575   -0.3559   -0.1486 N   0  0  0  0  0  0  0  0  0  0  0  0
   -4.3073   -0.2661   -1.3999 C   0  0  0  0  0  0  0  0  0  0  0  0
   -5.5318   -0.4472   -1.9941 C   0  0  0  0  0  0  0  0  0  0  0  0
   -5.6693   -0.3008   -3.3832 C   0  0  0  0  0  0  0  0  0  0  0  0
   -4.6320    0.0231   -4.2055 C   0  0  0  0  0  0  0  0  0  0  0  0
   -3.4063    0.2076   -3.6078 C   0  0  0  0  0  0  0  0  0  0  0  0
   -3.2236    0.0730   -2.2473 C   0  0  0  0  0  0  0  0  0  0  0  0
   -6.7563   -0.7008   -1.2392 C   0  0  0  0  0  0  0  0  0  0  0  0
   -7.4459   -1.9028   -1.4662 O   0  0  0  0  0  0  0  0  0  0  0  0
   -7.2236    0.0961   -0.4011 O   0  0  0  0  0  0  0  0  0  0  0  0
   -4.5660   -0.7133    1.0273 C   0  0  0  0  0  0  0  0  0  0  0  0
   -4.9717   -2.0303    1.1949 C   0  0  0  0  0  0  0  0  0  0  0  0
   -5.6056   -2.4280    2.3352 C   0  0  0  0  0  0  0  0  0  0  0  0
   -5.8526   -1.5086    3.3482 C   0  0  0  0  0  0  0  0  0  0  0  0
   -5.4655   -0.1900    3.2210 C   0  0  0  0  0  0  0  0  0  0  0  0
   -4.8267    0.1877    2.0597 C   0  0  0  0  0  0  0  0  0  0  0  0
    7.9512   -0.3450    4.0414 H   0  0  0  0  0  0  0  0  0  0  0  0
    5.9095   -1.5004    4.9575 H   0  0  0  0  0  0  0  0  0  0  0  0
    3.7697   -1.3719    3.7145 H   0  0  0  0  0  0  0  0  0  0  0  0
    5.6520    2.2608    0.6928 H   0  0  0  0  0  0  0  0  0  0  0  0
    6.2558    0.9163   -0.3702 H   0  0  0  0  0  0  0  0  0  0  0  0
    2.5728    0.9057    1.1844 H   0  0  0  0  0  0  0  0  0  0  0  0
    3.4395    2.4437    1.2152 H   0  0  0  0  0  0  0  0  0  0  0  0
    2.7568    2.7585   -1.2100 H   0  0  0  0  0  0  0  0  0  0  0  0
    1.3619    2.7876   -0.0946 H   0  0  0  0  0  0  0  0  0  0  0  0
    1.6690    1.0972   -2.3095 H   0  0  0  0  0  0  0  0  0  0  0  0
    2.1975   -1.0452   -1.7775 H   0  0  0  0  0  0  0  0  0  0  0  0
    2.3166   -0.7466    0.0209 H   0  0  0  0  0  0  0  0  0  0  0  0
    3.9586    0.6228   -2.1732 H   0  0  0  0  0  0  0  0  0  0  0  0
    4.5899   -0.7409   -1.1984 H   0  0  0  0  0  0  0  0  0  0  0  0
    0.0194    0.3856    0.1518 H   0  0  0  0  0  0  0  0  0  0  0  0
   -6.6611   -0.4566   -3.8191 H   0  0  0  0  0  0  0  0  0  0  0  0
   -4.7752    0.1280   -5.2805 H   0  0  0  0  0  0  0  0  0  0  0  0
   -2.5625    0.4656   -4.2258 H   0  0  0  0  0  0  0  0  0  0  0  0
   -6.9749   -2.7629   -1.2181 H   0  0  0  0  0  0  0  0  0  0  0  0
   -4.7894   -2.7644    0.4205 H   0  0  0  0  0  0  0  0  0  0  0  0
   -5.9183   -3.4399    2.4647 H   0  0  0  0  0  0  0  0  0  0  0  0
   -6.3560   -1.8533    4.2381 H   0  0  0  0  0  0  0  0  0  0  0  0
   -5.6683    0.5140    4.0243 H   0  0  0  0  0  0  0  0  0  0  0  0
   -4.5218    1.2089    1.9508 H   0  0  0  0  0  0  0  0  0  0  0  0
  1  2  1  0
  2  3  2  0
  2  4  1  0
  4  5  2  0
  5  6  1  0
  6  7  2  0
  7  8  1  0
  8  9  2  0
  9 10  1  0
 10 11  1  0
 11 12  1  0
 12 13  1  0
 13 14  1  0
 14 15  1  0
 15 16  1  0
 14 17  1  0
 17 18  1  0
 18 19  2  0
 18 20  1  0
 20 21  2  0
 21 22  1  0
 22 23  1  0
 23 24  2  0
 24 25  1  0
 25 26  2  0
 26 27  1  0
 27 28  2  0
 24 29  1  0
 29 30  1  0
 29 31  2  0
 22 32  1  0
 32 33  2  0
 33 34  1  0
 34 35  2  0
 35 36  1  0
 36 37  2  0
  9  4  1  0
 16 11  1  0
 28 20  1  0
 37 32  1  0
 28 23  1  0
  5 38  1  0
  6 39  1  0
  7 40  1  0
 10 41  1  0
 10 42  1  0
 12 43  1  0
 12 44  1  0
 13 45  1  0
 13 46  1  0
 14 47  1  0
 15 48  1  0
 15 49  1  0
 16 50  1  0
 16 51  1  0
 17 52  1  0
 25 53  1  0
 26 54  1  0
 27 55  1  0
 30 56  1  0
 33 57  1  0
 34 58  1  0
 35 59  1  0
 36 60  1  0
 37 61  1  0
M  CHG  2   1  -1   2   1
M  END
$$$$
[H]c1nc([H])c([H])c(-c2c([H])c([H])c(OC([H])([H])C([H])([H])C([H])([H])n3c(C#N)c(-c4sc(Cl)c([H])c4[H])c(=O)n(-c4c([H])c([H])c([H])c(Br)c4[H])c3=S)c([H])c2[H])c1[H]
     RDKit          3D

 59 63  0  0  0  0  0  0  0  0999 V2000
   -6.4020    4.1648   -3.5445 Br  0  0  0  0  0  0  0  0  0  0  0  0
   -5.7151    3.6500   -1.8231 C   0  0  0  0  0  0  0  0  0  0  0  0
   -5.7821    4.5936   -0.8211 C   0  0  0  0  0  0  0  0  0  0  0  0
   -5.2952    4.2462    0.4218 C   0  0  0  0  0  0  0  0  0  0  0  0
   -4.7609    2.9807    0.6274 C   0  0  0  0  0  0  0  0  0  0  0  0
   -4.6944    2.0367   -0.3768 C   0  0  0  0  0  0  0  0  0  0  0  0
   -5.1819    2.3879   -1.6169 C   0  0  0  0  0  0  0  0  0  0  0  0
   -4.1329    0.7612   -0.0894 N   0  0  0  0  0  0  0  0  0  0  0  0
   -2.7987    0.6515    0.0135 C   0  0  0  0  0  0  0  0  0  0  0  0
   -1.8661    1.9897   -0.1939 S   0  0  0  0  0  0  0  0  0  0  0  0
   -2.1735   -0.4975    0.2782 N   0  0  0  0  0  0  0  0  0  0  0  0
   -0.7337   -0.5777    0.3832 C   0  0  0  0  0  0  0  0  0  0  0  0
   -0.0992   -0.8797   -0.9585 C   0  0  0  0  0  0  0  0  0  0  0  0
    1.3934   -0.9678   -0.8746 C   0  0  0  0  0  0  0  0  0  0  0  0
    1.9909    0.2154   -0.4222 O   0  0  0  0  0  0  0  0  0  0  0  0
    3.3742    0.3198   -0.2805 C   0  0  0  0  0  0  0  0  0  0  0  0
    3.9684    1.4861    0.1660 C   0  0  0  0  0  0  0  0  0  0  0  0
    5.3234    1.5732    0.2996 C   0  0  0  0  0  0  0  0  0  0  0  0
    6.1098    0.4953   -0.0108 C   0  0  0  0  0  0  0  0  0  0  0  0
    5.5341   -0.6730   -0.4565 C   0  0  0  0  0  0  0  0  0  0  0  0
    4.1542   -0.7721   -0.5962 C   0  0  0  0  0  0  0  0  0  0  0  0
    7.5486    0.5704    0.1253 C   0  0  0  0  0  0  0  0  0  0  0  0
    8.3856   -0.1572   -0.7143 C   0  0  0  0  0  0  0  0  0  0  0  0
    9.7570   -0.1073   -0.6103 C   0  0  0  0  0  0  0  0  0  0  0  0
   10.3242    0.6655    0.3289 N   0  0  0  0  0  0  0  0  0  0  0  0
    9.5431    1.3847    1.1604 C   0  0  0  0  0  0  0  0  0  0  0  0
    8.1722    1.3563    1.0820 C   0  0  0  0  0  0  0  0  0  0  0  0
   -2.9312   -1.6376    0.4570 C   0  0  0  0  0  0  0  0  0  0  0  0
   -2.1917   -2.8473    0.6581 C   0  0  0  0  0  0  0  0  0  0  0  0
   -1.5755   -3.8159    0.7886 N   0  0  0  0  0  0  0  0  0  0  0  0
   -4.2738   -1.5970    0.3701 C   0  0  0  0  0  0  0  0  0  0  0  0
   -4.8444   -0.3414    0.0862 C   0  0  0  0  0  0  0  0  0  0  0  0
   -6.0849   -0.2861   -0.0002 O   0  0  0  0  0  0  0  0  0  0  0  0
   -5.1610   -2.7258    0.6204 C   0  0  0  0  0  0  0  0  0  0  0  0
   -5.0639   -3.9073    1.2699 C   0  0  0  0  0  0  0  0  0  0  0  0
   -6.1470   -4.6998    1.3473 C   0  0  0  0  0  0  0  0  0  0  0  0
   -7.2944   -4.2628    0.7622 C   0  0  0  0  0  0  0  0  0  0  0  0
   -8.8649   -5.0974    0.7105 Cl  0  0  0  0  0  0  0  0  0  0  0  0
   -6.8442   -2.7646    0.1190 S   0  0  0  0  0  0  0  0  0  0  0  0
   -6.2015    5.5880   -0.9816 H   0  0  0  0  0  0  0  0  0  0  0  0
   -5.3415    4.9856    1.2283 H   0  0  0  0  0  0  0  0  0  0  0  0
   -4.3745    2.7080    1.6174 H   0  0  0  0  0  0  0  0  0  0  0  0
   -5.1451    1.6709   -2.4273 H   0  0  0  0  0  0  0  0  0  0  0  0
   -0.4209   -1.3994    1.0800 H   0  0  0  0  0  0  0  0  0  0  0  0
   -0.3010    0.3520    0.7769 H   0  0  0  0  0  0  0  0  0  0  0  0
   -0.5237   -1.8449   -1.2979 H   0  0  0  0  0  0  0  0  0  0  0  0
   -0.3465   -0.0513   -1.6628 H   0  0  0  0  0  0  0  0  0  0  0  0
    1.7697   -1.1746   -1.9004 H   0  0  0  0  0  0  0  0  0  0  0  0
    1.6810   -1.8570   -0.2580 H   0  0  0  0  0  0  0  0  0  0  0  0
    3.2899    2.3168    0.3997 H   0  0  0  0  0  0  0  0  0  0  0  0
    5.7707    2.4805    0.6458 H   0  0  0  0  0  0  0  0  0  0  0  0
    6.1013   -1.5624   -0.7189 H   0  0  0  0  0  0  0  0  0  0  0  0
    3.7007   -1.6983   -0.9493 H   0  0  0  0  0  0  0  0  0  0  0  0
    7.9422   -0.7826   -1.4740 H   0  0  0  0  0  0  0  0  0  0  0  0
   10.3920   -0.6784   -1.2699 H   0  0  0  0  0  0  0  0  0  0  0  0
   10.0423    1.9934    1.9019 H   0  0  0  0  0  0  0  0  0  0  0  0
    7.5689    1.9455    1.7644 H   0  0  0  0  0  0  0  0  0  0  0  0
   -4.1186   -4.2159    1.7665 H   0  0  0  0  0  0  0  0  0  0  0  0
   -6.1519   -5.6893    1.8625 H   0  0  0  0  0  0  0  0  0  0  0  0
  1  2  1  0
  2  3  2  0
  3  4  1  0
  4  5  2  0
  5  6  1  0
  6  7  2  0
  6  8  1  0
  8  9  1  0
  9 10  2  0
  9 11  1  0
 11 12  1  0
 12 13  1  0
 13 14  1  0
 14 15  1  0
 15 16  1  0
 16 17  2  0
 17 18  1  0
 18 19  2  0
 19 20  1  0
 20 21  2  0
 19 22  1  0
 22 23  2  0
 23 24  1  0
 24 25  2  0
 25 26  1  0
 26 27  2  0
 11 28  1  0
 28 29  1  0
 29 30  3  0
 28 31  2  0
 31 32  1  0
 32 33  2  0
 31 34  1  0
 34 35  2  0
 35 36  1  0
 36 37  2  0
 37 38  1  0
 37 39  1  0
  7  2  1  0
 32  8  1  0
 39 34  1  0
 21 16  1  0
 27 22  1  0
  3 40  1  0
  4 41  1  0
  5 42  1  0
  7 43  1  0
 12 44  1  0
 12 45  1  0
 13 46  1  0
 13 47  1  0
 14 48  1  0
 14 49  1  0
 17 50  1  0
 18 51  1  0
 20 52  1  0
 21 53  1  0
 23 54  1  0
 24 55  1  0
 26 56  1  0
 27 57  1  0
 35 58  1  0
 36 59  1  0
M  END
$$$$
[H]Oc1c([H])c([H])c2c(c1[H])OC([H])([H])C([H])(c1c([H])c([H])c([H])c(C(=O)C([H])([H])[H])c1[H])O2
     RDKit          3D

 34 36  0  0  0  0  0  0  0  0999 V2000
    4.0953    2.4794    0.9413 C   0  0  0  0  0  0  0  0  0  0  0  0
    2.7459    1.9424    0.6574 C   0  0  0  0  0  0  0  0  0  0  0  0
    1.7795    2.7420    0.6403 O   0  0  0  0  0  0  0  0  0  0  0  0
    2.5977    0.5169    0.4113 C   0  0  0  0  0  0  0  0  0  0  0  0
    3.6601   -0.3310    0.4355 C   0  0  0  0  0  0  0  0  0  0  0  0
    3.4503   -1.6912    0.1904 C   0  0  0  0  0  0  0  0  0  0  0  0
    2.1913   -2.1897   -0.0747 C   0  0  0  0  0  0  0  0  0  0  0  0
    1.1104   -1.3337   -0.1003 C   0  0  0  0  0  0  0  0  0  0  0  0
    1.3298    0.0060    0.1430 C   0  0  0  0  0  0  0  0  0  0  0  0
   -0.2523   -1.8483   -0.3833 C   0  0  0  0  0  0  0  0  0  0  0  0
   -1.0404   -2.0953    0.8830 C   0  0  0  0  0  0  0  0  0  0  0  0
   -1.8333   -0.9796    1.2228 O   0  0  0  0  0  0  0  0  0  0  0  0
   -2.5411   -0.2827    0.2592 C   0  0  0  0  0  0  0  0  0  0  0  0
   -3.6860    0.4394    0.5236 C   0  0  0  0  0  0  0  0  0  0  0  0
   -4.3619    1.1236   -0.4809 C   0  0  0  0  0  0  0  0  0  0  0  0
   -5.5117    1.8300   -0.1300 O   0  0  0  0  0  0  0  0  0  0  0  0
   -3.8905    1.0895   -1.7739 C   0  0  0  0  0  0  0  0  0  0  0  0
   -2.7406    0.3643   -2.0400 C   0  0  0  0  0  0  0  0  0  0  0  0
   -2.0706   -0.3158   -1.0362 C   0  0  0  0  0  0  0  0  0  0  0  0
   -0.9324   -1.0339   -1.2981 O   0  0  0  0  0  0  0  0  0  0  0  0
    4.7949    2.0302    0.2011 H   0  0  0  0  0  0  0  0  0  0  0  0
    4.4401    2.2299    1.9700 H   0  0  0  0  0  0  0  0  0  0  0  0
    4.1080    3.5765    0.7998 H   0  0  0  0  0  0  0  0  0  0  0  0
    4.6570    0.0444    0.6424 H   0  0  0  0  0  0  0  0  0  0  0  0
    4.3420   -2.3148    0.2245 H   0  0  0  0  0  0  0  0  0  0  0  0
    2.1074   -3.2473   -0.2535 H   0  0  0  0  0  0  0  0  0  0  0  0
    0.4676    0.6643    0.1187 H   0  0  0  0  0  0  0  0  0  0  0  0
   -0.1338   -2.8539   -0.8850 H   0  0  0  0  0  0  0  0  0  0  0  0
   -1.7133   -2.9849    0.7188 H   0  0  0  0  0  0  0  0  0  0  0  0
   -0.3434   -2.3023    1.7442 H   0  0  0  0  0  0  0  0  0  0  0  0
   -4.0368    0.4494    1.5553 H   0  0  0  0  0  0  0  0  0  0  0  0
   -6.0411    2.3433   -0.8152 H   0  0  0  0  0  0  0  0  0  0  0  0
   -4.4110    1.6214   -2.5699 H   0  0  0  0  0  0  0  0  0  0  0  0
   -2.3369    0.3115   -3.0412 H   0  0  0  0  0  0  0  0  0  0  0  0
  1  2  1  0
  2  3  2  0
  2  4  1  0
  4  5  2  0
  5  6  1  0
  6  7  2  0
  7  8  1  0
  8  9  2  0
  8 10  1  0
 10 11  1  0
 11 12  1  0
 12 13  1  0
 13 14  2  0
 14 15  1  0
 15 16  1  0
 15 17  2  0
 17 18  1  0
 18 19  2  0
 19 20  1  0
  9  4  1  0
 20 10  1  0
 19 13  1  0
  1 21  1  0
  1 22  1  0
  1 23  1  0
  5 24  1  0
  6 25  1  0
  7 26  1  0
  9 27  1  0
 10 28  1  0
 11 29  1  0
 11 30  1  0
 14 31  1  0
 16 32  1  0
 17 33  1  0
 18 34  1  0
M  END
$$$$
[H]OC([H])([H])c1c([H])c(-c2c([H])c([H])c([H])c([H])c2[H])c([H])c(C([H])([H])C(=O)N([H])[C@]([H])(C(=O)N2C([H])([H])C([H])([H])C([H])([H])[C@@]2([H])C([H])([H])O[H])C([H])([H])c2c([H])c([H])c([H])c([H])c2[H])c1[H]
     RDKit          3D

 67 70  0  0  0  0  0  0  0  0999 V2000
    4.8849   -4.2044    1.7013 O   0  0  0  0  0  0  0  0  0  0  0  0
    4.0337   -3.2352    2.1975 C   0  0  0  0  0  0  0  0  0  0  0  0
    3.7545   -2.1483    1.2278 C   0  0  0  0  0  0  0  0  0  0  0  0
    2.6808   -2.2330    0.3529 C   0  0  0  0  0  0  0  0  0  0  0  0
    2.3921   -1.2367   -0.5643 C   0  0  0  0  0  0  0  0  0  0  0  0
    1.2360   -1.3746   -1.4765 C   0  0  0  0  0  0  0  0  0  0  0  0
   -0.0251   -0.8161   -0.8729 C   0  0  0  0  0  0  0  0  0  0  0  0
    0.0883   -0.3354    0.2739 O   0  0  0  0  0  0  0  0  0  0  0  0
   -1.2422   -0.8426   -1.5700 N   0  0  0  0  0  0  0  0  0  0  0  0
   -2.4966   -0.3303   -1.0900 C   0  0  1  0  0  0  0  0  0  0  0  0
   -3.0002   -1.0889    0.0960 C   0  0  0  0  0  0  0  0  0  0  0  0
   -3.2249   -2.5089   -0.3069 C   0  0  0  0  0  0  0  0  0  0  0  0
   -4.4005   -2.8926   -0.9212 C   0  0  0  0  0  0  0  0  0  0  0  0
   -4.5961   -4.1960   -1.2612 C   0  0  0  0  0  0  0  0  0  0  0  0
   -3.6411   -5.1463   -1.0043 C   0  0  0  0  0  0  0  0  0  0  0  0
   -2.4579   -4.8001   -0.3934 C   0  0  0  0  0  0  0  0  0  0  0  0
   -2.2728   -3.4526   -0.0494 C   0  0  0  0  0  0  0  0  0  0  0  0
   -2.4183    1.1402   -0.8993 C   0  0  0  0  0  0  0  0  0  0  0  0
   -1.2804    1.6653   -1.0710 O   0  0  0  0  0  0  0  0  0  0  0  0
   -3.4682    1.9879   -0.5542 N   0  0  0  0  0  0  0  0  0  0  0  0
   -4.9090    1.7235   -0.3517 C   0  0  0  0  0  0  0  0  0  0  0  0
   -5.0414    2.2539    1.0614 C   0  0  0  0  0  0  0  0  0  0  0  0
   -4.0575    3.4380    1.1043 C   0  0  0  0  0  0  0  0  0  0  0  0
   -3.4018    3.3991   -0.2671 C   0  0  1  0  0  0  0  0  0  0  0  0
   -2.0602    4.0247   -0.2851 C   0  0  0  0  0  0  0  0  0  0  0  0
   -2.2087    5.3891    0.0242 O   0  0  0  0  0  0  0  0  0  0  0  0
    3.2228   -0.1183   -0.5919 C   0  0  0  0  0  0  0  0  0  0  0  0
    4.2978    0.0009    0.2607 C   0  0  0  0  0  0  0  0  0  0  0  0
    4.5497   -1.0057    1.1530 C   0  0  0  0  0  0  0  0  0  0  0  0
    5.1697    1.1675    0.2341 C   0  0  0  0  0  0  0  0  0  0  0  0
    6.5044    1.1044    0.5497 C   0  0  0  0  0  0  0  0  0  0  0  0
    7.3219    2.2199    0.5197 C   0  0  0  0  0  0  0  0  0  0  0  0
    6.8040    3.4663    0.1609 C   0  0  0  0  0  0  0  0  0  0  0  0
    5.4654    3.5356   -0.1567 C   0  0  0  0  0  0  0  0  0  0  0  0
    4.6590    2.3953   -0.1194 C   0  0  0  0  0  0  0  0  0  0  0  0
    4.7909   -4.3673    0.7477 H   0  0  0  0  0  0  0  0  0  0  0  0
    3.0806   -3.7175    2.5234 H   0  0  0  0  0  0  0  0  0  0  0  0
    4.4526   -2.7577    3.1099 H   0  0  0  0  0  0  0  0  0  0  0  0
    2.0556   -3.1086    0.3964 H   0  0  0  0  0  0  0  0  0  0  0  0
    1.4158   -0.7363   -2.3896 H   0  0  0  0  0  0  0  0  0  0  0  0
    1.0462   -2.4192   -1.7348 H   0  0  0  0  0  0  0  0  0  0  0  0
   -1.2276   -1.2875   -2.5485 H   0  0  0  0  0  0  0  0  0  0  0  0
   -3.2349   -0.4364   -1.9601 H   0  0  0  0  0  0  0  0  0  0  0  0
   -2.1510   -1.1291    0.8552 H   0  0  0  0  0  0  0  0  0  0  0  0
   -3.8271   -0.6657    0.6468 H   0  0  0  0  0  0  0  0  0  0  0  0
   -5.1524   -2.1430   -1.1232 H   0  0  0  0  0  0  0  0  0  0  0  0
   -5.5118   -4.5563   -1.7517 H   0  0  0  0  0  0  0  0  0  0  0  0
   -3.7900   -6.2011   -1.2755 H   0  0  0  0  0  0  0  0  0  0  0  0
   -1.6793   -5.5248   -0.1747 H   0  0  0  0  0  0  0  0  0  0  0  0
   -1.3443   -3.2228    0.4397 H   0  0  0  0  0  0  0  0  0  0  0  0
   -5.2154    0.7143   -0.5219 H   0  0  0  0  0  0  0  0  0  0  0  0
   -5.4384    2.4751   -0.9928 H   0  0  0  0  0  0  0  0  0  0  0  0
   -4.7130    1.4419    1.7456 H   0  0  0  0  0  0  0  0  0  0  0  0
   -6.0448    2.6204    1.2896 H   0  0  0  0  0  0  0  0  0  0  0  0
   -3.2955    3.1914    1.8581 H   0  0  0  0  0  0  0  0  0  0  0  0
   -4.5826    4.3861    1.2981 H   0  0  0  0  0  0  0  0  0  0  0  0
   -4.1258    3.8820   -0.9715 H   0  0  0  0  0  0  0  0  0  0  0  0
   -1.6822    4.0188   -1.3437 H   0  0  0  0  0  0  0  0  0  0  0  0
   -1.3780    3.5612    0.4260 H   0  0  0  0  0  0  0  0  0  0  0  0
   -3.0757    5.6760   -0.3868 H   0  0  0  0  0  0  0  0  0  0  0  0
    2.9809    0.6441   -1.3117 H   0  0  0  0  0  0  0  0  0  0  0  0
    5.3927   -0.9231    1.8289 H   0  0  0  0  0  0  0  0  0  0  0  0
    6.9102    0.1318    0.8300 H   0  0  0  0  0  0  0  0  0  0  0  0
    8.3718    2.1855    0.7649 H   0  0  0  0  0  0  0  0  0  0  0  0
    7.4620    4.3188    0.1455 H   0  0  0  0  0  0  0  0  0  0  0  0
    5.0277    4.4844   -0.4397 H   0  0  0  0  0  0  0  0  0  0  0  0
    3.6209    2.5190   -0.3794 H   0  0  0  0  0  0  0  0  0  0  0  0
  1  2  1  0
  2  3  1  0
  3  4  2  0
  4  5  1  0
  5  6  1  0
  6  7  1  0
  7  8  2  0
  7  9  1  0
  9 10  1  0
 10 11  1  0
 11 12  1  0
 12 13  2  0
 13 14  1  0
 14 15  2  0
 15 16  1  0
 16 17  2  0
 10 18  1  0
 18 19  2  0
 18 20  1  0
 20 21  1  0
 21 22  1  0
 22 23  1  0
 23 24  1  0
 24 25  1  0
 25 26  1  0
  5 27  2  0
 27 28  1  0
 28 29  2  0
 28 30  1  0
 30 31  2  0
 31 32  1  0
 32 33  2  0
 33 34  1  0
 34 35  2  0
 29  3  1  0
 35 30  1  0
 17 12  1  0
 24 20  1  0
  1 36  1  0
  2 37  1  0
  2 38  1  0
  4 39  1  0
  6 40  1  0
  6 41  1  0
  9 42  1  0
 10 43  1  6
 11 44  1  0
 11 45  1  0
 13 46  1  0
 14 47  1  0
 15 48  1  0
 16 49  1  0
 17 50  1  0
 21 51  1  0
 21 52  1  0
 22 53  1  0
 22 54  1  0
 23 55  1  0
 23 56  1  0
 24 57  1  6
 25 58  1  0
 25 59  1  0
 26 60  1  0
 27 61  1  0
 29 62  1  0
 31 63  1  0
 32 64  1  0
 33 65  1  0
 34 66  1  0
 35 67  1  0
M  END
$$$$
[H]c1nc(-c2c(-c3c([H])c([H])c(F)c([H])c3[H])nc(-c3c([H])c([H])c(N([H])S(=O)(=O)C([H])([H])[H])c([H])c3[H])n2[H])sc1[H]
     RDKit          3D

 43 46  0  0  0  0  0  0  0  0999 V2000
    6.6232    1.0382   -1.2869 C   0  0  0  0  0  0  0  0  0  0  0  0
    6.8126    0.3078    0.3451 S   0  0  0  0  0  0  0  0  0  0  0  0
    8.2094   -0.2466    0.3858 O   0  0  0  0  0  0  0  0  0  0  0  0
    6.6547    1.4334    1.3263 O   0  0  0  0  0  0  0  0  0  0  0  0
    5.6613   -0.9379    0.5345 N   0  0  0  0  0  0  0  0  0  0  0  0
    4.2594   -0.6978    0.4832 C   0  0  0  0  0  0  0  0  0  0  0  0
    3.6369    0.3425    1.1338 C   0  0  0  0  0  0  0  0  0  0  0  0
    2.2656    0.5229    1.0449 C   0  0  0  0  0  0  0  0  0  0  0  0
    1.4728   -0.3286    0.3048 C   0  0  0  0  0  0  0  0  0  0  0  0
    2.0824   -1.3742   -0.3515 C   0  0  0  0  0  0  0  0  0  0  0  0
    3.4449   -1.5399   -0.2537 C   0  0  0  0  0  0  0  0  0  0  0  0
    0.0338   -0.0983    0.2403 C   0  0  0  0  0  0  0  0  0  0  0  0
   -0.8151   -0.8533   -0.4359 N   0  0  0  0  0  0  0  0  0  0  0  0
   -2.0923   -0.3892   -0.3064 C   0  0  0  0  0  0  0  0  0  0  0  0
   -1.9902    0.7034    0.4932 C   0  0  0  0  0  0  0  0  0  0  0  0
   -0.6914    0.8688    0.8182 N   0  0  0  0  0  0  0  0  0  0  0  0
   -3.0894    1.5791    0.9506 C   0  0  0  0  0  0  0  0  0  0  0  0
   -4.3827    1.5106    0.6971 N   0  0  0  0  0  0  0  0  0  0  0  0
   -5.1877    2.3912    1.2054 C   0  0  0  0  0  0  0  0  0  0  0  0
   -4.6436    3.3698    1.9973 C   0  0  0  0  0  0  0  0  0  0  0  0
   -2.9849    2.9515    1.9571 S   0  0  0  0  0  0  0  0  0  0  0  0
   -3.2666   -0.9713   -0.9168 C   0  0  0  0  0  0  0  0  0  0  0  0
   -3.7251   -2.2123   -0.5427 C   0  0  0  0  0  0  0  0  0  0  0  0
   -4.8327   -2.7984   -1.1066 C   0  0  0  0  0  0  0  0  0  0  0  0
   -5.5374   -2.1469   -2.0888 C   0  0  0  0  0  0  0  0  0  0  0  0
   -6.6425   -2.6997   -2.6709 F   0  0  0  0  0  0  0  0  0  0  0  0
   -5.1002   -0.9003   -2.4839 C   0  0  0  0  0  0  0  0  0  0  0  0
   -3.9753   -0.3261   -1.8984 C   0  0  0  0  0  0  0  0  0  0  0  0
    7.3906    1.8265   -1.4093 H   0  0  0  0  0  0  0  0  0  0  0  0
    6.6974    0.2366   -2.0372 H   0  0  0  0  0  0  0  0  0  0  0  0
    5.5922    1.4458   -1.3227 H   0  0  0  0  0  0  0  0  0  0  0  0
    5.9694   -1.9345    0.6970 H   0  0  0  0  0  0  0  0  0  0  0  0
    4.2648    1.0126    1.7177 H   0  0  0  0  0  0  0  0  0  0  0  0
    1.8193    1.3591    1.5765 H   0  0  0  0  0  0  0  0  0  0  0  0
    1.4571   -2.0460   -0.9355 H   0  0  0  0  0  0  0  0  0  0  0  0
    3.9203   -2.3785   -0.7820 H   0  0  0  0  0  0  0  0  0  0  0  0
   -0.2863    1.6253    1.4249 H   0  0  0  0  0  0  0  0  0  0  0  0
   -6.2830    2.3630    1.0123 H   0  0  0  0  0  0  0  0  0  0  0  0
   -5.1715    4.1957    2.5101 H   0  0  0  0  0  0  0  0  0  0  0  0
   -3.1500   -2.7185    0.2431 H   0  0  0  0  0  0  0  0  0  0  0  0
   -5.1605   -3.7714   -0.7870 H   0  0  0  0  0  0  0  0  0  0  0  0
   -5.6379   -0.3723   -3.2523 H   0  0  0  0  0  0  0  0  0  0  0  0
   -3.6220    0.6583   -2.2037 H   0  0  0  0  0  0  0  0  0  0  0  0
  1  2  1  0
  2  3  2  0
  2  4  2  0
  2  5  1  0
  5  6  1  0
  6  7  2  0
  7  8  1  0
  8  9  2  0
  9 10  1  0
 10 11  2  0
  9 12  1  0
 12 13  2  0
 13 14  1  0
 14 15  2  0
 15 16  1  0
 15 17  1  0
 17 18  2  0
 18 19  1  0
 19 20  2  0
 20 21  1  0
 14 22  1  0
 22 23  2  0
 23 24  1  0
 24 25  2  0
 25 26  1  0
 25 27  1  0
 27 28  2  0
 11  6  1  0
 16 12  1  0
 21 17  1  0
 28 22  1  0
  1 29  1  0
  1 30  1  0
  1 31  1  0
  5 32  1  0
  7 33  1  0
  8 34  1  0
 10 35  1  0
 11 36  1  0
 16 37  1  0
 19 38  1  0
 20 39  1  0
 23 40  1  0
 24 41  1  0
 27 42  1  0
 28 43  1  0
M  END
$$$$
[H]c1c(OC([H])([H])C([H])([H])OC([H])([H])[H])c([H])c2c(N(C([H])([H])[H])C([H])([H])[H])nc(N([H])c3c([H])c([H])c4c(c3[H])c([H])c([H])n4C([H])([H])[H])nc2c1[H]
     RDKit          3D

 54 57  0  0  0  0  0  0  0  0999 V2000
    7.8069   -0.5406    0.8774 C   0  0  0  0  0  0  0  0  0  0  0  0
    7.3274   -0.0353   -0.3269 O   0  0  0  0  0  0  0  0  0  0  0  0
    6.0436   -0.6072   -0.5054 C   0  0  0  0  0  0  0  0  0  0  0  0
    5.5372   -0.0514   -1.8125 C   0  0  0  0  0  0  0  0  0  0  0  0
    4.2949   -0.4579   -2.2153 O   0  0  0  0  0  0  0  0  0  0  0  0
    3.0475   -0.3244   -1.7048 C   0  0  0  0  0  0  0  0  0  0  0  0
    2.0100   -0.9209   -2.4333 C   0  0  0  0  0  0  0  0  0  0  0  0
    0.7131   -0.8392   -1.9990 C   0  0  0  0  0  0  0  0  0  0  0  0
    0.4463   -0.1593   -0.8313 C   0  0  0  0  0  0  0  0  0  0  0  0
   -0.8013   -0.0360   -0.3547 N   0  0  0  0  0  0  0  0  0  0  0  0
   -1.1388    0.6074    0.7568 C   0  0  0  0  0  0  0  0  0  0  0  0
   -2.4638    0.6979    1.1967 N   0  0  0  0  0  0  0  0  0  0  0  0
   -3.6474    0.2028    0.6428 C   0  0  0  0  0  0  0  0  0  0  0  0
   -3.7761   -0.2591   -0.6339 C   0  0  0  0  0  0  0  0  0  0  0  0
   -4.9718   -0.7658   -1.1481 C   0  0  0  0  0  0  0  0  0  0  0  0
   -6.0672   -0.7947   -0.3158 C   0  0  0  0  0  0  0  0  0  0  0  0
   -7.3415   -1.2276   -0.5435 N   0  0  0  0  0  0  0  0  0  0  0  0
   -7.8064   -1.7779   -1.8014 C   0  0  0  0  0  0  0  0  0  0  0  0
   -8.0532   -1.0507    0.5827 C   0  0  0  0  0  0  0  0  0  0  0  0
   -7.2473   -0.5020    1.5496 C   0  0  0  0  0  0  0  0  0  0  0  0
   -5.9849   -0.3372    0.9846 C   0  0  0  0  0  0  0  0  0  0  0  0
   -4.7944    0.1570    1.4666 C   0  0  0  0  0  0  0  0  0  0  0  0
   -0.1299    1.1711    1.4408 N   0  0  0  0  0  0  0  0  0  0  0  0
    1.1567    1.1111    1.0582 C   0  0  0  0  0  0  0  0  0  0  0  0
    2.1657    1.7110    1.8547 N   0  0  0  0  0  0  0  0  0  0  0  0
    3.0773    0.8611    2.5697 C   0  0  0  0  0  0  0  0  0  0  0  0
    2.2815    3.1391    1.9507 C   0  0  0  0  0  0  0  0  0  0  0  0
    1.4746    0.4394   -0.0966 C   0  0  0  0  0  0  0  0  0  0  0  0
    2.7616    0.3481   -0.5460 C   0  0  0  0  0  0  0  0  0  0  0  0
    8.8239   -0.0984    1.0359 H   0  0  0  0  0  0  0  0  0  0  0  0
    7.1717   -0.1857    1.7188 H   0  0  0  0  0  0  0  0  0  0  0  0
    7.8147   -1.6424    0.9020 H   0  0  0  0  0  0  0  0  0  0  0  0
    6.2675   -1.6893   -0.7078 H   0  0  0  0  0  0  0  0  0  0  0  0
    5.4091   -0.4591    0.3552 H   0  0  0  0  0  0  0  0  0  0  0  0
    6.2789   -0.4266   -2.5870 H   0  0  0  0  0  0  0  0  0  0  0  0
    5.6728    1.0584   -1.8567 H   0  0  0  0  0  0  0  0  0  0  0  0
    2.1993   -1.4599   -3.3537 H   0  0  0  0  0  0  0  0  0  0  0  0
   -0.1176   -1.2954   -2.5479 H   0  0  0  0  0  0  0  0  0  0  0  0
   -2.5698    1.2532    2.1232 H   0  0  0  0  0  0  0  0  0  0  0  0
   -2.9739   -0.2505   -1.3199 H   0  0  0  0  0  0  0  0  0  0  0  0
   -5.0546   -1.1272   -2.1606 H   0  0  0  0  0  0  0  0  0  0  0  0
   -7.9347   -0.9870   -2.5642 H   0  0  0  0  0  0  0  0  0  0  0  0
   -7.0909   -2.5486   -2.1887 H   0  0  0  0  0  0  0  0  0  0  0  0
   -8.7651   -2.3369   -1.6143 H   0  0  0  0  0  0  0  0  0  0  0  0
   -9.0945   -1.3103    0.6785 H   0  0  0  0  0  0  0  0  0  0  0  0
   -7.5384   -0.2488    2.5517 H   0  0  0  0  0  0  0  0  0  0  0  0
   -4.7396    0.5133    2.4890 H   0  0  0  0  0  0  0  0  0  0  0  0
    3.0219   -0.1997    2.2328 H   0  0  0  0  0  0  0  0  0  0  0  0
    2.7453    0.8761    3.6483 H   0  0  0  0  0  0  0  0  0  0  0  0
    4.1167    1.2453    2.5859 H   0  0  0  0  0  0  0  0  0  0  0  0
    3.3180    3.5026    2.0183 H   0  0  0  0  0  0  0  0  0  0  0  0
    1.7421    3.5578    2.8286 H   0  0  0  0  0  0  0  0  0  0  0  0
    1.8418    3.6567    1.0495 H   0  0  0  0  0  0  0  0  0  0  0  0
    3.5352    0.8437    0.0350 H   0  0  0  0  0  0  0  0  0  0  0  0
  1  2  1  0
  2  3  1  0
  3  4  1  0
  4  5  1  0
  5  6  1  0
  6  7  2  0
  7  8  1  0
  8  9  2  0
  9 10  1  0
 10 11  2  0
 11 12  1  0
 12 13  1  0
 13 14  2  0
 14 15  1  0
 15 16  2  0
 16 17  1  0
 17 18  1  0
 17 19  1  0
 19 20  2  0
 20 21  1  0
 21 22  2  0
 11 23  1  0
 23 24  2  0
 24 25  1  0
 25 26  1  0
 25 27  1  0
 24 28  1  0
 28 29  2  0
 29  6  1  0
 28  9  1  0
 22 13  1  0
 21 16  1  0
  1 30  1  0
  1 31  1  0
  1 32  1  0
  3 33  1  0
  3 34  1  0
  4 35  1  0
  4 36  1  0
  7 37  1  0
  8 38  1  0
 12 39  1  0
 14 40  1  0
 15 41  1  0
 18 42  1  0
 18 43  1  0
 18 44  1  0
 19 45  1  0
 20 46  1  0
 22 47  1  0
 26 48  1  0
 26 49  1  0
 26 50  1  0
 27 51  1  0
 27 52  1  0
 27 53  1  0
 29 54  1  0
M  END
$$$$
[H]OC(=O)[C@@]([H])(C([H])([H])C(=O)N([H])C1([H])c2c([H])c([H])c([H])c([H])c2C([H])([H])C([H])([H])C([H])([H])C1([H])[H])C([H])([H])C([H])([H])C([H])([H])C([H])([H])N([H])C(=O)C([H])([H])[C@]([H])(S[H])C([H])([H])C([H])([H])c1c([H])c([H])c([H])c([H])c1[H]
     RDKit          3D

 77 79  0  0  0  0  0  0  0  0999 V2000
   -1.1951   -1.2269   -1.4940 O   0  0  0  0  0  0  0  0  0  0  0  0
   -1.5277   -0.1094   -2.2387 C   0  0  0  0  0  0  0  0  0  0  0  0
   -1.9646   -0.2683   -3.4027 O   0  0  0  0  0  0  0  0  0  0  0  0
   -1.3526    1.2591   -1.6229 C   0  0  2  0  0  0  0  0  0  0  0  0
    0.1607    1.4182   -1.3105 C   0  0  0  0  0  0  0  0  0  0  0  0
    0.3709    2.7545   -0.7247 C   0  0  0  0  0  0  0  0  0  0  0  0
    1.7593    3.0518   -0.3276 C   0  0  0  0  0  0  0  0  0  0  0  0
    2.8229    3.0331   -1.3333 C   0  0  0  0  0  0  0  0  0  0  0  0
    3.0652    1.7733   -1.9361 N   0  0  0  0  0  0  0  0  0  0  0  0
    3.5070    0.6192   -1.1865 C   0  0  0  0  0  0  0  0  0  0  0  0
    3.6782    0.7622    0.0257 O   0  0  0  0  0  0  0  0  0  0  0  0
    3.7033   -0.6040   -1.9608 C   0  0  0  0  0  0  0  0  0  0  0  0
    4.2540   -1.7856   -1.2699 C   0  0  2  0  0  0  0  0  0  0  0  0
    3.2712   -2.3545    0.1508 S   0  0  0  0  0  0  0  0  0  0  0  0
    5.7124   -1.8561   -1.0457 C   0  0  0  0  0  0  0  0  0  0  0  0
    6.3519   -0.7863   -0.2392 C   0  0  0  0  0  0  0  0  0  0  0  0
    7.8399   -1.0606   -0.1250 C   0  0  0  0  0  0  0  0  0  0  0  0
    8.7389   -0.5823   -1.0401 C   0  0  0  0  0  0  0  0  0  0  0  0
   10.0735   -0.8558   -0.8975 C   0  0  0  0  0  0  0  0  0  0  0  0
   10.5041   -1.6134    0.1703 C   0  0  0  0  0  0  0  0  0  0  0  0
    9.6170   -2.1064    1.1059 C   0  0  0  0  0  0  0  0  0  0  0  0
    8.2826   -1.8198    0.9431 C   0  0  0  0  0  0  0  0  0  0  0  0
   -2.0735    1.2481   -0.3022 C   0  0  0  0  0  0  0  0  0  0  0  0
   -3.5272    0.9392   -0.5084 C   0  0  0  0  0  0  0  0  0  0  0  0
   -3.9899    0.8073   -1.6681 O   0  0  0  0  0  0  0  0  0  0  0  0
   -4.4140    0.7875    0.5891 N   0  0  0  0  0  0  0  0  0  0  0  0
   -5.8002    0.4939    0.3662 C   0  0  0  0  0  0  0  0  0  0  0  0
   -6.6319    1.5017    1.1240 C   0  0  0  0  0  0  0  0  0  0  0  0
   -6.5365    1.1494    2.5931 C   0  0  0  0  0  0  0  0  0  0  0  0
   -7.9125    0.7123    3.0495 C   0  0  0  0  0  0  0  0  0  0  0  0
   -8.3976   -0.3884    2.1310 C   0  0  0  0  0  0  0  0  0  0  0  0
   -7.2933   -1.2318    1.6374 C   0  0  0  0  0  0  0  0  0  0  0  0
   -7.4644   -2.5391    2.0129 C   0  0  0  0  0  0  0  0  0  0  0  0
   -6.5259   -3.4679    1.6397 C   0  0  0  0  0  0  0  0  0  0  0  0
   -5.4153   -3.1393    0.9006 C   0  0  0  0  0  0  0  0  0  0  0  0
   -5.2581   -1.7991    0.5264 C   0  0  0  0  0  0  0  0  0  0  0  0
   -6.1920   -0.8696    0.8969 C   0  0  0  0  0  0  0  0  0  0  0  0
   -1.5258   -1.3985   -0.5536 H   0  0  0  0  0  0  0  0  0  0  0  0
   -1.7047    2.0001   -2.3256 H   0  0  0  0  0  0  0  0  0  0  0  0
    0.6942    1.2512   -2.2849 H   0  0  0  0  0  0  0  0  0  0  0  0
    0.4123    0.5790   -0.6463 H   0  0  0  0  0  0  0  0  0  0  0  0
   -0.2592    2.8458    0.1997 H   0  0  0  0  0  0  0  0  0  0  0  0
    0.0651    3.5844   -1.4489 H   0  0  0  0  0  0  0  0  0  0  0  0
    1.9917    2.3593    0.5502 H   0  0  0  0  0  0  0  0  0  0  0  0
    1.7174    4.0732    0.2121 H   0  0  0  0  0  0  0  0  0  0  0  0
    2.5841    3.8250   -2.0983 H   0  0  0  0  0  0  0  0  0  0  0  0
    3.7599    3.4433   -0.8302 H   0  0  0  0  0  0  0  0  0  0  0  0
    2.9118    1.7079   -2.9808 H   0  0  0  0  0  0  0  0  0  0  0  0
    2.7210   -0.8454   -2.4406 H   0  0  0  0  0  0  0  0  0  0  0  0
    4.3757   -0.3681   -2.8203 H   0  0  0  0  0  0  0  0  0  0  0  0
    4.0617   -2.6477   -2.0379 H   0  0  0  0  0  0  0  0  0  0  0  0
    3.5069   -1.4985    1.2334 H   0  0  0  0  0  0  0  0  0  0  0  0
    6.2161   -1.9526   -2.0571 H   0  0  0  0  0  0  0  0  0  0  0  0
    5.9945   -2.8354   -0.5493 H   0  0  0  0  0  0  0  0  0  0  0  0
    6.3320    0.1912   -0.7993 H   0  0  0  0  0  0  0  0  0  0  0  0
    6.0097   -0.7046    0.7872 H   0  0  0  0  0  0  0  0  0  0  0  0
    8.3392    0.0077   -1.8599 H   0  0  0  0  0  0  0  0  0  0  0  0
   10.7611   -0.4670   -1.6331 H   0  0  0  0  0  0  0  0  0  0  0  0
   11.5626   -1.8448    0.3061 H   0  0  0  0  0  0  0  0  0  0  0  0
    9.9856   -2.7073    1.9457 H   0  0  0  0  0  0  0  0  0  0  0  0
    7.5700   -2.2069    1.6823 H   0  0  0  0  0  0  0  0  0  0  0  0
   -2.0914    2.2555    0.1992 H   0  0  0  0  0  0  0  0  0  0  0  0
   -1.5681    0.5571    0.3736 H   0  0  0  0  0  0  0  0  0  0  0  0
   -4.0090    0.9000    1.5616 H   0  0  0  0  0  0  0  0  0  0  0  0
   -6.0016    0.4962   -0.7269 H   0  0  0  0  0  0  0  0  0  0  0  0
   -7.6721    1.4339    0.7454 H   0  0  0  0  0  0  0  0  0  0  0  0
   -6.3095    2.5437    0.9199 H   0  0  0  0  0  0  0  0  0  0  0  0
   -6.1667    1.9987    3.1671 H   0  0  0  0  0  0  0  0  0  0  0  0
   -5.8646    0.2729    2.7748 H   0  0  0  0  0  0  0  0  0  0  0  0
   -7.8707    0.3948    4.1155 H   0  0  0  0  0  0  0  0  0  0  0  0
   -8.5741    1.5948    2.9397 H   0  0  0  0  0  0  0  0  0  0  0  0
   -9.0836   -1.0136    2.7369 H   0  0  0  0  0  0  0  0  0  0  0  0
   -9.0247    0.0162    1.2990 H   0  0  0  0  0  0  0  0  0  0  0  0
   -8.3400   -2.8574    2.6081 H   0  0  0  0  0  0  0  0  0  0  0  0
   -6.6976   -4.5084    1.9584 H   0  0  0  0  0  0  0  0  0  0  0  0
   -4.6725   -3.8645    0.6036 H   0  0  0  0  0  0  0  0  0  0  0  0
   -4.3773   -1.5566   -0.0555 H   0  0  0  0  0  0  0  0  0  0  0  0
  1  2  1  0
  2  3  2  0
  2  4  1  0
  4  5  1  0
  5  6  1  0
  6  7  1  0
  7  8  1  0
  8  9  1  0
  9 10  1  0
 10 11  2  0
 10 12  1  0
 12 13  1  0
 13 14  1  0
 13 15  1  0
 15 16  1  0
 16 17  1  0
 17 18  2  0
 18 19  1  0
 19 20  2  0
 20 21  1  0
 21 22  2  0
  4 23  1  0
 23 24  1  0
 24 25  2  0
 24 26  1  0
 26 27  1  0
 27 28  1  0
 28 29  1  0
 29 30  1  0
 30 31  1  0
 31 32  1  0
 32 33  2  0
 33 34  1  0
 34 35  2  0
 35 36  1  0
 36 37  2  0
 22 17  1  0
 37 27  1  0
 37 32  1  0
  1 38  1  0
  4 39  1  6
  5 40  1  0
  5 41  1  0
  6 42  1  0
  6 43  1  0
  7 44  1  0
  7 45  1  0
  8 46  1  0
  8 47  1  0
  9 48  1  0
 12 49  1  0
 12 50  1  0
 13 51  1  6
 14 52  1  0
 15 53  1  0
 15 54  1  0
 16 55  1  0
 16 56  1  0
 18 57  1  0
 19 58  1  0
 20 59  1  0
 21 60  1  0
 22 61  1  0
 23 62  1  0
 23 63  1  0
 26 64  1  0
 27 65  1  0
 28 66  1  0
 28 67  1  0
 29 68  1  0
 29 69  1  0
 30 70  1  0
 30 71  1  0
 31 72  1  0
 31 73  1  0
 33 74  1  0
 34 75  1  0
 35 76  1  0
 36 77  1  0
M  END
$$$$
[H]c1nc(N([H])c2c([H])c([H])c3c(c2[H])C(C([H])([H])[H])(C([H])([H])[H])C([H])([H])C(=O)N3C([H])([H])[H])nc(-c2c([H])nc([H])c([H])c2[H])c1[H]
     RDKit          3D

 48 51  0  0  0  0  0  0  0  0999 V2000
   -5.0155    2.8675    1.4288 C   0  0  0  0  0  0  0  0  0  0  0  0
   -4.4979    1.5913    1.0062 N   0  0  0  0  0  0  0  0  0  0  0  0
   -5.3345    0.4447    0.8469 C   0  0  0  0  0  0  0  0  0  0  0  0
   -6.5697    0.5444    0.7079 O   0  0  0  0  0  0  0  0  0  0  0  0
   -4.7312   -0.9207    0.8445 C   0  0  0  0  0  0  0  0  0  0  0  0
   -3.4445   -0.9598    0.0940 C   0  0  0  0  0  0  0  0  0  0  0  0
   -2.7134   -2.2453    0.4166 C   0  0  0  0  0  0  0  0  0  0  0  0
   -3.8243   -1.0675   -1.3929 C   0  0  0  0  0  0  0  0  0  0  0  0
   -2.5685    0.2124    0.3112 C   0  0  0  0  0  0  0  0  0  0  0  0
   -1.1837    0.0844    0.0686 C   0  0  0  0  0  0  0  0  0  0  0  0
   -0.3153    1.1272    0.2250 C   0  0  0  0  0  0  0  0  0  0  0  0
    1.0772    1.0536    0.0155 N   0  0  0  0  0  0  0  0  0  0  0  0
    1.8845   -0.0742   -0.1570 C   0  0  0  0  0  0  0  0  0  0  0  0
    1.5152   -1.3547   -0.1564 N   0  0  0  0  0  0  0  0  0  0  0  0
    2.3304   -2.3898   -0.3249 C   0  0  0  0  0  0  0  0  0  0  0  0
    3.6856   -2.1517   -0.5203 C   0  0  0  0  0  0  0  0  0  0  0  0
    4.1074   -0.8694   -0.5288 C   0  0  0  0  0  0  0  0  0  0  0  0
    3.2107    0.1408   -0.3490 N   0  0  0  0  0  0  0  0  0  0  0  0
    5.5150   -0.5369   -0.7280 C   0  0  0  0  0  0  0  0  0  0  0  0
    5.9303    0.7939   -0.7334 C   0  0  0  0  0  0  0  0  0  0  0  0
    7.2385    1.1267   -0.9175 C   0  0  0  0  0  0  0  0  0  0  0  0
    8.1825    0.1552   -1.1029 C   0  0  0  0  0  0  0  0  0  0  0  0
    7.7903   -1.1208   -1.0986 N   0  0  0  0  0  0  0  0  0  0  0  0
    6.4785   -1.4836   -0.9152 C   0  0  0  0  0  0  0  0  0  0  0  0
   -0.8889    2.3366    0.6425 C   0  0  0  0  0  0  0  0  0  0  0  0
   -2.2262    2.4737    0.8807 C   0  0  0  0  0  0  0  0  0  0  0  0
   -3.1108    1.4005    0.7193 C   0  0  0  0  0  0  0  0  0  0  0  0
   -6.0877    2.8028    1.6279 H   0  0  0  0  0  0  0  0  0  0  0  0
   -4.4372    3.1763    2.3464 H   0  0  0  0  0  0  0  0  0  0  0  0
   -4.8022    3.6728    0.6839 H   0  0  0  0  0  0  0  0  0  0  0  0
   -4.5599   -1.2786    1.8838 H   0  0  0  0  0  0  0  0  0  0  0  0
   -5.4518   -1.5949    0.3385 H   0  0  0  0  0  0  0  0  0  0  0  0
   -2.1042   -2.1571    1.3227 H   0  0  0  0  0  0  0  0  0  0  0  0
   -2.1025   -2.5041   -0.4825 H   0  0  0  0  0  0  0  0  0  0  0  0
   -3.4748   -3.0348    0.5559 H   0  0  0  0  0  0  0  0  0  0  0  0
   -4.2481   -0.0651   -1.6944 H   0  0  0  0  0  0  0  0  0  0  0  0
   -2.9519   -1.3085   -2.0160 H   0  0  0  0  0  0  0  0  0  0  0  0
   -4.6545   -1.8053   -1.4845 H   0  0  0  0  0  0  0  0  0  0  0  0
   -0.8548   -0.8871   -0.2563 H   0  0  0  0  0  0  0  0  0  0  0  0
    1.5703    2.0050   -0.0183 H   0  0  0  0  0  0  0  0  0  0  0  0
    2.0177   -3.4233   -0.3222 H   0  0  0  0  0  0  0  0  0  0  0  0
    4.3511   -3.0014   -0.6580 H   0  0  0  0  0  0  0  0  0  0  0  0
    5.1677    1.5509   -0.5849 H   0  0  0  0  0  0  0  0  0  0  0  0
    7.5802    2.1718   -0.9241 H   0  0  0  0  0  0  0  0  0  0  0  0
    9.2202    0.4484   -1.2477 H   0  0  0  0  0  0  0  0  0  0  0  0
    6.2098   -2.5280   -0.9197 H   0  0  0  0  0  0  0  0  0  0  0  0
   -0.2345    3.1658    0.7726 H   0  0  0  0  0  0  0  0  0  0  0  0
   -2.6746    3.4157    1.2061 H   0  0  0  0  0  0  0  0  0  0  0  0
  1  2  1  0
  2  3  1  0
  3  4  2  0
  3  5  1  0
  5  6  1  0
  6  7  1  0
  6  8  1  0
  6  9  1  0
  9 10  2  0
 10 11  1  0
 11 12  1  0
 12 13  1  0
 13 14  2  0
 14 15  1  0
 15 16  2  0
 16 17  1  0
 17 18  2  0
 17 19  1  0
 19 20  2  0
 20 21  1  0
 21 22  2  0
 22 23  1  0
 23 24  2  0
 11 25  2  0
 25 26  1  0
 26 27  2  0
 27  2  1  0
 27  9  1  0
 18 13  1  0
 24 19  1  0
  1 28  1  0
  1 29  1  0
  1 30  1  0
  5 31  1  0
  5 32  1  0
  7 33  1  0
  7 34  1  0
  7 35  1  0
  8 36  1  0
  8 37  1  0
  8 38  1  0
 10 39  1  0
 12 40  1  0
 15 41  1  0
 16 42  1  0
 20 43  1  0
 21 44  1  0
 22 45  1  0
 24 46  1  0
 25 47  1  0
 26 48  1  0
M  END
$$$$
[H]O[C@@]([H])(c1c([H])c([H])c(Cl)c([H])c1[H])[C@@]([H])(c1c([H])c([H])c(Cl)c([H])c1[H])N([H])[C@]([H])(c1c([H])c([H])c([H])c([H])c1[H])C([H])([H])[H]
     RDKit          3D

 47 49  0  0  0  0  0  0  0  0999 V2000
    2.2431    0.8351   -1.3909 C   0  0  0  0  0  0  0  0  0  0  0  0
    1.5062   -0.2361   -0.6353 C   0  0  2  0  0  0  0  0  0  0  0  0
    0.2534    0.1095   -0.0814 N   0  0  0  0  0  0  0  0  0  0  0  0
   -0.8303    0.4336   -0.9191 C   0  0  1  0  0  0  0  0  0  0  0  0
   -2.1262    0.2215   -0.2011 C   0  0  1  0  0  0  0  0  0  0  0  0
   -3.2269    0.5629   -0.9991 O   0  0  0  0  0  0  0  0  0  0  0  0
   -2.3498   -1.0760    0.4257 C   0  0  0  0  0  0  0  0  0  0  0  0
   -1.5975   -2.1905    0.2644 C   0  0  0  0  0  0  0  0  0  0  0  0
   -1.8853   -3.3846    0.9494 C   0  0  0  0  0  0  0  0  0  0  0  0
   -2.9466   -3.4631    1.8092 C   0  0  0  0  0  0  0  0  0  0  0  0
   -3.3293   -4.9493    2.6811 Cl  0  0  0  0  0  0  0  0  0  0  0  0
   -3.7264   -2.3321    1.9841 C   0  0  0  0  0  0  0  0  0  0  0  0
   -3.4407   -1.1702    1.3144 C   0  0  0  0  0  0  0  0  0  0  0  0
   -0.7289    1.8953   -1.3105 C   0  0  0  0  0  0  0  0  0  0  0  0
   -0.4699    2.8267   -0.3456 C   0  0  0  0  0  0  0  0  0  0  0  0
   -0.4031    4.1654   -0.6927 C   0  0  0  0  0  0  0  0  0  0  0  0
   -0.5961    4.5674   -2.0060 C   0  0  0  0  0  0  0  0  0  0  0  0
   -0.5122    6.2732   -2.4405 Cl  0  0  0  0  0  0  0  0  0  0  0  0
   -0.8573    3.6236   -2.9779 C   0  0  0  0  0  0  0  0  0  0  0  0
   -0.9212    2.2950   -2.6211 C   0  0  0  0  0  0  0  0  0  0  0  0
    2.3780   -0.7984    0.4383 C   0  0  0  0  0  0  0  0  0  0  0  0
    2.5056   -0.2382    1.6844 C   0  0  0  0  0  0  0  0  0  0  0  0
    3.3201   -0.7997    2.6784 C   0  0  0  0  0  0  0  0  0  0  0  0
    4.0212   -1.9477    2.4147 C   0  0  0  0  0  0  0  0  0  0  0  0
    3.9161   -2.5350    1.1754 C   0  0  0  0  0  0  0  0  0  0  0  0
    3.1078   -1.9686    0.2041 C   0  0  0  0  0  0  0  0  0  0  0  0
    3.3119    0.4610   -1.5581 H   0  0  0  0  0  0  0  0  0  0  0  0
    1.8425    0.8901   -2.4257 H   0  0  0  0  0  0  0  0  0  0  0  0
    2.3693    1.7822   -0.8755 H   0  0  0  0  0  0  0  0  0  0  0  0
    1.3209   -1.1218   -1.3555 H   0  0  0  0  0  0  0  0  0  0  0  0
    0.2819    0.6619    0.7935 H   0  0  0  0  0  0  0  0  0  0  0  0
   -0.7988   -0.1373   -1.8630 H   0  0  0  0  0  0  0  0  0  0  0  0
   -2.1705    1.0031    0.6446 H   0  0  0  0  0  0  0  0  0  0  0  0
   -3.5855   -0.2067   -1.4979 H   0  0  0  0  0  0  0  0  0  0  0  0
   -0.7625   -2.2102   -0.4075 H   0  0  0  0  0  0  0  0  0  0  0  0
   -1.2640   -4.2618    0.8027 H   0  0  0  0  0  0  0  0  0  0  0  0
   -4.5740   -2.3845    2.6651 H   0  0  0  0  0  0  0  0  0  0  0  0
   -4.0770   -0.2974    1.4757 H   0  0  0  0  0  0  0  0  0  0  0  0
   -0.3114    2.5908    0.6932 H   0  0  0  0  0  0  0  0  0  0  0  0
   -0.2037    4.9262    0.0284 H   0  0  0  0  0  0  0  0  0  0  0  0
   -1.0119    3.9324   -4.0173 H   0  0  0  0  0  0  0  0  0  0  0  0
   -1.1250    1.5354   -3.3668 H   0  0  0  0  0  0  0  0  0  0  0  0
    1.9531    0.6790    1.9020 H   0  0  0  0  0  0  0  0  0  0  0  0
    3.3784   -0.3022    3.6560 H   0  0  0  0  0  0  0  0  0  0  0  0
    4.6499   -2.4062    3.1488 H   0  0  0  0  0  0  0  0  0  0  0  0
    4.4706   -3.4450    0.9542 H   0  0  0  0  0  0  0  0  0  0  0  0
    3.0017   -2.4085   -0.7997 H   0  0  0  0  0  0  0  0  0  0  0  0
  1  2  1  0
  2  3  1  0
  3  4  1  0
  4  5  1  0
  5  6  1  0
  5  7  1  0
  7  8  2  0
  8  9  1  0
  9 10  2  0
 10 11  1  0
 10 12  1  0
 12 13  2  0
  4 14  1  0
 14 15  2  0
 15 16  1  0
 16 17  2  0
 17 18  1  0
 17 19  1  0
 19 20  2  0
  2 21  1  0
 21 22  2  0
 22 23  1  0
 23 24  2  0
 24 25  1  0
 25 26  2  0
 13  7  1  0
 20 14  1  0
 26 21  1  0
  1 27  1  0
  1 28  1  0
  1 29  1  0
  2 30  1  6
  3 31  1  0
  4 32  1  6
  5 33  1  1
  6 34  1  0
  8 35  1  0
  9 36  1  0
 12 37  1  0
 13 38  1  0
 15 39  1  0
 16 40  1  0
 19 41  1  0
 20 42  1  0
 22 43  1  0
 23 44  1  0
 24 45  1  0
 25 46  1  0
 26 47  1  0
M  END
$$$$
[H]OC(=O)/C([H])=C([H])/C(=C(\[H])c1c([H])nc2c([H])c([H])c([H])c([H])c2c1[H])c1c([H])c([H])c(O[H])c([H])c1[H]
     RDKit          3D

 39 41  0  0  0  0  0  0  0  0999 V2000
   -2.2185    4.3747    0.8285 O   0  0  0  0  0  0  0  0  0  0  0  0
   -1.9788    3.0195    0.6350 C   0  0  0  0  0  0  0  0  0  0  0  0
   -0.9442    2.3401    1.1983 C   0  0  0  0  0  0  0  0  0  0  0  0
   -0.7259    1.0011    0.9940 C   0  0  0  0  0  0  0  0  0  0  0  0
   -1.5515    0.2603    0.1968 C   0  0  0  0  0  0  0  0  0  0  0  0
   -2.6131    0.9679   -0.3795 C   0  0  0  0  0  0  0  0  0  0  0  0
   -2.8286    2.3071   -0.1719 C   0  0  0  0  0  0  0  0  0  0  0  0
   -1.3859   -1.1038   -0.2177 C   0  0  0  0  0  0  0  0  0  0  0  0
   -0.2234   -1.5470   -0.6337 C   0  0  0  0  0  0  0  0  0  0  0  0
    0.9636   -0.7586   -0.7337 C   0  0  0  0  0  0  0  0  0  0  0  0
    1.1431    0.4147   -1.4155 C   0  0  0  0  0  0  0  0  0  0  0  0
    2.3316    1.0290   -1.4175 N   0  0  0  0  0  0  0  0  0  0  0  0
    3.4017    0.5352   -0.7595 C   0  0  0  0  0  0  0  0  0  0  0  0
    4.6230    1.1673   -0.7612 C   0  0  0  0  0  0  0  0  0  0  0  0
    5.7188    0.6733   -0.0938 C   0  0  0  0  0  0  0  0  0  0  0  0
    5.5982   -0.4981    0.6052 C   0  0  0  0  0  0  0  0  0  0  0  0
    4.3978   -1.1509    0.6268 C   0  0  0  0  0  0  0  0  0  0  0  0
    3.3073   -0.6426   -0.0479 C   0  0  0  0  0  0  0  0  0  0  0  0
    2.0819   -1.2649   -0.0525 C   0  0  0  0  0  0  0  0  0  0  0  0
   -2.4911   -2.0972   -0.1760 C   0  0  0  0  0  0  0  0  0  0  0  0
   -3.6691   -1.7738    0.2672 C   0  0  0  0  0  0  0  0  0  0  0  0
   -4.7526   -2.7976    0.2871 C   0  0  0  0  0  0  0  0  0  0  0  0
   -6.0100   -2.5102    0.7437 O   0  0  0  0  0  0  0  0  0  0  0  0
   -4.4642   -3.9313   -0.1316 O   0  0  0  0  0  0  0  0  0  0  0  0
   -1.7687    5.0015    0.1610 H   0  0  0  0  0  0  0  0  0  0  0  0
   -0.2798    2.9309    1.8374 H   0  0  0  0  0  0  0  0  0  0  0  0
    0.0946    0.5099    1.4827 H   0  0  0  0  0  0  0  0  0  0  0  0
   -3.3289    0.5017   -1.0608 H   0  0  0  0  0  0  0  0  0  0  0  0
   -3.6810    2.8192   -0.6473 H   0  0  0  0  0  0  0  0  0  0  0  0
   -0.1468   -2.6415   -0.9399 H   0  0  0  0  0  0  0  0  0  0  0  0
    0.2932    0.8175   -1.9511 H   0  0  0  0  0  0  0  0  0  0  0  0
    4.6827    2.1010   -1.3297 H   0  0  0  0  0  0  0  0  0  0  0  0
    6.6798    1.2028   -0.1151 H   0  0  0  0  0  0  0  0  0  0  0  0
    6.4315   -0.9429    1.1560 H   0  0  0  0  0  0  0  0  0  0  0  0
    4.2914   -2.0750    1.1746 H   0  0  0  0  0  0  0  0  0  0  0  0
    2.0238   -2.1977    0.5171 H   0  0  0  0  0  0  0  0  0  0  0  0
   -2.3130   -3.1225   -0.5249 H   0  0  0  0  0  0  0  0  0  0  0  0
   -3.9487   -0.8162    0.6732 H   0  0  0  0  0  0  0  0  0  0  0  0
   -6.7403   -2.1029    0.1507 H   0  0  0  0  0  0  0  0  0  0  0  0
  1  2  1  0
  2  3  2  0
  3  4  1  0
  4  5  2  0
  5  6  1  0
  6  7  2  0
  5  8  1  0
  8  9  2  0
  9 10  1  0
 10 11  2  0
 11 12  1  0
 12 13  2  0
 13 14  1  0
 14 15  2  0
 15 16  1  0
 16 17  2  0
 17 18  1  0
 18 19  2  0
  8 20  1  0
 20 21  2  0
 21 22  1  0
 22 23  1  0
 22 24  2  0
  7  2  1  0
 19 10  1  0
 18 13  1  0
  1 25  1  0
  3 26  1  0
  4 27  1  0
  6 28  1  0
  7 29  1  0
  9 30  1  0
 11 31  1  0
 14 32  1  0
 15 33  1  0
 16 34  1  0
 17 35  1  0
 19 36  1  0
 20 37  1  0
 21 38  1  0
 23 39  1  0
M  END
$$$$
[H]Oc1nc(O[C@@]2([H])O[C@]([H])(C([H])([H])O[H])[C@]([H])(O[H])[C@]([H])(O[H])[C@]2([H])O[H])c(C([H])([H])O[H])c([H])c1O[H]
     RDKit          3D

 39 40  0  0  0  0  0  0  0  0999 V2000
   -2.3563    2.6898   -2.2433 O   0  0  0  0  0  0  0  0  0  0  0  0
   -3.2039    1.9716   -1.4206 C   0  0  0  0  0  0  0  0  0  0  0  0
   -2.4165    0.7469   -0.9309 C   0  0  1  0  0  0  0  0  0  0  0  0
   -1.3334    1.2083   -0.2582 O   0  0  0  0  0  0  0  0  0  0  0  0
   -0.6221    0.3071    0.4744 C   0  0  2  0  0  0  0  0  0  0  0  0
    0.3752   -0.3433   -0.2938 O   0  0  0  0  0  0  0  0  0  0  0  0
    1.7304   -0.2030   -0.0237 C   0  0  0  0  0  0  0  0  0  0  0  0
    2.1024    0.5806    1.0065 N   0  0  0  0  0  0  0  0  0  0  0  0
    3.3963    0.7616    1.3248 C   0  0  0  0  0  0  0  0  0  0  0  0
    3.7326    1.5823    2.4003 O   0  0  0  0  0  0  0  0  0  0  0  0
    4.3406    0.1149    0.5578 C   0  0  0  0  0  0  0  0  0  0  0  0
    5.6815    0.2856    0.8660 O   0  0  0  0  0  0  0  0  0  0  0  0
    4.0069   -0.7018   -0.5125 C   0  0  0  0  0  0  0  0  0  0  0  0
    2.6454   -0.8541   -0.7984 C   0  0  0  0  0  0  0  0  0  0  0  0
    2.1582   -1.6919   -1.9058 C   0  0  0  0  0  0  0  0  0  0  0  0
    3.2290   -2.2761   -2.5843 O   0  0  0  0  0  0  0  0  0  0  0  0
   -1.4280   -0.7182    1.2032 C   0  0  1  0  0  0  0  0  0  0  0  0
   -1.8121   -0.2576    2.4658 O   0  0  0  0  0  0  0  0  0  0  0  0
   -2.6175   -1.2211    0.4728 C   0  0  1  0  0  0  0  0  0  0  0  0
   -3.4457   -1.8979    1.3833 O   0  0  0  0  0  0  0  0  0  0  0  0
   -3.3877   -0.0438   -0.0706 C   0  0  1  0  0  0  0  0  0  0  0  0
   -3.7571    0.7638    0.9931 O   0  0  0  0  0  0  0  0  0  0  0  0
   -2.4510    3.6807   -2.1170 H   0  0  0  0  0  0  0  0  0  0  0  0
   -3.3827    2.5955   -0.4964 H   0  0  0  0  0  0  0  0  0  0  0  0
   -4.1452    1.6779   -1.9102 H   0  0  0  0  0  0  0  0  0  0  0  0
   -2.1824    0.1719   -1.8634 H   0  0  0  0  0  0  0  0  0  0  0  0
   -0.0822    0.8983    1.2689 H   0  0  0  0  0  0  0  0  0  0  0  0
    4.2212    2.4603    2.2629 H   0  0  0  0  0  0  0  0  0  0  0  0
    5.9802    0.8649    1.6291 H   0  0  0  0  0  0  0  0  0  0  0  0
    4.7215   -1.2097   -1.1166 H   0  0  0  0  0  0  0  0  0  0  0  0
    1.4158   -2.4530   -1.5797 H   0  0  0  0  0  0  0  0  0  0  0  0
    1.6210   -1.0589   -2.6646 H   0  0  0  0  0  0  0  0  0  0  0  0
    3.2137   -3.2657   -2.4104 H   0  0  0  0  0  0  0  0  0  0  0  0
   -0.7462   -1.5999    1.3827 H   0  0  0  0  0  0  0  0  0  0  0  0
   -1.3198    0.5857    2.6528 H   0  0  0  0  0  0  0  0  0  0  0  0
   -2.3412   -1.9422   -0.3153 H   0  0  0  0  0  0  0  0  0  0  0  0
   -2.9756   -2.1244    2.2195 H   0  0  0  0  0  0  0  0  0  0  0  0
   -4.2186   -0.3867   -0.6858 H   0  0  0  0  0  0  0  0  0  0  0  0
   -4.3473    0.3016    1.6378 H   0  0  0  0  0  0  0  0  0  0  0  0
  1  2  1  0
  2  3  1  0
  3  4  1  0
  4  5  1  0
  5  6  1  0
  6  7  1  0
  7  8  2  0
  8  9  1  0
  9 10  1  0
  9 11  2  0
 11 12  1  0
 11 13  1  0
 13 14  2  0
 14 15  1  0
 15 16  1  0
  5 17  1  0
 17 18  1  0
 17 19  1  0
 19 20  1  0
 19 21  1  0
 21 22  1  0
 21  3  1  0
 14  7  1  0
  1 23  1  0
  2 24  1  0
  2 25  1  0
  3 26  1  6
  5 27  1  1
 10 28  1  0
 12 29  1  0
 13 30  1  0
 15 31  1  0
 15 32  1  0
 16 33  1  0
 17 34  1  1
 18 35  1  0
 19 36  1  6
 20 37  1  0
 21 38  1  6
 22 39  1  0
M  END
$$$$
[H]c1c(F)c([H])c2sc(C(=O)N([H])C3([H])C([H])([H])C([H])([H])N(C(=O)OC(C([H])([H])[H])(C([H])([H])[H])C([H])([H])[H])C([H])([H])C3([H])[H])nc2c1F
     RDKit          3D

 48 50  0  0  0  0  0  0  0  0999 V2000
   -6.0313   -2.0885   -0.4784 C   0  0  0  0  0  0  0  0  0  0  0  0
   -5.6603   -0.7952    0.2640 C   0  0  0  0  0  0  0  0  0  0  0  0
   -6.5946    0.2668   -0.3069 C   0  0  0  0  0  0  0  0  0  0  0  0
   -5.9518   -1.0317    1.7138 C   0  0  0  0  0  0  0  0  0  0  0  0
   -4.3263   -0.5357   -0.0252 O   0  0  0  0  0  0  0  0  0  0  0  0
   -3.5801    0.5365    0.4398 C   0  0  0  0  0  0  0  0  0  0  0  0
   -4.1936    1.3408    1.1980 O   0  0  0  0  0  0  0  0  0  0  0  0
   -2.2188    0.7109    0.0829 N   0  0  0  0  0  0  0  0  0  0  0  0
   -1.6074   -0.2578   -0.7858 C   0  0  0  0  0  0  0  0  0  0  0  0
   -0.1994   -0.4969   -0.2955 C   0  0  0  0  0  0  0  0  0  0  0  0
    0.5252    0.8463   -0.4643 C   0  0  0  0  0  0  0  0  0  0  0  0
   -0.0337    1.7563    0.5971 C   0  0  0  0  0  0  0  0  0  0  0  0
   -1.5150    1.8427    0.6025 C   0  0  0  0  0  0  0  0  0  0  0  0
    1.9249    0.5689   -0.2430 N   0  0  0  0  0  0  0  0  0  0  0  0
    2.8673    0.8037   -1.2461 C   0  0  0  0  0  0  0  0  0  0  0  0
    2.5050    1.2595   -2.3528 O   0  0  0  0  0  0  0  0  0  0  0  0
    4.3075    0.5275   -1.0440 C   0  0  0  0  0  0  0  0  0  0  0  0
    4.9259    0.0545    0.0109 N   0  0  0  0  0  0  0  0  0  0  0  0
    6.2145   -0.1233    0.0021 C   0  0  0  0  0  0  0  0  0  0  0  0
    6.9923   -0.6202    1.0608 C   0  0  0  0  0  0  0  0  0  0  0  0
    6.4116   -0.9752    2.2537 F   0  0  0  0  0  0  0  0  0  0  0  0
    8.3461   -0.7674    0.9434 C   0  0  0  0  0  0  0  0  0  0  0  0
    9.0176   -0.4400   -0.2084 C   0  0  0  0  0  0  0  0  0  0  0  0
   10.3398   -0.5985   -0.2830 F   0  0  0  0  0  0  0  0  0  0  0  0
    8.2782    0.0493   -1.2612 C   0  0  0  0  0  0  0  0  0  0  0  0
    6.8861    0.2029   -1.1466 C   0  0  0  0  0  0  0  0  0  0  0  0
    5.6087    0.7479   -2.1454 S   0  0  0  0  0  0  0  0  0  0  0  0
   -6.1585   -1.8773   -1.5623 H   0  0  0  0  0  0  0  0  0  0  0  0
   -5.2016   -2.8070   -0.3239 H   0  0  0  0  0  0  0  0  0  0  0  0
   -6.9429   -2.5450   -0.0465 H   0  0  0  0  0  0  0  0  0  0  0  0
   -6.6607    0.0521   -1.4124 H   0  0  0  0  0  0  0  0  0  0  0  0
   -7.6036    0.1025    0.0951 H   0  0  0  0  0  0  0  0  0  0  0  0
   -6.2125    1.2810   -0.2092 H   0  0  0  0  0  0  0  0  0  0  0  0
   -6.2511   -0.1064    2.2539 H   0  0  0  0  0  0  0  0  0  0  0  0
   -5.1038   -1.5547    2.1932 H   0  0  0  0  0  0  0  0  0  0  0  0
   -6.8248   -1.7170    1.7776 H   0  0  0  0  0  0  0  0  0  0  0  0
   -1.5646    0.1018   -1.8310 H   0  0  0  0  0  0  0  0  0  0  0  0
   -2.1283   -1.2367   -0.7786 H   0  0  0  0  0  0  0  0  0  0  0  0
    0.3267   -1.2859   -0.8423 H   0  0  0  0  0  0  0  0  0  0  0  0
   -0.2035   -0.6896    0.8093 H   0  0  0  0  0  0  0  0  0  0  0  0
    0.4033    1.2339   -1.4743 H   0  0  0  0  0  0  0  0  0  0  0  0
    0.3048    1.3564    1.5795 H   0  0  0  0  0  0  0  0  0  0  0  0
    0.4720    2.7401    0.4676 H   0  0  0  0  0  0  0  0  0  0  0  0
   -1.7972    2.7189   -0.0537 H   0  0  0  0  0  0  0  0  0  0  0  0
   -1.9448    2.0940    1.5942 H   0  0  0  0  0  0  0  0  0  0  0  0
    2.2248    0.1881    0.6825 H   0  0  0  0  0  0  0  0  0  0  0  0
    8.9260   -1.1657    1.8088 H   0  0  0  0  0  0  0  0  0  0  0  0
    8.7018    0.3324   -2.1974 H   0  0  0  0  0  0  0  0  0  0  0  0
  1  2  1  0
  2  3  1  0
  2  4  1  0
  2  5  1  0
  5  6  1  0
  6  7  2  0
  6  8  1  0
  8  9  1  0
  9 10  1  0
 10 11  1  0
 11 12  1  0
 12 13  1  0
 11 14  1  0
 14 15  1  0
 15 16  2  0
 15 17  1  0
 17 18  2  0
 18 19  1  0
 19 20  2  0
 20 21  1  0
 20 22  1  0
 22 23  2  0
 23 24  1  0
 23 25  1  0
 25 26  2  0
 26 27  1  0
 13  8  1  0
 27 17  1  0
 26 19  1  0
  1 28  1  0
  1 29  1  0
  1 30  1  0
  3 31  1  0
  3 32  1  0
  3 33  1  0
  4 34  1  0
  4 35  1  0
  4 36  1  0
  9 37  1  0
  9 38  1  0
 10 39  1  0
 10 40  1  0
 11 41  1  0
 12 42  1  0
 12 43  1  0
 13 44  1  0
 13 45  1  0
 14 46  1  0
 22 47  1  0
 25 48  1  0
M  END
$$$$
[H]OC(=O)c1sc(-c2c([H])c([H])c([H])c(N([H])C([H])(C(=O)O[H])N([H])[H])c2[H])c([H])c1[H]
     RDKit          3D

 32 33  0  0  0  0  0  0  0  0999 V2000
   -3.9290    0.6195   -1.6109 N   0  0  0  0  0  0  0  0  0  0  0  0
   -3.8027    0.5960   -0.1436 C   0  0  0  0  0  0  0  0  0  0  0  0
   -2.4277    0.7307    0.2335 N   0  0  0  0  0  0  0  0  0  0  0  0
   -1.4251   -0.2378   -0.1412 C   0  0  0  0  0  0  0  0  0  0  0  0
   -1.7439   -1.3847   -0.8291 C   0  0  0  0  0  0  0  0  0  0  0  0
   -0.7678   -2.3194   -1.1941 C   0  0  0  0  0  0  0  0  0  0  0  0
    0.5429   -2.0677   -0.8465 C   0  0  0  0  0  0  0  0  0  0  0  0
    0.8914   -0.9435   -0.1664 C   0  0  0  0  0  0  0  0  0  0  0  0
   -0.0998   -0.0463    0.1753 C   0  0  0  0  0  0  0  0  0  0  0  0
    2.2897   -0.6763    0.2033 C   0  0  0  0  0  0  0  0  0  0  0  0
    3.4168   -1.4017   -0.0224 C   0  0  0  0  0  0  0  0  0  0  0  0
    4.5757   -0.9048    0.4371 C   0  0  0  0  0  0  0  0  0  0  0  0
    4.5313    0.2973    1.0989 C   0  0  0  0  0  0  0  0  0  0  0  0
    2.8600    0.6825    1.0494 S   0  0  0  0  0  0  0  0  0  0  0  0
    5.6452    1.0439    1.6902 C   0  0  0  0  0  0  0  0  0  0  0  0
    5.3928    2.2379    2.3147 O   0  0  0  0  0  0  0  0  0  0  0  0
    6.7965    0.5958    1.6227 O   0  0  0  0  0  0  0  0  0  0  0  0
   -4.5498    1.7893    0.3297 C   0  0  0  0  0  0  0  0  0  0  0  0
   -5.9142    1.8784    0.0747 O   0  0  0  0  0  0  0  0  0  0  0  0
   -3.9975    2.7302    0.9562 O   0  0  0  0  0  0  0  0  0  0  0  0
   -4.5159   -0.1873   -1.9141 H   0  0  0  0  0  0  0  0  0  0  0  0
   -2.9966    0.6249   -2.0758 H   0  0  0  0  0  0  0  0  0  0  0  0
   -4.2533   -0.3472    0.2352 H   0  0  0  0  0  0  0  0  0  0  0  0
   -2.1456    1.5630    0.8015 H   0  0  0  0  0  0  0  0  0  0  0  0
   -2.7603   -1.6129   -1.1138 H   0  0  0  0  0  0  0  0  0  0  0  0
   -1.0574   -3.2143   -1.7374 H   0  0  0  0  0  0  0  0  0  0  0  0
    1.3275   -2.7857   -1.1214 H   0  0  0  0  0  0  0  0  0  0  0  0
    0.1417    0.8622    0.7186 H   0  0  0  0  0  0  0  0  0  0  0  0
    3.3551   -2.3687   -0.5702 H   0  0  0  0  0  0  0  0  0  0  0  0
    5.5643   -1.4109    0.3115 H   0  0  0  0  0  0  0  0  0  0  0  0
    5.3568    3.1042    1.8170 H   0  0  0  0  0  0  0  0  0  0  0  0
   -6.3012    2.5536   -0.5826 H   0  0  0  0  0  0  0  0  0  0  0  0
  1  2  1  0
  2  3  1  0
  3  4  1  0
  4  5  2  0
  5  6  1  0
  6  7  2  0
  7  8  1  0
  8  9  2  0
  8 10  1  0
 10 11  2  0
 11 12  1  0
 12 13  2  0
 13 14  1  0
 13 15  1  0
 15 16  1  0
 15 17  2  0
  2 18  1  0
 18 19  1  0
 18 20  2  0
  9  4  1  0
 14 10  1  0
  1 21  1  0
  1 22  1  0
  2 23  1  0
  3 24  1  0
  5 25  1  0
  6 26  1  0
  7 27  1  0
  9 28  1  0
 11 29  1  0
 12 30  1  0
 16 31  1  0
 19 32  1  0
M  END
$$$$
[H]c1nc(N([H])[H])c2c(-c3c([H])c([H])c(Oc4c([H])c([H])c([H])c([H])c4[H])c([H])c3[H])c([H])n([C@@]3([H])C([H])([H])N(C(=O)N([H])c4c([H])c([H])c([H])c(C5([H])C([H])([H])C5([H])[H])c4[H])C([H])([H])C([H])([H])C3([H])[H])c2n1
     RDKit          3D

 73 79  0  0  0  0  0  0  0  0999 V2000
   -4.7967   -4.2051    0.4967 N   0  0  0  0  0  0  0  0  0  0  0  0
   -3.4169   -4.5700    0.6445 C   0  0  0  0  0  0  0  0  0  0  0  0
   -3.0774   -5.8463    0.8493 N   0  0  0  0  0  0  0  0  0  0  0  0
   -1.7989   -6.1804    1.0111 C   0  0  0  0  0  0  0  0  0  0  0  0
   -0.8542   -5.2475    0.9705 N   0  0  0  0  0  0  0  0  0  0  0  0
   -1.1625   -3.9642    0.7675 C   0  0  0  0  0  0  0  0  0  0  0  0
   -0.4264   -2.8257    0.6901 N   0  0  0  0  0  0  0  0  0  0  0  0
   -1.2197   -1.7667    0.4778 C   0  0  0  0  0  0  0  0  0  0  0  0
   -2.5395   -2.2035    0.4088 C   0  0  0  0  0  0  0  0  0  0  0  0
   -3.6610   -1.3391    0.1543 C   0  0  0  0  0  0  0  0  0  0  0  0
   -4.5174   -1.4330   -0.9269 C   0  0  0  0  0  0  0  0  0  0  0  0
   -5.5898   -0.5763   -1.0917 C   0  0  0  0  0  0  0  0  0  0  0  0
   -5.8726    0.4253   -0.1883 C   0  0  0  0  0  0  0  0  0  0  0  0
   -6.9407    1.2947   -0.3314 O   0  0  0  0  0  0  0  0  0  0  0  0
   -6.9442    2.4914   -0.9809 C   0  0  0  0  0  0  0  0  0  0  0  0
   -7.2133    2.5227   -2.3169 C   0  0  0  0  0  0  0  0  0  0  0  0
   -7.2283    3.7106   -3.0181 C   0  0  0  0  0  0  0  0  0  0  0  0
   -6.9586    4.8588   -2.3025 C   0  0  0  0  0  0  0  0  0  0  0  0
   -6.6846    4.8567   -0.9578 C   0  0  0  0  0  0  0  0  0  0  0  0
   -6.6717    3.6578   -0.2646 C   0  0  0  0  0  0  0  0  0  0  0  0
   -5.0271    0.5319    0.8950 C   0  0  0  0  0  0  0  0  0  0  0  0
   -3.9604   -0.3138    1.0667 C   0  0  0  0  0  0  0  0  0  0  0  0
   -2.4859   -3.5632    0.5909 C   0  0  0  0  0  0  0  0  0  0  0  0
    1.0209   -2.8643    0.8406 C   0  0  2  0  0  0  0  0  0  0  0  0
    1.3587   -3.2340    2.2505 C   0  0  0  0  0  0  0  0  0  0  0  0
    1.0583   -2.0056    3.1223 C   0  0  0  0  0  0  0  0  0  0  0  0
    2.1696   -1.0388    2.8388 C   0  0  0  0  0  0  0  0  0  0  0  0
    2.4055   -0.8854    1.4146 N   0  0  0  0  0  0  0  0  0  0  0  0
    1.6958   -1.6120    0.4086 C   0  0  0  0  0  0  0  0  0  0  0  0
    3.4218    0.0381    1.0177 C   0  0  0  0  0  0  0  0  0  0  0  0
    4.0374    0.6084    1.9436 O   0  0  0  0  0  0  0  0  0  0  0  0
    3.7343    0.3106   -0.3190 N   0  0  0  0  0  0  0  0  0  0  0  0
    4.7168    1.1754   -0.8391 C   0  0  0  0  0  0  0  0  0  0  0  0
    4.6403    1.6188   -2.1637 C   0  0  0  0  0  0  0  0  0  0  0  0
    5.6044    2.4312   -2.6771 C   0  0  0  0  0  0  0  0  0  0  0  0
    6.6959    2.8517   -1.9157 C   0  0  0  0  0  0  0  0  0  0  0  0
    6.7974    2.4341   -0.6210 C   0  0  0  0  0  0  0  0  0  0  0  0
    5.7971    1.6013   -0.1160 C   0  0  0  0  0  0  0  0  0  0  0  0
    7.9460    2.8321    0.2604 C   0  0  0  0  0  0  0  0  0  0  0  0
    8.6217    4.0821   -0.0823 C   0  0  0  0  0  0  0  0  0  0  0  0
    9.2775    2.7973   -0.4152 C   0  0  0  0  0  0  0  0  0  0  0  0
   -5.3138   -3.6430    1.2190 H   0  0  0  0  0  0  0  0  0  0  0  0
   -5.2801   -4.5217   -0.3672 H   0  0  0  0  0  0  0  0  0  0  0  0
   -1.5431   -7.2494    1.1799 H   0  0  0  0  0  0  0  0  0  0  0  0
   -0.9207   -0.7283    0.3724 H   0  0  0  0  0  0  0  0  0  0  0  0
   -4.3189   -2.2094   -1.6775 H   0  0  0  0  0  0  0  0  0  0  0  0
   -6.2511   -0.6749   -1.9571 H   0  0  0  0  0  0  0  0  0  0  0  0
   -7.4215    1.6109   -2.8595 H   0  0  0  0  0  0  0  0  0  0  0  0
   -7.4419    3.6983   -4.0659 H   0  0  0  0  0  0  0  0  0  0  0  0
   -6.9639    5.8043   -2.8267 H   0  0  0  0  0  0  0  0  0  0  0  0
   -6.4784    5.7740   -0.4354 H   0  0  0  0  0  0  0  0  0  0  0  0
   -6.4621    3.6168    0.7843 H   0  0  0  0  0  0  0  0  0  0  0  0
   -5.2562    1.3321    1.6117 H   0  0  0  0  0  0  0  0  0  0  0  0
   -3.3011   -0.2153    1.9306 H   0  0  0  0  0  0  0  0  0  0  0  0
    1.3551   -3.7342    0.2072 H   0  0  0  0  0  0  0  0  0  0  0  0
    0.7919   -4.1108    2.6072 H   0  0  0  0  0  0  0  0  0  0  0  0
    2.4405   -3.4077    2.3219 H   0  0  0  0  0  0  0  0  0  0  0  0
    1.0818   -2.2600    4.1896 H   0  0  0  0  0  0  0  0  0  0  0  0
    0.1025   -1.6005    2.7785 H   0  0  0  0  0  0  0  0  0  0  0  0
    3.1098   -1.4791    3.2510 H   0  0  0  0  0  0  0  0  0  0  0  0
    1.9658   -0.0992    3.3593 H   0  0  0  0  0  0  0  0  0  0  0  0
    2.4839   -1.9218   -0.3460 H   0  0  0  0  0  0  0  0  0  0  0  0
    1.0426   -0.9070   -0.1610 H   0  0  0  0  0  0  0  0  0  0  0  0
    3.1369   -0.2060   -1.0585 H   0  0  0  0  0  0  0  0  0  0  0  0
    3.8024    1.2982   -2.7583 H   0  0  0  0  0  0  0  0  0  0  0  0
    5.5937    2.8080   -3.7039 H   0  0  0  0  0  0  0  0  0  0  0  0
    7.4617    3.4968   -2.3200 H   0  0  0  0  0  0  0  0  0  0  0  0
    5.9407    1.2958    0.9073 H   0  0  0  0  0  0  0  0  0  0  0  0
    7.8710    2.4743    1.3142 H   0  0  0  0  0  0  0  0  0  0  0  0
    8.2674    4.7331   -0.8954 H   0  0  0  0  0  0  0  0  0  0  0  0
    9.0784    4.6592    0.7519 H   0  0  0  0  0  0  0  0  0  0  0  0
   10.1263    2.4616    0.2231 H   0  0  0  0  0  0  0  0  0  0  0  0
    9.3490    2.4487   -1.4589 H   0  0  0  0  0  0  0  0  0  0  0  0
  1  2  1  0
  2  3  2  0
  3  4  1  0
  4  5  2  0
  5  6  1  0
  6  7  1  0
  7  8  1  0
  8  9  2  0
  9 10  1  0
 10 11  2  0
 11 12  1  0
 12 13  2  0
 13 14  1  0
 14 15  1  0
 15 16  2  0
 16 17  1  0
 17 18  2  0
 18 19  1  0
 19 20  2  0
 13 21  1  0
 21 22  2  0
  9 23  1  0
  7 24  1  0
 24 25  1  0
 25 26  1  0
 26 27  1  0
 27 28  1  0
 28 29  1  0
 28 30  1  0
 30 31  2  0
 30 32  1  0
 32 33  1  0
 33 34  2  0
 34 35  1  0
 35 36  2  0
 36 37  1  0
 37 38  2  0
 37 39  1  0
 39 40  1  0
 40 41  1  0
 23  2  1  0
 29 24  1  0
 38 33  1  0
 41 39  1  0
 23  6  2  0
 22 10  1  0
 20 15  1  0
  1 42  1  0
  1 43  1  0
  4 44  1  0
  8 45  1  0
 11 46  1  0
 12 47  1  0
 16 48  1  0
 17 49  1  0
 18 50  1  0
 19 51  1  0
 20 52  1  0
 21 53  1  0
 22 54  1  0
 24 55  1  6
 25 56  1  0
 25 57  1  0
 26 58  1  0
 26 59  1  0
 27 60  1  0
 27 61  1  0
 29 62  1  0
 29 63  1  0
 32 64  1  0
 34 65  1  0
 35 66  1  0
 36 67  1  0
 38 68  1  0
 39 69  1  0
 40 70  1  0
 40 71  1  0
 41 72  1  0
 41 73  1  0
M  END
$$$$
[H]c1sc(-c2nc(C([H])([H])c3c([H])c([H])c([H])c([H])c3[H])n([H])c(=O)c2-c2nc3c([H])c([H])c([H])c([H])c3n2[H])nc1-c1c([H])c([H])c([H])c([H])c1Cl
     RDKit          3D

 53 58  0  0  0  0  0  0  0  0999 V2000
   -2.8555   -2.3493    0.3419 O   0  0  0  0  0  0  0  0  0  0  0  0
   -2.5730   -1.2766   -0.2355 C   0  0  0  0  0  0  0  0  0  0  0  0
   -3.5992   -0.5018   -0.6498 N   0  0  0  0  0  0  0  0  0  0  0  0
   -3.3013    0.6440   -1.2723 C   0  0  0  0  0  0  0  0  0  0  0  0
   -4.4579    1.4907   -1.7271 C   0  0  0  0  0  0  0  0  0  0  0  0
   -4.8635    2.4462   -0.6795 C   0  0  0  0  0  0  0  0  0  0  0  0
   -5.8180    2.0826    0.2497 C   0  0  0  0  0  0  0  0  0  0  0  0
   -6.1626    3.0099    1.2076 C   0  0  0  0  0  0  0  0  0  0  0  0
   -5.5895    4.2655    1.2594 C   0  0  0  0  0  0  0  0  0  0  0  0
   -4.6420    4.6157    0.3306 C   0  0  0  0  0  0  0  0  0  0  0  0
   -4.2832    3.6893   -0.6438 C   0  0  0  0  0  0  0  0  0  0  0  0
   -2.0452    0.9858   -1.4623 N   0  0  0  0  0  0  0  0  0  0  0  0
   -0.9527    0.2453   -1.0643 C   0  0  0  0  0  0  0  0  0  0  0  0
    0.3696    0.8116   -1.3206 C   0  0  0  0  0  0  0  0  0  0  0  0
    1.5922    0.5032   -1.0843 N   0  0  0  0  0  0  0  0  0  0  0  0
    2.6082    1.2266   -1.4584 C   0  0  0  0  0  0  0  0  0  0  0  0
    2.3191    2.3726   -2.1378 C   0  0  0  0  0  0  0  0  0  0  0  0
    0.5890    2.3041   -2.1789 S   0  0  0  0  0  0  0  0  0  0  0  0
    3.9925    0.8277   -1.0883 C   0  0  0  0  0  0  0  0  0  0  0  0
    4.1944   -0.0057    0.0141 C   0  0  0  0  0  0  0  0  0  0  0  0
    5.4339   -0.4470    0.3830 C   0  0  0  0  0  0  0  0  0  0  0  0
    6.5564   -0.0811   -0.3304 C   0  0  0  0  0  0  0  0  0  0  0  0
    6.3807    0.7250   -1.4014 C   0  0  0  0  0  0  0  0  0  0  0  0
    5.1061    1.1791   -1.7826 C   0  0  0  0  0  0  0  0  0  0  0  0
    5.0447    2.1700   -3.2328 Cl  0  0  0  0  0  0  0  0  0  0  0  0
   -1.2278   -0.9301   -0.4291 C   0  0  0  0  0  0  0  0  0  0  0  0
   -0.1848   -1.8282    0.0949 C   0  0  0  0  0  0  0  0  0  0  0  0
    1.0448   -2.0867   -0.3757 N   0  0  0  0  0  0  0  0  0  0  0  0
    1.6829   -3.0520    0.2809 C   0  0  0  0  0  0  0  0  0  0  0  0
    2.9316   -3.6619    0.1736 C   0  0  0  0  0  0  0  0  0  0  0  0
    3.2635   -4.6611    1.0503 C   0  0  0  0  0  0  0  0  0  0  0  0
    2.3568   -5.0624    2.0411 C   0  0  0  0  0  0  0  0  0  0  0  0
    1.1243   -4.4580    2.1443 C   0  0  0  0  0  0  0  0  0  0  0  0
    0.8019   -3.4577    1.2604 C   0  0  0  0  0  0  0  0  0  0  0  0
   -0.3120   -2.6983    1.1187 N   0  0  0  0  0  0  0  0  0  0  0  0
   -4.5917   -0.7770   -0.4953 H   0  0  0  0  0  0  0  0  0  0  0  0
   -4.1186    2.0123   -2.6615 H   0  0  0  0  0  0  0  0  0  0  0  0
   -5.2896    0.8375   -2.0087 H   0  0  0  0  0  0  0  0  0  0  0  0
   -6.2815    1.0894    0.2209 H   0  0  0  0  0  0  0  0  0  0  0  0
   -6.9046    2.7737    1.9573 H   0  0  0  0  0  0  0  0  0  0  0  0
   -5.8795    4.9871    2.0309 H   0  0  0  0  0  0  0  0  0  0  0  0
   -4.1767    5.5784    0.3393 H   0  0  0  0  0  0  0  0  0  0  0  0
   -3.5315    3.9756   -1.3756 H   0  0  0  0  0  0  0  0  0  0  0  0
    2.9497    3.1751   -2.5527 H   0  0  0  0  0  0  0  0  0  0  0  0
    3.2902   -0.2869    0.5776 H   0  0  0  0  0  0  0  0  0  0  0  0
    5.5170   -1.0907    1.2479 H   0  0  0  0  0  0  0  0  0  0  0  0
    7.5049   -0.4652    0.0166 H   0  0  0  0  0  0  0  0  0  0  0  0
    7.2262    1.0375   -1.9895 H   0  0  0  0  0  0  0  0  0  0  0  0
    3.6192   -3.3536   -0.5821 H   0  0  0  0  0  0  0  0  0  0  0  0
    4.2324   -5.1352    0.9681 H   0  0  0  0  0  0  0  0  0  0  0  0
    2.6124   -5.8479    2.7337 H   0  0  0  0  0  0  0  0  0  0  0  0
    0.4526   -4.7908    2.9167 H   0  0  0  0  0  0  0  0  0  0  0  0
   -1.1554   -2.7564    1.7314 H   0  0  0  0  0  0  0  0  0  0  0  0
  1  2  2  0
  2  3  1  0
  3  4  1  0
  4  5  1  0
  5  6  1  0
  6  7  2  0
  7  8  1  0
  8  9  2  0
  9 10  1  0
 10 11  2  0
  4 12  2  0
 12 13  1  0
 13 14  1  0
 14 15  2  0
 15 16  1  0
 16 17  2  0
 17 18  1  0
 16 19  1  0
 19 20  2  0
 20 21  1  0
 21 22  2  0
 22 23  1  0
 23 24  2  0
 24 25  1  0
 13 26  2  0
 26 27  1  0
 27 28  2  0
 28 29  1  0
 29 30  2  0
 30 31  1  0
 31 32  2  0
 32 33  1  0
 33 34  2  0
 34 35  1  0
 26  2  1  0
 35 27  1  0
 11  6  1  0
 18 14  1  0
 24 19  1  0
 34 29  1  0
  3 36  1  0
  5 37  1  0
  5 38  1  0
  7 39  1  0
  8 40  1  0
  9 41  1  0
 10 42  1  0
 11 43  1  0
 17 44  1  0
 20 45  1  0
 21 46  1  0
 22 47  1  0
 23 48  1  0
 30 49  1  0
 31 50  1  0
 32 51  1  0
 33 52  1  0
 35 53  1  0
M  END
$$$$
[H]c1nc(Cl)c([H])c([H])c1N1C(=O)N2C([H])([H])C([H])([H])[C@@]([H])(C1([H])[H])C2([H])[H]
     RDKit          3D

 28 30  0  0  0  0  0  0  0  0999 V2000
    6.2286    0.1932    0.5137 Cl  0  0  0  0  0  0  0  0  0  0  0  0
    4.4847    0.1344    0.2952 C   0  0  0  0  0  0  0  0  0  0  0  0
    3.8155   -1.0516   -0.0221 C   0  0  0  0  0  0  0  0  0  0  0  0
    2.4408   -1.0444   -0.1804 C   0  0  0  0  0  0  0  0  0  0  0  0
    1.6977    0.1335   -0.0285 C   0  0  0  0  0  0  0  0  0  0  0  0
    2.3973    1.2599    0.2818 C   0  0  0  0  0  0  0  0  0  0  0  0
    3.7562    1.2459    0.4364 N   0  0  0  0  0  0  0  0  0  0  0  0
    0.3586    0.0875   -0.2087 N   0  0  0  0  0  0  0  0  0  0  0  0
   -0.5430   -1.0771   -0.2431 C   0  0  0  0  0  0  0  0  0  0  0  0
   -1.8940   -0.9208    0.3403 C   0  0  2  0  0  0  0  0  0  0  0  0
   -3.0248   -0.5483   -0.6277 C   0  0  0  0  0  0  0  0  0  0  0  0
   -3.0842    1.0709   -0.5796 C   0  0  0  0  0  0  0  0  0  0  0  0
   -1.7735    1.1192   -0.1084 N   0  0  0  0  0  0  0  0  0  0  0  0
   -1.9364    0.4191    1.1978 C   0  0  0  0  0  0  0  0  0  0  0  0
   -0.4486    1.3323   -0.4406 C   0  0  0  0  0  0  0  0  0  0  0  0
    0.0072    2.3744   -0.8694 O   0  0  0  0  0  0  0  0  0  0  0  0
    4.4360   -1.9284   -0.1259 H   0  0  0  0  0  0  0  0  0  0  0  0
    1.9546   -1.9846   -0.4263 H   0  0  0  0  0  0  0  0  0  0  0  0
    1.9506    2.2313    0.4361 H   0  0  0  0  0  0  0  0  0  0  0  0
   -0.6603   -1.4239   -1.3016 H   0  0  0  0  0  0  0  0  0  0  0  0
    0.0046   -1.9183    0.2641 H   0  0  0  0  0  0  0  0  0  0  0  0
   -2.1698   -1.7491    1.0042 H   0  0  0  0  0  0  0  0  0  0  0  0
   -2.8704   -0.8547   -1.6476 H   0  0  0  0  0  0  0  0  0  0  0  0
   -3.9637   -0.8272   -0.1510 H   0  0  0  0  0  0  0  0  0  0  0  0
   -3.8204    1.3495    0.1895 H   0  0  0  0  0  0  0  0  0  0  0  0
   -3.2881    1.4347   -1.5759 H   0  0  0  0  0  0  0  0  0  0  0  0
   -1.1174    0.4597    1.8606 H   0  0  0  0  0  0  0  0  0  0  0  0
   -2.9379    0.4830    1.5878 H   0  0  0  0  0  0  0  0  0  0  0  0
  1  2  1  0
  2  3  2  0
  3  4  1  0
  4  5  2  0
  5  6  1  0
  6  7  2  0
  5  8  1  0
  8  9  1  0
  9 10  1  0
 10 11  1  0
 11 12  1  0
 12 13  1  0
 13 14  1  0
 13 15  1  0
 15 16  2  0
  7  2  1  0
 15  8  1  0
 14 10  1  0
  3 17  1  0
  4 18  1  0
  6 19  1  0
  9 20  1  0
  9 21  1  0
 10 22  1  1
 11 23  1  0
 11 24  1  0
 12 25  1  0
 12 26  1  0
 14 27  1  0
 14 28  1  0
M  END
$$$$
[H]OC(=O)c1c([H])c([H])c([H])c(C(c2c([H])c([H])c([H])c(N=C(N([H])[H])N([H])[H])c2[H])(C([H])([H])C([H])([H])[H])C([H])([H])C([H])([H])[H])c1[H]
     RDKit          3D

 47 48  0  0  0  0  0  0  0  0999 V2000
   -1.3421   -0.6120   -3.3258 C   0  0  0  0  0  0  0  0  0  0  0  0
   -0.2530   -0.4251   -2.2970 C   0  0  0  0  0  0  0  0  0  0  0  0
   -0.6475   -1.0263   -0.9484 C   0  0  0  0  0  0  0  0  0  0  0  0
   -0.8882   -2.4790   -1.0446 C   0  0  0  0  0  0  0  0  0  0  0  0
   -1.2824   -3.2334    0.1579 C   0  0  0  0  0  0  0  0  0  0  0  0
    0.4680   -0.7635   -0.0133 C   0  0  0  0  0  0  0  0  0  0  0  0
    0.2133   -0.8701    1.3358 C   0  0  0  0  0  0  0  0  0  0  0  0
    1.2368   -0.6325    2.2216 C   0  0  0  0  0  0  0  0  0  0  0  0
    2.4915   -0.2945    1.7745 C   0  0  0  0  0  0  0  0  0  0  0  0
    2.7983   -0.1743    0.4357 C   0  0  0  0  0  0  0  0  0  0  0  0
    1.7334   -0.4233   -0.4330 C   0  0  0  0  0  0  0  0  0  0  0  0
    4.0914    0.1743   -0.0194 N   0  0  0  0  0  0  0  0  0  0  0  0
    4.8063    1.1455    0.4091 C   0  0  0  0  0  0  0  0  0  0  0  0
    4.4393    2.0534    1.4179 N   0  0  0  0  0  0  0  0  0  0  0  0
    6.0840    1.3173   -0.1913 N   0  0  0  0  0  0  0  0  0  0  0  0
   -1.7947   -0.2363   -0.4509 C   0  0  0  0  0  0  0  0  0  0  0  0
   -3.0900   -0.6992   -0.4811 C   0  0  0  0  0  0  0  0  0  0  0  0
   -4.1432    0.0607   -0.0034 C   0  0  0  0  0  0  0  0  0  0  0  0
   -3.8762    1.3165    0.5157 C   0  0  0  0  0  0  0  0  0  0  0  0
   -2.5834    1.8142    0.5614 C   0  0  0  0  0  0  0  0  0  0  0  0
   -1.5748    1.0127    0.0714 C   0  0  0  0  0  0  0  0  0  0  0  0
   -2.3211    3.1418    1.1120 C   0  0  0  0  0  0  0  0  0  0  0  0
   -3.2952    3.9631    1.6064 O   0  0  0  0  0  0  0  0  0  0  0  0
   -1.1307    3.5434    1.1283 O   0  0  0  0  0  0  0  0  0  0  0  0
   -2.2486   -0.0661   -2.9898 H   0  0  0  0  0  0  0  0  0  0  0  0
   -1.5167   -1.6559   -3.5921 H   0  0  0  0  0  0  0  0  0  0  0  0
   -0.9943   -0.0974   -4.2461 H   0  0  0  0  0  0  0  0  0  0  0  0
   -0.0866    0.6502   -2.1434 H   0  0  0  0  0  0  0  0  0  0  0  0
    0.6467   -0.8701   -2.7302 H   0  0  0  0  0  0  0  0  0  0  0  0
   -1.6766   -2.6812   -1.8344 H   0  0  0  0  0  0  0  0  0  0  0  0
    0.0089   -3.0119   -1.4876 H   0  0  0  0  0  0  0  0  0  0  0  0
   -2.0815   -2.8277    0.7808 H   0  0  0  0  0  0  0  0  0  0  0  0
   -0.4041   -3.3916    0.8533 H   0  0  0  0  0  0  0  0  0  0  0  0
   -1.5214   -4.3130   -0.1220 H   0  0  0  0  0  0  0  0  0  0  0  0
   -0.7624   -1.1292    1.7342 H   0  0  0  0  0  0  0  0  0  0  0  0
    1.0534   -0.7131    3.3083 H   0  0  0  0  0  0  0  0  0  0  0  0
    3.2666   -0.1171    2.5065 H   0  0  0  0  0  0  0  0  0  0  0  0
    2.0050   -0.3181   -1.4736 H   0  0  0  0  0  0  0  0  0  0  0  0
    3.9624    2.9392    1.1520 H   0  0  0  0  0  0  0  0  0  0  0  0
    4.6406    1.8444    2.4092 H   0  0  0  0  0  0  0  0  0  0  0  0
    6.9455    0.9265    0.1984 H   0  0  0  0  0  0  0  0  0  0  0  0
    6.1281    1.8708   -1.0707 H   0  0  0  0  0  0  0  0  0  0  0  0
   -3.3284   -1.6735   -0.8846 H   0  0  0  0  0  0  0  0  0  0  0  0
   -5.1660   -0.3007   -0.0253 H   0  0  0  0  0  0  0  0  0  0  0  0
   -4.6838    1.9403    0.9004 H   0  0  0  0  0  0  0  0  0  0  0  0
   -0.5675    1.4555    0.1314 H   0  0  0  0  0  0  0  0  0  0  0  0
   -3.7591    3.8663    2.4993 H   0  0  0  0  0  0  0  0  0  0  0  0
  1  2  1  0
  2  3  1  0
  3  4  1  0
  4  5  1  0
  3  6  1  0
  6  7  2  0
  7  8  1  0
  8  9  2  0
  9 10  1  0
 10 11  2  0
 10 12  1  0
 12 13  2  3
 13 14  1  0
 13 15  1  0
  3 16  1  0
 16 17  2  0
 17 18  1  0
 18 19  2  0
 19 20  1  0
 20 21  2  0
 20 22  1  0
 22 23  1  0
 22 24  2  0
 11  6  1  0
 21 16  1  0
  1 25  1  0
  1 26  1  0
  1 27  1  0
  2 28  1  0
  2 29  1  0
  4 30  1  0
  4 31  1  0
  5 32  1  0
  5 33  1  0
  5 34  1  0
  7 35  1  0
  8 36  1  0
  9 37  1  0
 11 38  1  0
 14 39  1  0
 14 40  1  0
 15 41  1  0
 15 42  1  0
 17 43  1  0
 18 44  1  0
 19 45  1  0
 21 46  1  0
 23 47  1  0
M  END
$$$$
[H]OC([H])(c1c([H])c([H])c(F)c([H])c1[H])C([H])([H])C1([H])N(C(=O)c2c([H])c([H])c([H])c(C(F)(F)F)c2[H])C([H])([H])C([H])([H])N(c2c([H])c([H])c(F)c([H])c2-c2c([H])c([H])c([H])c([H])c2[H])C1([H])[H]
     RDKit          3D

 68 72  0  0  0  0  0  0  0  0999 V2000
    0.0584    2.7118   -1.9541 O   0  0  0  0  0  0  0  0  0  0  0  0
    0.1104    2.8820   -0.5530 C   0  0  0  0  0  0  0  0  0  0  0  0
   -0.8585    1.7986   -0.0278 C   0  0  0  0  0  0  0  0  0  0  0  0
   -0.4310    0.4806   -0.4697 C   0  0  0  0  0  0  0  0  0  0  0  0
    0.9485    0.0325   -0.0191 C   0  0  0  0  0  0  0  0  0  0  0  0
    1.3033   -1.2247   -0.6429 N   0  0  0  0  0  0  0  0  0  0  0  0
    0.3172   -2.3048   -0.4883 C   0  0  0  0  0  0  0  0  0  0  0  0
   -0.9302   -1.7803   -1.1520 C   0  0  0  0  0  0  0  0  0  0  0  0
   -1.3861   -0.6304   -0.3759 N   0  0  0  0  0  0  0  0  0  0  0  0
   -2.5843   -0.5931    0.2855 C   0  0  0  0  0  0  0  0  0  0  0  0
   -2.8565    0.5816    0.8315 O   0  0  0  0  0  0  0  0  0  0  0  0
   -3.6360   -1.5661    0.5153 C   0  0  0  0  0  0  0  0  0  0  0  0
   -4.9328   -1.0850    0.8361 C   0  0  0  0  0  0  0  0  0  0  0  0
   -5.9215   -1.9563    1.1165 C   0  0  0  0  0  0  0  0  0  0  0  0
   -5.7364   -3.3185    1.1059 C   0  0  0  0  0  0  0  0  0  0  0  0
   -4.4959   -3.8325    0.8003 C   0  0  0  0  0  0  0  0  0  0  0  0
   -3.4644   -2.9271    0.5105 C   0  0  0  0  0  0  0  0  0  0  0  0
   -4.2944   -5.2964    0.7940 C   0  0  0  0  0  0  0  0  0  0  0  0
   -5.0378   -5.9249   -0.1776 F   0  0  0  0  0  0  0  0  0  0  0  0
   -4.7406   -5.7726    2.0219 F   0  0  0  0  0  0  0  0  0  0  0  0
   -2.9900   -5.6698    0.6531 F   0  0  0  0  0  0  0  0  0  0  0  0
    2.4461   -1.4892   -1.4287 C   0  0  0  0  0  0  0  0  0  0  0  0
    2.2813   -2.0805   -2.6989 C   0  0  0  0  0  0  0  0  0  0  0  0
    3.3367   -2.3493   -3.5223 C   0  0  0  0  0  0  0  0  0  0  0  0
    4.6373   -2.0584   -3.1712 C   0  0  0  0  0  0  0  0  0  0  0  0
    5.7065   -2.3277   -3.9680 F   0  0  0  0  0  0  0  0  0  0  0  0
    4.8142   -1.4838   -1.9392 C   0  0  0  0  0  0  0  0  0  0  0  0
    3.7322   -1.2033   -1.0798 C   0  0  0  0  0  0  0  0  0  0  0  0
    4.0377   -0.6363    0.2377 C   0  0  0  0  0  0  0  0  0  0  0  0
    3.6308   -1.2422    1.3924 C   0  0  0  0  0  0  0  0  0  0  0  0
    3.9805   -0.6830    2.6142 C   0  0  0  0  0  0  0  0  0  0  0  0
    4.7206    0.4623    2.7380 C   0  0  0  0  0  0  0  0  0  0  0  0
    5.1290    1.0712    1.5618 C   0  0  0  0  0  0  0  0  0  0  0  0
    4.7892    0.5257    0.3357 C   0  0  0  0  0  0  0  0  0  0  0  0
   -0.4228    4.2215   -0.2055 C   0  0  0  0  0  0  0  0  0  0  0  0
   -1.6345    4.6250   -0.7076 C   0  0  0  0  0  0  0  0  0  0  0  0
   -2.1837    5.8730   -0.4119 C   0  0  0  0  0  0  0  0  0  0  0  0
   -1.5029    6.7252    0.3980 C   0  0  0  0  0  0  0  0  0  0  0  0
   -2.0364    7.9378    0.6731 F   0  0  0  0  0  0  0  0  0  0  0  0
   -0.2843    6.3544    0.9173 C   0  0  0  0  0  0  0  0  0  0  0  0
    0.2445    5.0880    0.6056 C   0  0  0  0  0  0  0  0  0  0  0  0
   -0.8522    2.4655   -2.2599 H   0  0  0  0  0  0  0  0  0  0  0  0
    1.0973    2.6489   -0.2101 H   0  0  0  0  0  0  0  0  0  0  0  0
   -1.8310    2.1303   -0.4474 H   0  0  0  0  0  0  0  0  0  0  0  0
   -0.9103    1.9014    1.0838 H   0  0  0  0  0  0  0  0  0  0  0  0
   -0.2797    0.5589   -1.6238 H   0  0  0  0  0  0  0  0  0  0  0  0
    0.8162   -0.1313    1.0899 H   0  0  0  0  0  0  0  0  0  0  0  0
    1.7271    0.7579   -0.2044 H   0  0  0  0  0  0  0  0  0  0  0  0
    0.7023   -3.2340   -0.9535 H   0  0  0  0  0  0  0  0  0  0  0  0
    0.0820   -2.4757    0.5596 H   0  0  0  0  0  0  0  0  0  0  0  0
   -0.6574   -1.3110   -2.1676 H   0  0  0  0  0  0  0  0  0  0  0  0
   -1.6315   -2.5413   -1.3853 H   0  0  0  0  0  0  0  0  0  0  0  0
   -5.0653   -0.0148    0.8289 H   0  0  0  0  0  0  0  0  0  0  0  0
   -6.9033   -1.5393    1.3562 H   0  0  0  0  0  0  0  0  0  0  0  0
   -6.5702   -3.9722    1.3326 H   0  0  0  0  0  0  0  0  0  0  0  0
   -2.5068   -3.3726    0.3214 H   0  0  0  0  0  0  0  0  0  0  0  0
    1.2599   -2.3122   -2.9776 H   0  0  0  0  0  0  0  0  0  0  0  0
    3.1670   -2.8029   -4.4854 H   0  0  0  0  0  0  0  0  0  0  0  0
    5.8044   -1.2167   -1.5778 H   0  0  0  0  0  0  0  0  0  0  0  0
    3.0347   -2.1467    1.3410 H   0  0  0  0  0  0  0  0  0  0  0  0
    3.6590   -1.1864    3.5287 H   0  0  0  0  0  0  0  0  0  0  0  0
    4.9713    0.8733    3.7212 H   0  0  0  0  0  0  0  0  0  0  0  0
    5.7319    1.9820    1.6555 H   0  0  0  0  0  0  0  0  0  0  0  0
    5.1309    1.0443   -0.5336 H   0  0  0  0  0  0  0  0  0  0  0  0
   -2.1733    3.9515   -1.3522 H   0  0  0  0  0  0  0  0  0  0  0  0
   -3.1209    6.1364   -0.8191 H   0  0  0  0  0  0  0  0  0  0  0  0
    0.2465    7.0278    1.5531 H   0  0  0  0  0  0  0  0  0  0  0  0
    1.2080    4.8440    1.0461 H   0  0  0  0  0  0  0  0  0  0  0  0
  1  2  1  0
  2  3  1  0
  3  4  1  0
  4  5  1  0
  5  6  1  0
  6  7  1  0
  7  8  1  0
  8  9  1  0
  9 10  1  0
 10 11  2  0
 10 12  1  0
 12 13  2  0
 13 14  1  0
 14 15  2  0
 15 16  1  0
 16 17  2  0
 16 18  1  0
 18 19  1  0
 18 20  1  0
 18 21  1  0
  6 22  1  0
 22 23  2  0
 23 24  1  0
 24 25  2  0
 25 26  1  0
 25 27  1  0
 27 28  2  0
 28 29  1  0
 29 30  2  0
 30 31  1  0
 31 32  2  0
 32 33  1  0
 33 34  2  0
  2 35  1  0
 35 36  2  0
 36 37  1  0
 37 38  2  0
 38 39  1  0
 38 40  1  0
 40 41  2  0
  9  4  1  0
 17 12  1  0
 28 22  1  0
 34 29  1  0
 41 35  1  0
  1 42  1  0
  2 43  1  0
  3 44  1  0
  3 45  1  0
  4 46  1  0
  5 47  1  0
  5 48  1  0
  7 49  1  0
  7 50  1  0
  8 51  1  0
  8 52  1  0
 13 53  1  0
 14 54  1  0
 15 55  1  0
 17 56  1  0
 23 57  1  0
 24 58  1  0
 27 59  1  0
 30 60  1  0
 31 61  1  0
 32 62  1  0
 33 63  1  0
 34 64  1  0
 36 65  1  0
 37 66  1  0
 40 67  1  0
 41 68  1  0
M  END
$$$$
[H]c1nc(N2C([H])([H])[C@@]3([H])N(c4c([H])c([H])c(OC([H])([H])[H])c(C([H])([H])[H])c4[H])C([H])([H])[C@@]23[H])c([H])c([H])c1C(F)(F)F
     RDKit          3D

 43 46  0  0  0  0  0  0  0  0999 V2000
    7.1516   -1.2904    1.0988 C   0  0  0  0  0  0  0  0  0  0  0  0
    6.3442   -0.4637    0.3516 O   0  0  0  0  0  0  0  0  0  0  0  0
    4.9411   -0.3550    0.3918 C   0  0  0  0  0  0  0  0  0  0  0  0
    4.1972   -1.1528    1.2486 C   0  0  0  0  0  0  0  0  0  0  0  0
    2.8238   -1.0548    1.2747 C   0  0  0  0  0  0  0  0  0  0  0  0
    2.1634   -0.1520    0.4361 C   0  0  0  0  0  0  0  0  0  0  0  0
    2.9518    0.6127   -0.3903 C   0  0  0  0  0  0  0  0  0  0  0  0
    4.3063    0.5402   -0.4413 C   0  0  0  0  0  0  0  0  0  0  0  0
    5.0864    1.4283   -1.3613 C   0  0  0  0  0  0  0  0  0  0  0  0
    0.7477   -0.1539    0.3676 N   0  0  0  0  0  0  0  0  0  0  0  0
   -0.3949   -0.6765    1.0677 C   0  0  0  0  0  0  0  0  0  0  0  0
   -1.1228   -0.8260   -0.2795 C   0  0  2  0  0  0  0  0  0  0  0  0
   -0.1503    0.3062   -0.6671 C   0  0  1  0  0  0  0  0  0  0  0  0
   -1.2531    1.2407   -0.3606 C   0  0  0  0  0  0  0  0  0  0  0  0
   -2.1947    0.1088   -0.4031 N   0  0  0  0  0  0  0  0  0  0  0  0
   -3.5968    0.0356   -0.5015 C   0  0  0  0  0  0  0  0  0  0  0  0
   -4.3217    0.5081    0.5888 C   0  0  0  0  0  0  0  0  0  0  0  0
   -5.6707    0.3960    0.5703 C   0  0  0  0  0  0  0  0  0  0  0  0
   -6.2827   -0.1823   -0.5438 C   0  0  0  0  0  0  0  0  0  0  0  0
   -5.5495   -0.6272   -1.5932 C   0  0  0  0  0  0  0  0  0  0  0  0
   -4.1848   -0.5163   -1.5679 N   0  0  0  0  0  0  0  0  0  0  0  0
   -7.7764   -0.2717   -0.4581 C   0  0  0  0  0  0  0  0  0  0  0  0
   -8.3222    0.9151    0.0120 F   0  0  0  0  0  0  0  0  0  0  0  0
   -8.2063   -0.4738   -1.7655 F   0  0  0  0  0  0  0  0  0  0  0  0
   -8.0473   -1.3155    0.3754 F   0  0  0  0  0  0  0  0  0  0  0  0
    6.8123   -2.3537    1.1268 H   0  0  0  0  0  0  0  0  0  0  0  0
    7.1865   -0.9503    2.1591 H   0  0  0  0  0  0  0  0  0  0  0  0
    8.2030   -1.2404    0.7090 H   0  0  0  0  0  0  0  0  0  0  0  0
    4.6818   -1.8617    1.9006 H   0  0  0  0  0  0  0  0  0  0  0  0
    2.2415   -1.6799    1.9400 H   0  0  0  0  0  0  0  0  0  0  0  0
    2.4386    1.3385   -1.0334 H   0  0  0  0  0  0  0  0  0  0  0  0
    5.2164    0.9093   -2.3175 H   0  0  0  0  0  0  0  0  0  0  0  0
    5.9924    1.8491   -0.8944 H   0  0  0  0  0  0  0  0  0  0  0  0
    4.3774    2.2891   -1.5904 H   0  0  0  0  0  0  0  0  0  0  0  0
   -0.9515   -0.0819    1.7738 H   0  0  0  0  0  0  0  0  0  0  0  0
   -0.2316   -1.6881    1.4897 H   0  0  0  0  0  0  0  0  0  0  0  0
   -1.0717   -1.7066   -0.8385 H   0  0  0  0  0  0  0  0  0  0  0  0
    0.2226    0.2681   -1.7115 H   0  0  0  0  0  0  0  0  0  0  0  0
   -1.4481    1.9978   -1.1931 H   0  0  0  0  0  0  0  0  0  0  0  0
   -1.2056    1.7105    0.6212 H   0  0  0  0  0  0  0  0  0  0  0  0
   -3.7951    0.9462    1.4266 H   0  0  0  0  0  0  0  0  0  0  0  0
   -6.2516    0.7660    1.4298 H   0  0  0  0  0  0  0  0  0  0  0  0
   -6.0565   -1.0642   -2.4483 H   0  0  0  0  0  0  0  0  0  0  0  0
  1  2  1  0
  2  3  1  0
  3  4  2  0
  4  5  1  0
  5  6  2  0
  6  7  1  0
  7  8  2  0
  8  9  1  0
  6 10  1  0
 10 11  1  0
 11 12  1  0
 12 13  1  0
 13 14  1  0
 14 15  1  0
 15 16  1  0
 16 17  2  0
 17 18  1  0
 18 19  2  0
 19 20  1  0
 20 21  2  0
 19 22  1  0
 22 23  1  0
 22 24  1  0
 22 25  1  0
  8  3  1  0
 13 10  1  0
 21 16  1  0
 15 12  1  0
  1 26  1  0
  1 27  1  0
  1 28  1  0
  4 29  1  0
  5 30  1  0
  7 31  1  0
  9 32  1  0
  9 33  1  0
  9 34  1  0
 11 35  1  0
 11 36  1  0
 12 37  1  6
 13 38  1  6
 14 39  1  0
 14 40  1  0
 17 41  1  0
 18 42  1  0
 20 43  1  0
M  END
$$$$
[H]C#CC([H])([H])O[C@]1([H])C([H])([H])[C@@]2([H])N([H])C([H])([H])[C@]([H])(C([H])([H])N2C([H])([H])[H])C1([H])[H].[H]Cl
     RDKit          3D

 34 34  0  0  0  0  0  0  0  0999 V2000
    0.6866    0.0000    0.0000 Cl  0  0  0  0  0  0  0  0  0  0  0  0
   -3.3244   -0.6420   -0.1325 C   0  0  0  0  0  0  0  0  0  0  0  0
   -2.0142   -0.0578   -0.1671 N   0  0  0  0  0  0  0  0  0  0  0  0
   -1.9571    1.1885    0.5359 C   0  0  0  0  0  0  0  0  0  0  0  0
   -0.4726    1.4994    0.7711 C   0  0  1  0  0  0  0  0  0  0  0  0
   -0.0127    0.5030    1.8056 C   0  0  0  0  0  0  0  0  0  0  0  0
   -0.4083   -0.8241    1.4592 N   0  0  0  0  0  0  0  0  0  0  0  0
   -0.9588   -0.9701    0.1518 C   0  0  2  0  0  0  0  0  0  0  0  0
    0.1122   -0.9699   -0.9424 C   0  0  0  0  0  0  0  0  0  0  0  0
    1.0830    0.1538   -0.6730 C   0  0  2  0  0  0  0  0  0  0  0  0
    0.2746    1.4214   -0.5119 C   0  0  0  0  0  0  0  0  0  0  0  0
    1.9640    0.2531   -1.7124 O   0  0  0  0  0  0  0  0  0  0  0  0
    3.2841    0.0224   -1.3636 C   0  0  0  0  0  0  0  0  0  0  0  0
    3.4717   -1.3149   -0.8127 C   0  0  0  0  0  0  0  0  0  0  0  0
    3.6472   -2.4170   -0.3531 C   0  0  0  0  0  0  0  0  0  0  0  0
   -0.6866    0.0000    0.0000 H   0  0  0  0  0  0  0  0  0  0  0  0
   -3.8184   -0.4061   -1.1124 H   0  0  0  0  0  0  0  0  0  0  0  0
   -3.9668   -0.1920    0.6546 H   0  0  0  0  0  0  0  0  0  0  0  0
   -3.2957   -1.7477    0.0521 H   0  0  0  0  0  0  0  0  0  0  0  0
   -2.4437    2.0039   -0.0261 H   0  0  0  0  0  0  0  0  0  0  0  0
   -2.4104    1.0542    1.5524 H   0  0  0  0  0  0  0  0  0  0  0  0
   -0.4217    2.5094    1.2411 H   0  0  0  0  0  0  0  0  0  0  0  0
   -0.5596    0.7752    2.7568 H   0  0  0  0  0  0  0  0  0  0  0  0
    1.0626    0.6089    2.0628 H   0  0  0  0  0  0  0  0  0  0  0  0
   -1.0909   -1.2501    2.1495 H   0  0  0  0  0  0  0  0  0  0  0  0
   -1.4065   -2.0075    0.1015 H   0  0  0  0  0  0  0  0  0  0  0  0
   -0.4064   -0.7079   -1.9078 H   0  0  0  0  0  0  0  0  0  0  0  0
    0.6027   -1.9461   -1.0075 H   0  0  0  0  0  0  0  0  0  0  0  0
    1.6523   -0.0987    0.2425 H   0  0  0  0  0  0  0  0  0  0  0  0
    0.9247    2.3294   -0.6063 H   0  0  0  0  0  0  0  0  0  0  0  0
   -0.4437    1.4596   -1.3568 H   0  0  0  0  0  0  0  0  0  0  0  0
    3.9118    0.1089   -2.2722 H   0  0  0  0  0  0  0  0  0  0  0  0
    3.6119    0.8051   -0.6503 H   0  0  0  0  0  0  0  0  0  0  0  0
    3.8091   -3.3936    0.0713 H   0  0  0  0  0  0  0  0  0  0  0  0
  2  3  1  0
  3  4  1  0
  4  5  1  0
  5  6  1  0
  6  7  1  0
  7  8  1  0
  8  9  1  0
  9 10  1  0
 10 11  1  0
 10 12  1  0
 12 13  1  0
 13 14  1  0
 14 15  3  0
  8  3  1  0
 11  5  1  0
  1 16  1  0
  2 17  1  0
  2 18  1  0
  2 19  1  0
  4 20  1  0
  4 21  1  0
  5 22  1  1
  6 23  1  0
  6 24  1  0
  7 25  1  0
  8 26  1  1
  9 27  1  0
  9 28  1  0
 10 29  1  1
 11 30  1  0
 11 31  1  0
 13 32  1  0
 13 33  1  0
 15 34  1  0
M  END
$$$$
[H]c1c([H])c(OC([H])([H])[C@@]2([H])OC([H])([H])C([H])([H])C2([H])[H])c([H])c(N([H])C(=O)c2c([H])c([H])c(N3C([H])([H])C([H])([H])OC([H])([H])C3([H])[H])c([H])c2[H])c1Br
     RDKit          3D

 54 57  0  0  0  0  0  0  0  0999 V2000
    0.2902    1.1063    4.0000 Br  0  0  0  0  0  0  0  0  0  0  0  0
    1.6627    0.6195    2.7723 C   0  0  0  0  0  0  0  0  0  0  0  0
    2.9656    0.6892    3.1954 C   0  0  0  0  0  0  0  0  0  0  0  0
    3.9660    0.3398    2.3166 C   0  0  0  0  0  0  0  0  0  0  0  0
    3.6424   -0.0681    1.0452 C   0  0  0  0  0  0  0  0  0  0  0  0
    4.6244   -0.4240    0.1440 O   0  0  0  0  0  0  0  0  0  0  0  0
    5.9960   -0.3818    0.4940 C   0  0  0  0  0  0  0  0  0  0  0  0
    6.8669   -0.8232   -0.6783 C   0  0  2  0  0  0  0  0  0  0  0  0
    8.2922   -0.7603   -0.2385 C   0  0  0  0  0  0  0  0  0  0  0  0
    8.9197    0.1659   -1.2493 C   0  0  0  0  0  0  0  0  0  0  0  0
    7.7344    0.8669   -1.8492 C   0  0  0  0  0  0  0  0  0  0  0  0
    6.6559    0.0052   -1.7397 O   0  0  0  0  0  0  0  0  0  0  0  0
    2.2939   -0.1324    0.6307 C   0  0  0  0  0  0  0  0  0  0  0  0
    1.2742    0.2090    1.4825 C   0  0  0  0  0  0  0  0  0  0  0  0
   -0.0796    0.1773    1.1616 N   0  0  0  0  0  0  0  0  0  0  0  0
   -0.6502   -0.1985   -0.0521 C   0  0  0  0  0  0  0  0  0  0  0  0
    0.0425   -0.5683   -1.0242 O   0  0  0  0  0  0  0  0  0  0  0  0
   -2.1320   -0.1643   -0.2102 C   0  0  0  0  0  0  0  0  0  0  0  0
   -2.7659   -0.9239   -1.1719 C   0  0  0  0  0  0  0  0  0  0  0  0
   -4.1394   -0.8840   -1.3233 C   0  0  0  0  0  0  0  0  0  0  0  0
   -4.9424   -0.0784   -0.5154 C   0  0  0  0  0  0  0  0  0  0  0  0
   -4.2990    0.6719    0.4366 C   0  0  0  0  0  0  0  0  0  0  0  0
   -2.9036    0.6281    0.5867 C   0  0  0  0  0  0  0  0  0  0  0  0
   -6.3542   -0.0498   -0.6897 N   0  0  0  0  0  0  0  0  0  0  0  0
   -6.9992   -0.8083   -1.7265 C   0  0  0  0  0  0  0  0  0  0  0  0
   -8.4921   -0.9219   -1.5591 C   0  0  0  0  0  0  0  0  0  0  0  0
   -8.9665    0.3422   -1.2077 O   0  0  0  0  0  0  0  0  0  0  0  0
   -8.6088    0.5031    0.1430 C   0  0  0  0  0  0  0  0  0  0  0  0
   -7.1370    0.7602    0.2001 C   0  0  0  0  0  0  0  0  0  0  0  0
    3.2262    1.0068    4.1864 H   0  0  0  0  0  0  0  0  0  0  0  0
    5.0158    0.3665    2.5700 H   0  0  0  0  0  0  0  0  0  0  0  0
    6.1690   -1.1401    1.2965 H   0  0  0  0  0  0  0  0  0  0  0  0
    6.2262    0.6362    0.8254 H   0  0  0  0  0  0  0  0  0  0  0  0
    6.5704   -1.8801   -0.8688 H   0  0  0  0  0  0  0  0  0  0  0  0
    8.7474   -1.7745   -0.2676 H   0  0  0  0  0  0  0  0  0  0  0  0
    8.3744   -0.3386    0.7914 H   0  0  0  0  0  0  0  0  0  0  0  0
    9.4597   -0.4653   -1.9869 H   0  0  0  0  0  0  0  0  0  0  0  0
    9.5931    0.8459   -0.6927 H   0  0  0  0  0  0  0  0  0  0  0  0
    7.9496    1.0880   -2.9098 H   0  0  0  0  0  0  0  0  0  0  0  0
    7.4880    1.7811   -1.2629 H   0  0  0  0  0  0  0  0  0  0  0  0
    2.0942   -0.4567   -0.3720 H   0  0  0  0  0  0  0  0  0  0  0  0
   -0.7406    0.4780    1.9701 H   0  0  0  0  0  0  0  0  0  0  0  0
   -2.1827   -1.5475   -1.8027 H   0  0  0  0  0  0  0  0  0  0  0  0
   -4.6542   -1.4784   -2.0780 H   0  0  0  0  0  0  0  0  0  0  0  0
   -4.8490    1.3175    1.0959 H   0  0  0  0  0  0  0  0  0  0  0  0
   -2.4367    1.2473    1.3529 H   0  0  0  0  0  0  0  0  0  0  0  0
   -6.6163   -1.8717   -1.6944 H   0  0  0  0  0  0  0  0  0  0  0  0
   -6.7502   -0.4396   -2.7438 H   0  0  0  0  0  0  0  0  0  0  0  0
   -8.9338   -1.3055   -2.4782 H   0  0  0  0  0  0  0  0  0  0  0  0
   -8.7057   -1.6545   -0.7448 H   0  0  0  0  0  0  0  0  0  0  0  0
   -8.8855   -0.3991    0.7322 H   0  0  0  0  0  0  0  0  0  0  0  0
   -9.1523    1.3666    0.5233 H   0  0  0  0  0  0  0  0  0  0  0  0
   -6.7677    0.7041    1.2576 H   0  0  0  0  0  0  0  0  0  0  0  0
   -6.9966    1.8420   -0.0727 H   0  0  0  0  0  0  0  0  0  0  0  0
  1  2  1  0
  2  3  2  0
  3  4  1  0
  4  5  2  0
  5  6  1  0
  6  7  1  0
  7  8  1  0
  8  9  1  0
  9 10  1  0
 10 11  1  0
 11 12  1  0
  5 13  1  0
 13 14  2  0
 14 15  1  0
 15 16  1  0
 16 17  2  0
 16 18  1  0
 18 19  2  0
 19 20  1  0
 20 21  2  0
 21 22  1  0
 22 23  2  0
 21 24  1  0
 24 25  1  0
 25 26  1  0
 26 27  1  0
 27 28  1  0
 28 29  1  0
 14  2  1  0
 23 18  1  0
 29 24  1  0
 12  8  1  0
  3 30  1  0
  4 31  1  0
  7 32  1  0
  7 33  1  0
  8 34  1  6
  9 35  1  0
  9 36  1  0
 10 37  1  0
 10 38  1  0
 11 39  1  0
 11 40  1  0
 13 41  1  0
 15 42  1  0
 19 43  1  0
 20 44  1  0
 22 45  1  0
 23 46  1  0
 25 47  1  0
 25 48  1  0
 26 49  1  0
 26 50  1  0
 28 51  1  0
 28 52  1  0
 29 53  1  0
 29 54  1  0
M  END
$$$$
[H]c1c([H])c(C2([H])C([H])([H])C3([H])N([H])C2([H])C([H])([H])C3([H])[H])c([H])c([H])c1F
     RDKit          3D

 28 30  0  0  0  0  0  0  0  0999 V2000
    5.2343   -0.3835    0.1213 F   0  0  0  0  0  0  0  0  0  0  0  0
    3.9101   -0.3118   -0.1362 C   0  0  0  0  0  0  0  0  0  0  0  0
    3.0498   -0.3098    0.9417 C   0  0  0  0  0  0  0  0  0  0  0  0
    1.6757   -0.2380    0.7466 C   0  0  0  0  0  0  0  0  0  0  0  0
    1.1357   -0.1670   -0.5232 C   0  0  0  0  0  0  0  0  0  0  0  0
    2.0106   -0.1693   -1.6141 C   0  0  0  0  0  0  0  0  0  0  0  0
    3.3687   -0.2416   -1.3847 C   0  0  0  0  0  0  0  0  0  0  0  0
   -0.3165   -0.0929   -0.6792 C   0  0  0  0  0  0  0  0  0  0  0  0
   -1.0185   -1.3023   -0.0612 C   0  0  0  0  0  0  0  0  0  0  0  0
   -2.1512   -0.5866    0.6622 C   0  0  0  0  0  0  0  0  0  0  0  0
   -2.9931    0.0604   -0.3951 C   0  0  0  0  0  0  0  0  0  0  0  0
   -2.2780    1.3975   -0.6440 C   0  0  0  0  0  0  0  0  0  0  0  0
   -0.9375    1.1107   -0.0197 C   0  0  0  0  0  0  0  0  0  0  0  0
   -1.3897    0.5266    1.2554 N   0  0  0  0  0  0  0  0  0  0  0  0
    3.4347   -0.3639    1.9457 H   0  0  0  0  0  0  0  0  0  0  0  0
    1.0567   -0.2408    1.6404 H   0  0  0  0  0  0  0  0  0  0  0  0
    1.5989   -0.1141   -2.6112 H   0  0  0  0  0  0  0  0  0  0  0  0
    4.0197   -0.2415   -2.2446 H   0  0  0  0  0  0  0  0  0  0  0  0
   -0.5871   -0.0416   -1.7719 H   0  0  0  0  0  0  0  0  0  0  0  0
   -1.4782   -1.9501   -0.8199 H   0  0  0  0  0  0  0  0  0  0  0  0
   -0.3480   -1.8246    0.6406 H   0  0  0  0  0  0  0  0  0  0  0  0
   -2.6678   -1.1859    1.3834 H   0  0  0  0  0  0  0  0  0  0  0  0
   -2.9061   -0.4966   -1.3722 H   0  0  0  0  0  0  0  0  0  0  0  0
   -4.0370    0.1952   -0.1185 H   0  0  0  0  0  0  0  0  0  0  0  0
   -2.2378    1.6506   -1.7035 H   0  0  0  0  0  0  0  0  0  0  0  0
   -2.8134    2.1806   -0.0403 H   0  0  0  0  0  0  0  0  0  0  0  0
   -0.2915    1.9580    0.1035 H   0  0  0  0  0  0  0  0  0  0  0  0
   -2.0436    1.1823    1.7422 H   0  0  0  0  0  0  0  0  0  0  0  0
  1  2  1  0
  2  3  2  0
  3  4  1  0
  4  5  2  0
  5  6  1  0
  6  7  2  0
  5  8  1  0
  8  9  1  0
  9 10  1  0
 10 11  1  0
 11 12  1  0
 12 13  1  0
 13 14  1  0
  7  2  1  0
 13  8  1  0
 14 10  1  0
  3 15  1  0
  4 16  1  0
  6 17  1  0
  7 18  1  0
  8 19  1  0
  9 20  1  0
  9 21  1  0
 10 22  1  0
 11 23  1  0
 11 24  1  0
 12 25  1  0
 12 26  1  0
 13 27  1  0
 14 28  1  0
M  END
$$$$
[H]OC1([H])C([H])([H])N(c2nc([H])nc(N([H])[H])c2C(=O)N([H])C([H])([H])c2c([H])c([H])c([H])c([H])c2[H])[C@@]([H])(C(=O)N([H])[C@]2([H])C([H])([H])C([H])([H])[C@]([H])(O[H])C2([H])[H])N(C([H])([H])c2c([H])c([H])c(F)c([H])c2F)[C@]1([H])C([H])([H])c1c([H])c([H])c([H])c([H])c1[H]
     RDKit          3D

 88 93  0  0  0  0  0  0  0  0999 V2000
    4.9913    1.6564   -1.1696 N   0  0  0  0  0  0  0  0  0  0  0  0
    3.5661    1.7985   -1.2549 C   0  0  0  0  0  0  0  0  0  0  0  0
    2.9190    2.3066   -2.2443 N   0  0  0  0  0  0  0  0  0  0  0  0
    1.5692    2.0830   -2.3687 C   0  0  0  0  0  0  0  0  0  0  0  0
    0.9859    1.3600   -1.4662 N   0  0  0  0  0  0  0  0  0  0  0  0
    1.5931    0.7562   -0.3339 C   0  0  0  0  0  0  0  0  0  0  0  0
    0.6468    0.1671    0.5652 N   0  0  0  0  0  0  0  0  0  0  0  0
    0.8455   -0.7707    1.6426 C   0  0  0  0  0  0  0  0  0  0  0  0
   -0.4435   -1.5639    1.9317 C   0  0  0  0  0  0  0  0  0  0  0  0
   -1.1438   -1.1613    3.0198 O   0  0  0  0  0  0  0  0  0  0  0  0
   -1.1689   -1.8989    0.6703 C   0  0  1  0  0  0  0  0  0  0  0  0
   -2.4130   -2.6734    0.8841 C   0  0  0  0  0  0  0  0  0  0  0  0
   -3.5153   -2.1385    1.6452 C   0  0  0  0  0  0  0  0  0  0  0  0
   -3.8132   -2.5073    2.9201 C   0  0  0  0  0  0  0  0  0  0  0  0
   -4.8902   -1.9567    3.6119 C   0  0  0  0  0  0  0  0  0  0  0  0
   -5.6841   -1.0084    3.0147 C   0  0  0  0  0  0  0  0  0  0  0  0
   -5.3904   -0.6072    1.6975 C   0  0  0  0  0  0  0  0  0  0  0  0
   -4.3223   -1.1959    1.0843 C   0  0  0  0  0  0  0  0  0  0  0  0
   -1.3474   -0.7600   -0.1850 N   0  0  0  0  0  0  0  0  0  0  0  0
   -1.4685   -0.8978   -1.5463 C   0  0  0  0  0  0  0  0  0  0  0  0
   -1.7175   -2.1425   -2.2357 C   0  0  0  0  0  0  0  0  0  0  0  0
   -1.0573   -3.3166   -2.3115 C   0  0  0  0  0  0  0  0  0  0  0  0
   -1.2755   -4.3768   -3.1559 C   0  0  0  0  0  0  0  0  0  0  0  0
   -2.2716   -4.2743   -4.0675 C   0  0  0  0  0  0  0  0  0  0  0  0
   -2.5976   -5.2427   -4.9462 F   0  0  0  0  0  0  0  0  0  0  0  0
   -3.0061   -3.1046   -4.0997 C   0  0  0  0  0  0  0  0  0  0  0  0
   -2.7721   -2.0624   -3.2432 C   0  0  0  0  0  0  0  0  0  0  0  0
   -3.5346   -0.9842   -3.3061 F   0  0  0  0  0  0  0  0  0  0  0  0
   -0.8030    0.4268    0.3820 C   0  0  2  0  0  0  0  0  0  0  0  0
   -1.2019    1.7333   -0.0392 C   0  0  0  0  0  0  0  0  0  0  0  0
   -0.6130    2.7617    0.1087 O   0  0  0  0  0  0  0  0  0  0  0  0
   -2.5142    1.8442   -0.7292 N   0  0  0  0  0  0  0  0  0  0  0  0
   -3.0601    2.9998   -1.3253 C   0  0  2  0  0  0  0  0  0  0  0  0
   -2.1216    4.0401   -1.8971 C   0  0  0  0  0  0  0  0  0  0  0  0
   -2.5043    5.3494   -1.2924 C   0  0  0  0  0  0  0  0  0  0  0  0
   -3.8441    5.1718   -0.6423 C   0  0  2  0  0  0  0  0  0  0  0  0
   -3.8303    5.6944    0.6641 O   0  0  0  0  0  0  0  0  0  0  0  0
   -4.0857    3.6714   -0.5025 C   0  0  0  0  0  0  0  0  0  0  0  0
    2.8694    0.9737   -0.2491 C   0  0  0  0  0  0  0  0  0  0  0  0
    3.7492    0.7601    0.8762 C   0  0  0  0  0  0  0  0  0  0  0  0
    4.4498    1.8930    1.1949 O   0  0  0  0  0  0  0  0  0  0  0  0
    4.0859   -0.2239    1.6458 N   0  0  0  0  0  0  0  0  0  0  0  0
    4.8344   -0.7665    2.7549 C   0  0  0  0  0  0  0  0  0  0  0  0
    6.2293   -0.9700    2.1322 C   0  0  0  0  0  0  0  0  0  0  0  0
    7.0446    0.0656    1.7706 C   0  0  0  0  0  0  0  0  0  0  0  0
    8.2255   -0.1132    1.1169 C   0  0  0  0  0  0  0  0  0  0  0  0
    8.6827   -1.3706    0.8037 C   0  0  0  0  0  0  0  0  0  0  0  0
    7.8859   -2.4196    1.1595 C   0  0  0  0  0  0  0  0  0  0  0  0
    6.6420   -2.2300    1.8194 C   0  0  0  0  0  0  0  0  0  0  0  0
    5.3467    0.6046   -1.2318 H   0  0  0  0  0  0  0  0  0  0  0  0
    5.7395    2.3239   -1.0281 H   0  0  0  0  0  0  0  0  0  0  0  0
    1.0044    2.5297   -3.2089 H   0  0  0  0  0  0  0  0  0  0  0  0
    1.5527   -1.5421    1.2958 H   0  0  0  0  0  0  0  0  0  0  0  0
    1.0563   -0.3036    2.6144 H   0  0  0  0  0  0  0  0  0  0  0  0
   -0.0105   -2.5719    2.2930 H   0  0  0  0  0  0  0  0  0  0  0  0
   -0.6809   -0.6060    3.6724 H   0  0  0  0  0  0  0  0  0  0  0  0
   -0.4730   -2.5789    0.1359 H   0  0  0  0  0  0  0  0  0  0  0  0
   -2.8813   -3.0668   -0.0781 H   0  0  0  0  0  0  0  0  0  0  0  0
   -2.0438   -3.6658    1.3360 H   0  0  0  0  0  0  0  0  0  0  0  0
   -3.2164   -3.2681    3.4278 H   0  0  0  0  0  0  0  0  0  0  0  0
   -5.1550   -2.2359    4.6168 H   0  0  0  0  0  0  0  0  0  0  0  0
   -6.5249   -0.5681    3.5630 H   0  0  0  0  0  0  0  0  0  0  0  0
   -6.0234    0.1577    1.2605 H   0  0  0  0  0  0  0  0  0  0  0  0
   -4.1567   -0.8413    0.0506 H   0  0  0  0  0  0  0  0  0  0  0  0
   -1.6517   -0.0253   -2.1845 H   0  0  0  0  0  0  0  0  0  0  0  0
   -0.1909   -0.9806   -1.7593 H   0  0  0  0  0  0  0  0  0  0  0  0
   -0.1652   -3.4776   -1.6498 H   0  0  0  0  0  0  0  0  0  0  0  0
   -0.6903   -5.2636   -3.1325 H   0  0  0  0  0  0  0  0  0  0  0  0
   -3.8342   -3.0429   -4.8254 H   0  0  0  0  0  0  0  0  0  0  0  0
   -1.2015    0.4134    1.4624 H   0  0  0  0  0  0  0  0  0  0  0  0
   -3.1032    0.9870   -0.7915 H   0  0  0  0  0  0  0  0  0  0  0  0
   -3.5915    2.6280   -2.3079 H   0  0  0  0  0  0  0  0  0  0  0  0
   -2.3034    4.1597   -3.0276 H   0  0  0  0  0  0  0  0  0  0  0  0
   -1.0610    3.7709   -1.8641 H   0  0  0  0  0  0  0  0  0  0  0  0
   -2.6227    6.1340   -2.0782 H   0  0  0  0  0  0  0  0  0  0  0  0
   -1.7547    5.6684   -0.5618 H   0  0  0  0  0  0  0  0  0  0  0  0
   -4.6662    5.5842   -1.2465 H   0  0  0  0  0  0  0  0  0  0  0  0
   -3.5767    6.6471    0.6443 H   0  0  0  0  0  0  0  0  0  0  0  0
   -4.0977    3.3470    0.5550 H   0  0  0  0  0  0  0  0  0  0  0  0
   -5.1227    3.4315   -0.8924 H   0  0  0  0  0  0  0  0  0  0  0  0
    3.6549   -1.2264    1.1369 H   0  0  0  0  0  0  0  0  0  0  0  0
    4.5260   -1.7252    3.1468 H   0  0  0  0  0  0  0  0  0  0  0  0
    5.0295    0.0325    3.5286 H   0  0  0  0  0  0  0  0  0  0  0  0
    6.7197    1.0806    2.0554 H   0  0  0  0  0  0  0  0  0  0  0  0
    8.8112    0.7514    0.8489 H   0  0  0  0  0  0  0  0  0  0  0  0
    9.6235   -1.5132    0.2893 H   0  0  0  0  0  0  0  0  0  0  0  0
    8.2449   -3.4192    0.9040 H   0  0  0  0  0  0  0  0  0  0  0  0
    6.0854   -3.1040    2.0836 H   0  0  0  0  0  0  0  0  0  0  0  0
  1  2  1  0
  2  3  2  0
  3  4  1  0
  4  5  2  0
  5  6  1  0
  6  7  1  0
  7  8  1  0
  8  9  1  0
  9 10  1  0
  9 11  1  0
 11 12  1  0
 12 13  1  0
 13 14  2  0
 14 15  1  0
 15 16  2  0
 16 17  1  0
 17 18  2  0
 11 19  1  0
 19 20  1  0
 20 21  1  0
 21 22  2  0
 22 23  1  0
 23 24  2  0
 24 25  1  0
 24 26  1  0
 26 27  2  0
 27 28  1  0
 19 29  1  0
 29 30  1  0
 30 31  2  0
 30 32  1  0
 32 33  1  0
 33 34  1  0
 34 35  1  0
 35 36  1  0
 36 37  1  0
 36 38  1  0
  6 39  2  0
 39 40  1  0
 40 41  2  0
 40 42  1  0
 42 43  1  0
 43 44  1  0
 44 45  2  0
 45 46  1  0
 46 47  2  0
 47 48  1  0
 48 49  2  0
 39  2  1  0
 49 44  1  0
 29  7  1  0
 38 33  1  0
 18 13  1  0
 27 21  1  0
  1 50  1  0
  1 51  1  0
  4 52  1  0
  8 53  1  0
  8 54  1  0
  9 55  1  0
 10 56  1  0
 11 57  1  6
 12 58  1  0
 12 59  1  0
 14 60  1  0
 15 61  1  0
 16 62  1  0
 17 63  1  0
 18 64  1  0
 20 65  1  0
 20 66  1  0
 22 67  1  0
 23 68  1  0
 26 69  1  0
 29 70  1  1
 32 71  1  0
 33 72  1  6
 34 73  1  0
 34 74  1  0
 35 75  1  0
 35 76  1  0
 36 77  1  6
 37 78  1  0
 38 79  1  0
 38 80  1  0
 42 81  1  0
 43 82  1  0
 43 83  1  0
 45 84  1  0
 46 85  1  0
 47 86  1  0
 48 87  1  0
 49 88  1  0
M  END
$$$$
[H]OC(=O)C([H])(N([H])C(=O)N([H])C([H])([H])C([H])([H])C([H])([H])C([H])([H])C([H])([H])n1c(N([H])C([H])([H])C([H])([H])C([H])([H])C([H])([H])[H])nc2c([H])c([H])c([H])c([H])c21)C([H])([H])c1c([H])c([H])c([H])c([H])c1[H]
     RDKit          3D

 69 71  0  0  0  0  0  0  0  0999 V2000
   -4.2666   -2.7845   -2.4475 C   0  0  0  0  0  0  0  0  0  0  0  0
   -5.2660   -1.6913   -2.1966 C   0  0  0  0  0  0  0  0  0  0  0  0
   -6.0018   -2.0338   -0.9201 C   0  0  0  0  0  0  0  0  0  0  0  0
   -5.0501   -2.1274    0.2321 C   0  0  0  0  0  0  0  0  0  0  0  0
   -4.3258   -0.9022    0.4862 N   0  0  0  0  0  0  0  0  0  0  0  0
   -5.0037    0.3012    0.8207 C   0  0  0  0  0  0  0  0  0  0  0  0
   -6.3066    0.5251    0.9577 N   0  0  0  0  0  0  0  0  0  0  0  0
   -6.5665    1.7996    1.2826 C   0  0  0  0  0  0  0  0  0  0  0  0
   -7.7206    2.5124    1.5283 C   0  0  0  0  0  0  0  0  0  0  0  0
   -7.6934    3.8521    1.8505 C   0  0  0  0  0  0  0  0  0  0  0  0
   -6.4701    4.4757    1.9236 C   0  0  0  0  0  0  0  0  0  0  0  0
   -5.3341    3.7509    1.6761 C   0  0  0  0  0  0  0  0  0  0  0  0
   -5.3224    2.4199    1.3535 C   0  0  0  0  0  0  0  0  0  0  0  0
   -4.4023    1.4862    1.0691 N   0  0  0  0  0  0  0  0  0  0  0  0
   -2.9675    1.7513    1.0415 C   0  0  0  0  0  0  0  0  0  0  0  0
   -2.5249    2.1791   -0.3294 C   0  0  0  0  0  0  0  0  0  0  0  0
   -1.0568    2.4669   -0.4052 C   0  0  0  0  0  0  0  0  0  0  0  0
   -0.2441    1.2434   -0.0513 C   0  0  0  0  0  0  0  0  0  0  0  0
    1.2394    1.5593   -0.1421 C   0  0  0  0  0  0  0  0  0  0  0  0
    1.9676    0.3667    0.2010 N   0  0  0  0  0  0  0  0  0  0  0  0
    3.4104    0.3350    0.2105 C   0  0  0  0  0  0  0  0  0  0  0  0
    4.0279    1.3783   -0.0887 O   0  0  0  0  0  0  0  0  0  0  0  0
    4.1130   -0.8382    0.5473 N   0  0  0  0  0  0  0  0  0  0  0  0
    5.5863   -0.7894    0.5341 C   0  0  0  0  0  0  0  0  0  0  0  0
    5.9820   -1.7478   -0.5522 C   0  0  0  0  0  0  0  0  0  0  0  0
    7.4245   -1.8979   -0.7872 C   0  0  0  0  0  0  0  0  0  0  0  0
    8.1110   -1.0470   -1.6558 C   0  0  0  0  0  0  0  0  0  0  0  0
    9.4606   -1.1834   -1.9064 C   0  0  0  0  0  0  0  0  0  0  0  0
   10.1820   -2.1741   -1.3011 C   0  0  0  0  0  0  0  0  0  0  0  0
    9.5313   -3.0278   -0.4398 C   0  0  0  0  0  0  0  0  0  0  0  0
    8.1794   -2.8849   -0.1940 C   0  0  0  0  0  0  0  0  0  0  0  0
    6.1257   -1.0837    1.8624 C   0  0  0  0  0  0  0  0  0  0  0  0
    7.4789   -1.0411    2.1035 O   0  0  0  0  0  0  0  0  0  0  0  0
    5.3565   -1.3792    2.8076 O   0  0  0  0  0  0  0  0  0  0  0  0
   -3.3010   -2.4951   -1.9697 H   0  0  0  0  0  0  0  0  0  0  0  0
   -4.0794   -2.9776   -3.5227 H   0  0  0  0  0  0  0  0  0  0  0  0
   -4.5876   -3.7584   -2.0029 H   0  0  0  0  0  0  0  0  0  0  0  0
   -4.7268   -0.7506   -2.0376 H   0  0  0  0  0  0  0  0  0  0  0  0
   -5.9644   -1.6503   -3.0465 H   0  0  0  0  0  0  0  0  0  0  0  0
   -6.8170   -1.3277   -0.7720 H   0  0  0  0  0  0  0  0  0  0  0  0
   -6.4345   -3.0558   -1.0597 H   0  0  0  0  0  0  0  0  0  0  0  0
   -4.3972   -2.9987    0.1332 H   0  0  0  0  0  0  0  0  0  0  0  0
   -5.6807   -2.3314    1.1456 H   0  0  0  0  0  0  0  0  0  0  0  0
   -3.2884   -0.9476    0.4116 H   0  0  0  0  0  0  0  0  0  0  0  0
   -8.6707    2.0018    1.4653 H   0  0  0  0  0  0  0  0  0  0  0  0
   -8.6262    4.3829    2.0381 H   0  0  0  0  0  0  0  0  0  0  0  0
   -6.4515    5.5341    2.1784 H   0  0  0  0  0  0  0  0  0  0  0  0
   -4.3624    4.2447    1.7337 H   0  0  0  0  0  0  0  0  0  0  0  0
   -2.4486    0.8644    1.4122 H   0  0  0  0  0  0  0  0  0  0  0  0
   -2.7471    2.5938    1.7413 H   0  0  0  0  0  0  0  0  0  0  0  0
   -3.1248    3.0569   -0.6617 H   0  0  0  0  0  0  0  0  0  0  0  0
   -2.7291    1.2957   -1.0041 H   0  0  0  0  0  0  0  0  0  0  0  0
   -0.7596    2.8207   -1.4119 H   0  0  0  0  0  0  0  0  0  0  0  0
   -0.8361    3.3109    0.2837 H   0  0  0  0  0  0  0  0  0  0  0  0
   -0.4421    0.4170   -0.7583 H   0  0  0  0  0  0  0  0  0  0  0  0
   -0.4763    0.9240    1.0016 H   0  0  0  0  0  0  0  0  0  0  0  0
    1.4866    1.8489   -1.1640 H   0  0  0  0  0  0  0  0  0  0  0  0
    1.4594    2.3849    0.5942 H   0  0  0  0  0  0  0  0  0  0  0  0
    1.4753   -0.5158    0.4546 H   0  0  0  0  0  0  0  0  0  0  0  0
    3.6613   -1.7409    0.8058 H   0  0  0  0  0  0  0  0  0  0  0  0
    5.8494    0.2495    0.2420 H   0  0  0  0  0  0  0  0  0  0  0  0
    5.5011   -2.7573   -0.4048 H   0  0  0  0  0  0  0  0  0  0  0  0
    5.5019   -1.3713   -1.5021 H   0  0  0  0  0  0  0  0  0  0  0  0
    7.5583   -0.2571   -2.1446 H   0  0  0  0  0  0  0  0  0  0  0  0
    9.9931   -0.5118   -2.5893 H   0  0  0  0  0  0  0  0  0  0  0  0
   11.2492   -2.2583   -1.5183 H   0  0  0  0  0  0  0  0  0  0  0  0
   10.1029   -3.8098    0.0375 H   0  0  0  0  0  0  0  0  0  0  0  0
    7.6754   -3.5614    0.4855 H   0  0  0  0  0  0  0  0  0  0  0  0
    7.7841   -0.6222    2.9818 H   0  0  0  0  0  0  0  0  0  0  0  0
  1  2  1  0
  2  3  1  0
  3  4  1  0
  4  5  1  0
  5  6  1  0
  6  7  2  0
  7  8  1  0
  8  9  2  0
  9 10  1  0
 10 11  2  0
 11 12  1  0
 12 13  2  0
 13 14  1  0
 14 15  1  0
 15 16  1  0
 16 17  1  0
 17 18  1  0
 18 19  1  0
 19 20  1  0
 20 21  1  0
 21 22  2  0
 21 23  1  0
 23 24  1  0
 24 25  1  0
 25 26  1  0
 26 27  2  0
 27 28  1  0
 28 29  2  0
 29 30  1  0
 30 31  2  0
 24 32  1  0
 32 33  1  0
 32 34  2  0
 14  6  1  0
 31 26  1  0
 13  8  1  0
  1 35  1  0
  1 36  1  0
  1 37  1  0
  2 38  1  0
  2 39  1  0
  3 40  1  0
  3 41  1  0
  4 42  1  0
  4 43  1  0
  5 44  1  0
  9 45  1  0
 10 46  1  0
 11 47  1  0
 12 48  1  0
 15 49  1  0
 15 50  1  0
 16 51  1  0
 16 52  1  0
 17 53  1  0
 17 54  1  0
 18 55  1  0
 18 56  1  0
 19 57  1  0
 19 58  1  0
 20 59  1  0
 23 60  1  0
 24 61  1  0
 25 62  1  0
 25 63  1  0
 27 64  1  0
 28 65  1  0
 29 66  1  0
 30 67  1  0
 31 68  1  0
 33 69  1  0
M  END
$$$$
[H]c1c(OC([H])([H])[H])nc(-c2sc(C(=O)N([H])c3c([H])c(F)c(F)c(F)c3[H])c([H])c2[H])c([H])c1[H]
     RDKit          3D

 36 38  0  0  0  0  0  0  0  0999 V2000
    6.3352   -1.1763   -0.8602 C   0  0  0  0  0  0  0  0  0  0  0  0
    6.5504    0.1461   -0.4503 O   0  0  0  0  0  0  0  0  0  0  0  0
    5.4713    0.9650   -0.0999 C   0  0  0  0  0  0  0  0  0  0  0  0
    5.7585    2.2560    0.2941 C   0  0  0  0  0  0  0  0  0  0  0  0
    4.7021    3.0704    0.6412 C   0  0  0  0  0  0  0  0  0  0  0  0
    3.4349    2.5563    0.5761 C   0  0  0  0  0  0  0  0  0  0  0  0
    3.1697    1.2653    0.1803 C   0  0  0  0  0  0  0  0  0  0  0  0
    4.2160    0.4862   -0.1546 N   0  0  0  0  0  0  0  0  0  0  0  0
    1.7931    0.7561    0.1255 C   0  0  0  0  0  0  0  0  0  0  0  0
    1.3406   -0.4790   -0.2373 C   0  0  0  0  0  0  0  0  0  0  0  0
    0.0185   -0.6859   -0.1989 C   0  0  0  0  0  0  0  0  0  0  0  0
   -0.7778    0.3475    0.1982 C   0  0  0  0  0  0  0  0  0  0  0  0
    0.3622    1.5926    0.5095 S   0  0  0  0  0  0  0  0  0  0  0  0
   -2.2497    0.4106    0.3358 C   0  0  0  0  0  0  0  0  0  0  0  0
   -2.7118    1.4761    0.7167 O   0  0  0  0  0  0  0  0  0  0  0  0
   -3.0001   -0.7337    0.0261 N   0  0  0  0  0  0  0  0  0  0  0  0
   -4.3986   -0.8770    0.0876 C   0  0  0  0  0  0  0  0  0  0  0  0
   -5.2945    0.1431    0.2765 C   0  0  0  0  0  0  0  0  0  0  0  0
   -6.6791   -0.1108    0.3374 C   0  0  0  0  0  0  0  0  0  0  0  0
   -7.5311    0.9013    0.5227 F   0  0  0  0  0  0  0  0  0  0  0  0
   -7.1622   -1.3849    0.2087 C   0  0  0  0  0  0  0  0  0  0  0  0
   -8.4920   -1.6744    0.2614 F   0  0  0  0  0  0  0  0  0  0  0  0
   -6.2988   -2.4154    0.0203 C   0  0  0  0  0  0  0  0  0  0  0  0
   -6.7665   -3.6875   -0.1094 F   0  0  0  0  0  0  0  0  0  0  0  0
   -4.9410   -2.1567   -0.0380 C   0  0  0  0  0  0  0  0  0  0  0  0
    5.7786   -1.6887   -0.0433 H   0  0  0  0  0  0  0  0  0  0  0  0
    5.7603   -1.1942   -1.7903 H   0  0  0  0  0  0  0  0  0  0  0  0
    7.3116   -1.6883   -0.9319 H   0  0  0  0  0  0  0  0  0  0  0  0
    6.7954    2.6096    0.3258 H   0  0  0  0  0  0  0  0  0  0  0  0
    4.9055    4.0985    0.9570 H   0  0  0  0  0  0  0  0  0  0  0  0
    2.6066    3.1882    0.8461 H   0  0  0  0  0  0  0  0  0  0  0  0
    2.0785   -1.2533   -0.5461 H   0  0  0  0  0  0  0  0  0  0  0  0
   -0.4469   -1.6571   -0.4754 H   0  0  0  0  0  0  0  0  0  0  0  0
   -2.4465   -1.5974   -0.2997 H   0  0  0  0  0  0  0  0  0  0  0  0
   -4.9498    1.1616    0.3747 H   0  0  0  0  0  0  0  0  0  0  0  0
   -4.2428   -2.9699   -0.1865 H   0  0  0  0  0  0  0  0  0  0  0  0
  1  2  1  0
  2  3  1  0
  3  4  2  0
  4  5  1  0
  5  6  2  0
  6  7  1  0
  7  8  2  0
  7  9  1  0
  9 10  2  0
 10 11  1  0
 11 12  2  0
 12 13  1  0
 12 14  1  0
 14 15  2  0
 14 16  1  0
 16 17  1  0
 17 18  2  0
 18 19  1  0
 19 20  1  0
 19 21  2  0
 21 22  1  0
 21 23  1  0
 23 24  1  0
 23 25  2  0
  8  3  1  0
 13  9  1  0
 25 17  1  0
  1 26  1  0
  1 27  1  0
  1 28  1  0
  4 29  1  0
  5 30  1  0
  6 31  1  0
 10 32  1  0
 11 33  1  0
 16 34  1  0
 18 35  1  0
 25 36  1  0
M  END
$$$$
[H]OC(=O)[C@]1([H])[C@@]([H])(N([H])C(=O)c2nc3c([H])c(O[H])c(O[H])c([H])c3s2)[C@@]2([H])C([H])([H])C([H])([H])C([H])([H])[C@]12[H]
     RDKit          3D

 40 43  0  0  0  0  0  0  0  0999 V2000
   -4.8917   -1.1283    1.7243 O   0  0  0  0  0  0  0  0  0  0  0  0
   -4.0719   -1.6988    0.7363 C   0  0  0  0  0  0  0  0  0  0  0  0
   -4.3620   -2.9256    0.5017 O   0  0  0  0  0  0  0  0  0  0  0  0
   -3.0070   -1.0257    0.0312 C   0  0  1  0  0  0  0  0  0  0  0  0
   -3.1817    0.1267   -0.7825 C   0  0  1  0  0  0  0  0  0  0  0  0
   -4.3731    0.8299   -1.2028 C   0  0  0  0  0  0  0  0  0  0  0  0
   -3.8872    2.2933   -1.0693 C   0  0  0  0  0  0  0  0  0  0  0  0
   -2.6469    2.2018   -0.1468 C   0  0  0  0  0  0  0  0  0  0  0  0
   -2.9615    0.9487    0.5271 C   0  0  2  0  0  0  0  0  0  0  0  0
   -2.0885   -0.1261    0.9005 C   0  0  2  0  0  0  0  0  0  0  0  0
   -0.7202   -0.1446    0.5222 N   0  0  0  0  0  0  0  0  0  0  0  0
    0.2497   -0.5737    1.4567 C   0  0  0  0  0  0  0  0  0  0  0  0
   -0.0579   -0.9426    2.6200 O   0  0  0  0  0  0  0  0  0  0  0  0
    1.6867   -0.6100    1.1080 C   0  0  0  0  0  0  0  0  0  0  0  0
    2.2958   -0.2922   -0.0033 N   0  0  0  0  0  0  0  0  0  0  0  0
    3.5892   -0.3966   -0.1097 C   0  0  0  0  0  0  0  0  0  0  0  0
    4.3618   -0.0879   -1.2461 C   0  0  0  0  0  0  0  0  0  0  0  0
    5.7068   -0.2456   -1.2147 C   0  0  0  0  0  0  0  0  0  0  0  0
    6.4708    0.0601   -2.3397 O   0  0  0  0  0  0  0  0  0  0  0  0
    6.4253   -0.7069   -0.1078 C   0  0  0  0  0  0  0  0  0  0  0  0
    7.7781   -0.8634   -0.0826 O   0  0  0  0  0  0  0  0  0  0  0  0
    5.6671   -1.0081    1.0022 C   0  0  0  0  0  0  0  0  0  0  0  0
    4.2748   -0.8508    0.9870 C   0  0  0  0  0  0  0  0  0  0  0  0
    2.9986   -1.0965    2.1001 S   0  0  0  0  0  0  0  0  0  0  0  0
   -5.8896   -1.1479    1.6876 H   0  0  0  0  0  0  0  0  0  0  0  0
   -2.3145   -1.7914   -0.4340 H   0  0  0  0  0  0  0  0  0  0  0  0
   -2.3213    0.3118   -1.4749 H   0  0  0  0  0  0  0  0  0  0  0  0
   -4.6451    0.6532   -2.2719 H   0  0  0  0  0  0  0  0  0  0  0  0
   -5.2181    0.6417   -0.5188 H   0  0  0  0  0  0  0  0  0  0  0  0
   -3.6189    2.7159   -2.0346 H   0  0  0  0  0  0  0  0  0  0  0  0
   -4.6639    2.8294   -0.5200 H   0  0  0  0  0  0  0  0  0  0  0  0
   -2.6768    3.0852    0.5183 H   0  0  0  0  0  0  0  0  0  0  0  0
   -1.7666    2.1497   -0.7909 H   0  0  0  0  0  0  0  0  0  0  0  0
   -3.8831    1.0281    1.1328 H   0  0  0  0  0  0  0  0  0  0  0  0
   -2.2456   -0.4714    1.9480 H   0  0  0  0  0  0  0  0  0  0  0  0
   -0.3942    0.1493   -0.4304 H   0  0  0  0  0  0  0  0  0  0  0  0
    3.9125    0.2773   -2.1600 H   0  0  0  0  0  0  0  0  0  0  0  0
    6.0540    0.4001   -3.1909 H   0  0  0  0  0  0  0  0  0  0  0  0
    8.2648   -1.1998    0.7364 H   0  0  0  0  0  0  0  0  0  0  0  0
    6.1512   -1.3684    1.8910 H   0  0  0  0  0  0  0  0  0  0  0  0
  1  2  1  0
  2  3  2  0
  2  4  1  0
  4  5  1  0
  5  6  1  0
  6  7  1  0
  7  8  1  0
  8  9  1  0
  9 10  1  0
 10 11  1  0
 11 12  1  0
 12 13  2  0
 12 14  1  0
 14 15  2  0
 15 16  1  0
 16 17  2  0
 17 18  1  0
 18 19  1  0
 18 20  2  0
 20 21  1  0
 20 22  1  0
 22 23  2  0
 23 24  1  0
 10  4  1  0
 24 14  1  0
  9  5  1  0
 23 16  1  0
  1 25  1  0
  4 26  1  6
  5 27  1  6
  6 28  1  0
  6 29  1  0
  7 30  1  0
  7 31  1  0
  8 32  1  0
  8 33  1  0
  9 34  1  1
 10 35  1  1
 11 36  1  0
 17 37  1  0
 19 38  1  0
 21 39  1  0
 22 40  1  0
M  END
$$$$
[H]c1c([H])c(S(=O)(=O)N([H])C(=O)[C@@]([H])(N([H])[H])[C@]([H])(C([H])([H])[H])C([H])([H])C([H])([H])[H])c([H])c2c1C1=C2OC(F)(F)[C@@]1([H])C([H])([H])F
     RDKit          3D

 46 48  0  0  0  0  0  0  0  0999 V2000
   -4.8996   -1.2407    1.6757 C   0  0  0  0  0  0  0  0  0  0  0  0
   -4.3871    0.0751    1.1261 C   0  0  0  0  0  0  0  0  0  0  0  0
   -4.0746   -0.1016   -0.3277 C   0  0  1  0  0  0  0  0  0  0  0  0
   -5.3300   -0.5391   -1.1073 C   0  0  0  0  0  0  0  0  0  0  0  0
   -3.6600    1.1949   -1.0200 C   0  0  2  0  0  0  0  0  0  0  0  0
   -3.4034    0.8248   -2.3901 N   0  0  0  0  0  0  0  0  0  0  0  0
   -2.5124    1.8562   -0.4099 C   0  0  0  0  0  0  0  0  0  0  0  0
   -2.5176    2.3297    0.7453 O   0  0  0  0  0  0  0  0  0  0  0  0
   -1.3045    1.9844   -1.1508 N   0  0  0  0  0  0  0  0  0  0  0  0
    0.0972    2.7631   -0.4834 S   0  0  0  0  0  0  0  0  0  0  0  0
    0.7778    3.6365   -1.5041 O   0  0  0  0  0  0  0  0  0  0  0  0
   -0.2778    3.5774    0.7331 O   0  0  0  0  0  0  0  0  0  0  0  0
    1.2582    1.5772    0.0372 C   0  0  0  0  0  0  0  0  0  0  0  0
    1.2101    1.0791    1.3118 C   0  0  0  0  0  0  0  0  0  0  0  0
    2.1325    0.1291    1.7505 C   0  0  0  0  0  0  0  0  0  0  0  0
    3.1063   -0.3123    0.8825 C   0  0  0  0  0  0  0  0  0  0  0  0
    4.2702   -1.1344    0.5495 C   0  0  0  0  0  0  0  0  0  0  0  0
    5.3646   -2.1042    0.7032 C   0  0  2  0  0  0  0  0  0  0  0  0
    6.4326   -1.6043    1.6268 C   0  0  0  0  0  0  0  0  0  0  0  0
    6.9817   -0.4306    1.1465 F   0  0  0  0  0  0  0  0  0  0  0  0
    5.8898   -2.2843   -0.6938 C   0  0  0  0  0  0  0  0  0  0  0  0
    5.4701   -3.4584   -1.2810 F   0  0  0  0  0  0  0  0  0  0  0  0
    7.2651   -2.2615   -0.7527 F   0  0  0  0  0  0  0  0  0  0  0  0
    5.3471   -1.1967   -1.4134 O   0  0  0  0  0  0  0  0  0  0  0  0
    4.3046   -0.6426   -0.6819 C   0  0  0  0  0  0  0  0  0  0  0  0
    3.1396    0.1970   -0.3885 C   0  0  0  0  0  0  0  0  0  0  0  0
    2.2237    1.1489   -0.8452 C   0  0  0  0  0  0  0  0  0  0  0  0
   -4.5107   -1.3973    2.7017 H   0  0  0  0  0  0  0  0  0  0  0  0
   -6.0091   -1.1466    1.7889 H   0  0  0  0  0  0  0  0  0  0  0  0
   -4.6260   -2.0581    0.9951 H   0  0  0  0  0  0  0  0  0  0  0  0
   -5.1049    0.8658    1.3381 H   0  0  0  0  0  0  0  0  0  0  0  0
   -3.4023    0.2491    1.6474 H   0  0  0  0  0  0  0  0  0  0  0  0
   -3.3059   -0.8606   -0.5352 H   0  0  0  0  0  0  0  0  0  0  0  0
   -5.0288   -0.5415   -2.1699 H   0  0  0  0  0  0  0  0  0  0  0  0
   -5.7100   -1.4934   -0.7404 H   0  0  0  0  0  0  0  0  0  0  0  0
   -6.0408    0.3096   -0.9744 H   0  0  0  0  0  0  0  0  0  0  0  0
   -4.5883    1.8288   -1.0050 H   0  0  0  0  0  0  0  0  0  0  0  0
   -3.6271    1.5304   -3.0931 H   0  0  0  0  0  0  0  0  0  0  0  0
   -2.6147    0.2018   -2.5481 H   0  0  0  0  0  0  0  0  0  0  0  0
   -1.2270    1.6176   -2.1023 H   0  0  0  0  0  0  0  0  0  0  0  0
    0.4552    1.4221    1.9775 H   0  0  0  0  0  0  0  0  0  0  0  0
    2.0678   -0.2391    2.7664 H   0  0  0  0  0  0  0  0  0  0  0  0
    4.9367   -3.0447    1.1087 H   0  0  0  0  0  0  0  0  0  0  0  0
    7.2010   -2.4169    1.6918 H   0  0  0  0  0  0  0  0  0  0  0  0
    5.9575   -1.4194    2.6130 H   0  0  0  0  0  0  0  0  0  0  0  0
    2.2733    1.5297   -1.8512 H   0  0  0  0  0  0  0  0  0  0  0  0
  1  2  1  0
  2  3  1  0
  3  4  1  0
  3  5  1  0
  5  6  1  0
  5  7  1  0
  7  8  2  0
  7  9  1  0
  9 10  1  0
 10 11  2  0
 10 12  2  0
 10 13  1  0
 13 14  2  0
 14 15  1  0
 15 16  2  0
 16 17  1  0
 17 18  1  0
 18 19  1  0
 19 20  1  0
 18 21  1  0
 21 22  1  0
 21 23  1  0
 21 24  1  0
 24 25  1  0
 25 26  1  0
 26 27  2  0
 27 13  1  0
 26 16  1  0
 25 17  2  0
  1 28  1  0
  1 29  1  0
  1 30  1  0
  2 31  1  0
  2 32  1  0
  3 33  1  1
  4 34  1  0
  4 35  1  0
  4 36  1  0
  5 37  1  6
  6 38  1  0
  6 39  1  0
  9 40  1  0
 14 41  1  0
 15 42  1  0
 18 43  1  1
 19 44  1  0
 19 45  1  0
 27 46  1  0
M  END
$$$$
[H]c1nc(N([H])C2([H])C([H])([H])C([H])([H])C([H])([H])C2([H])[H])nc(-c2c([H])c([H])c3nc([H])c4c(c3c2[H])N([H])[C@@]([H])(C([H])([H])[H])C4=O)c1[H]
     RDKit          3D

 48 52  0  0  0  0  0  0  0  0999 V2000
    6.9855   -0.1837    2.2170 C   0  0  0  0  0  0  0  0  0  0  0  0
    6.3022    0.1555    0.9326 C   0  0  2  0  0  0  0  0  0  0  0  0
    4.8644   -0.0949    1.0628 N   0  0  0  0  0  0  0  0  0  0  0  0
    4.3870   -0.4382   -0.2459 C   0  0  0  0  0  0  0  0  0  0  0  0
    5.4505   -0.8552   -1.0186 C   0  0  0  0  0  0  0  0  0  0  0  0
    5.2821   -1.2484   -2.3294 C   0  0  0  0  0  0  0  0  0  0  0  0
    4.0360   -1.2109   -2.8315 N   0  0  0  0  0  0  0  0  0  0  0  0
    2.9741   -0.8054   -2.0938 C   0  0  0  0  0  0  0  0  0  0  0  0
    1.7047   -0.7734   -2.6247 C   0  0  0  0  0  0  0  0  0  0  0  0
    0.6304   -0.3603   -1.8694 C   0  0  0  0  0  0  0  0  0  0  0  0
    0.7562    0.0407   -0.5557 C   0  0  0  0  0  0  0  0  0  0  0  0
    2.0225    0.0100   -0.0223 C   0  0  0  0  0  0  0  0  0  0  0  0
    3.1123   -0.4069   -0.7818 C   0  0  0  0  0  0  0  0  0  0  0  0
   -0.4181    0.4725    0.2086 C   0  0  0  0  0  0  0  0  0  0  0  0
   -0.3800    0.8847    1.5136 C   0  0  0  0  0  0  0  0  0  0  0  0
   -1.5515    1.2669    2.1244 C   0  0  0  0  0  0  0  0  0  0  0  0
   -2.6894    1.2278    1.4373 N   0  0  0  0  0  0  0  0  0  0  0  0
   -2.7484    0.8298    0.1665 C   0  0  0  0  0  0  0  0  0  0  0  0
   -3.9763    0.7880   -0.5734 N   0  0  0  0  0  0  0  0  0  0  0  0
   -5.2397    1.1598   -0.0345 C   0  0  0  0  0  0  0  0  0  0  0  0
   -5.7020    0.3518    1.1422 C   0  0  0  0  0  0  0  0  0  0  0  0
   -6.0144   -0.9793    0.5199 C   0  0  0  0  0  0  0  0  0  0  0  0
   -6.7747   -0.5663   -0.7407 C   0  0  0  0  0  0  0  0  0  0  0  0
   -6.3175    0.8507   -1.0506 C   0  0  0  0  0  0  0  0  0  0  0  0
   -1.6059    0.4562   -0.4318 N   0  0  0  0  0  0  0  0  0  0  0  0
    6.6514   -0.7771   -0.1782 C   0  0  0  0  0  0  0  0  0  0  0  0
    7.7456   -1.3720   -0.3572 O   0  0  0  0  0  0  0  0  0  0  0  0
    8.0139   -0.5751    2.0506 H   0  0  0  0  0  0  0  0  0  0  0  0
    7.0291    0.7486    2.8295 H   0  0  0  0  0  0  0  0  0  0  0  0
    6.3806   -0.9019    2.7727 H   0  0  0  0  0  0  0  0  0  0  0  0
    6.4583    1.2138    0.6145 H   0  0  0  0  0  0  0  0  0  0  0  0
    4.3084   -0.0320    1.9426 H   0  0  0  0  0  0  0  0  0  0  0  0
    6.1345   -1.5795   -2.9391 H   0  0  0  0  0  0  0  0  0  0  0  0
    1.5848   -1.0895   -3.6708 H   0  0  0  0  0  0  0  0  0  0  0  0
   -0.3634   -0.3416   -2.3048 H   0  0  0  0  0  0  0  0  0  0  0  0
    2.1959    0.3136    1.0114 H   0  0  0  0  0  0  0  0  0  0  0  0
    0.5725    0.9001    2.0344 H   0  0  0  0  0  0  0  0  0  0  0  0
   -1.5077    1.5961    3.1733 H   0  0  0  0  0  0  0  0  0  0  0  0
   -3.9351    0.4648   -1.5681 H   0  0  0  0  0  0  0  0  0  0  0  0
   -5.3187    2.2479    0.1741 H   0  0  0  0  0  0  0  0  0  0  0  0
   -6.6955    0.7941    1.4467 H   0  0  0  0  0  0  0  0  0  0  0  0
   -5.0374    0.3221    1.9983 H   0  0  0  0  0  0  0  0  0  0  0  0
   -5.1245   -1.5751    0.2931 H   0  0  0  0  0  0  0  0  0  0  0  0
   -6.7242   -1.5739    1.1461 H   0  0  0  0  0  0  0  0  0  0  0  0
   -6.5803   -1.2630   -1.5755 H   0  0  0  0  0  0  0  0  0  0  0  0
   -7.8488   -0.4940   -0.4833 H   0  0  0  0  0  0  0  0  0  0  0  0
   -5.8941    0.8255   -2.0848 H   0  0  0  0  0  0  0  0  0  0  0  0
   -7.1354    1.5767   -1.0337 H   0  0  0  0  0  0  0  0  0  0  0  0
  1  2  1  0
  2  3  1  0
  3  4  1  0
  4  5  2  0
  5  6  1  0
  6  7  2  0
  7  8  1  0
  8  9  2  0
  9 10  1  0
 10 11  2  0
 11 12  1  0
 12 13  2  0
 11 14  1  0
 14 15  2  0
 15 16  1  0
 16 17  2  0
 17 18  1  0
 18 19  1  0
 19 20  1  0
 20 21  1  0
 21 22  1  0
 22 23  1  0
 23 24  1  0
 18 25  2  0
  5 26  1  0
 26 27  2  0
 26  2  1  0
 13  4  1  0
 25 14  1  0
 13  8  1  0
 24 20  1  0
  1 28  1  0
  1 29  1  0
  1 30  1  0
  2 31  1  6
  3 32  1  0
  6 33  1  0
  9 34  1  0
 10 35  1  0
 12 36  1  0
 15 37  1  0
 16 38  1  0
 19 39  1  0
 20 40  1  0
 21 41  1  0
 21 42  1  0
 22 43  1  0
 22 44  1  0
 23 45  1  0
 23 46  1  0
 24 47  1  0
 24 48  1  0
M  END
$$$$
[H]c1c([H])c([H])c(C([H])([H])[C@@]2([H])C(=O)N3C([H])([H])C([H])([H])C([H])([H])[C@@]3([H])C(=O)N([H])[C@@]([H])(C([H])([H])C([H])([H])C([H])([H])C([H])([H])N=C(N([H])[H])N([H])[H])C(=O)N([H])[C@@]([H])(C([H])([H])c3c([H])c([H])c([H])c([H])c3[H])C(=O)N3C([H])([H])C([H])([H])C([H])([H])C([H])([H])[C@@]3([H])C(=O)N3C([H])([H])C([H])([H])C([H])([H])[C@@]3([H])C(=O)N2[H])c([H])c1[H]
     RDKit          3D

111116  0  0  0  0  0  0  0  0999 V2000
    5.8641    6.7062    0.0017 N   0  0  0  0  0  0  0  0  0  0  0  0
    7.0150    5.8928    0.1738 C   0  0  0  0  0  0  0  0  0  0  0  0
    8.1410    6.4047    0.8671 N   0  0  0  0  0  0  0  0  0  0  0  0
    7.0937    4.7001   -0.2681 N   0  0  0  0  0  0  0  0  0  0  0  0
    6.0793    3.9848   -0.9910 C   0  0  0  0  0  0  0  0  0  0  0  0
    4.9090    3.6238   -0.0865 C   0  0  0  0  0  0  0  0  0  0  0  0
    3.8647    2.8639   -0.8768 C   0  0  0  0  0  0  0  0  0  0  0  0
    2.7257    2.5250    0.0501 C   0  0  0  0  0  0  0  0  0  0  0  0
    1.6111    1.7387   -0.6806 C   0  0  2  0  0  0  0  0  0  0  0  0
    0.5870    1.4750    0.3022 N   0  0  0  0  0  0  0  0  0  0  0  0
   -0.5326    2.3217    0.5418 C   0  0  0  0  0  0  0  0  0  0  0  0
   -0.8185    2.6301    1.7365 O   0  0  0  0  0  0  0  0  0  0  0  0
   -1.4094    2.8821   -0.5243 C   0  0  2  0  0  0  0  0  0  0  0  0
   -0.9707    4.2376   -0.9565 C   0  0  0  0  0  0  0  0  0  0  0  0
   -1.8412    5.1646   -0.1420 C   0  0  0  0  0  0  0  0  0  0  0  0
   -3.1557    4.4381    0.0351 C   0  0  0  0  0  0  0  0  0  0  0  0
   -2.7765    3.0444   -0.0456 N   0  0  0  0  0  0  0  0  0  0  0  0
   -3.5773    1.9002    0.3013 C   0  0  0  0  0  0  0  0  0  0  0  0
   -4.2803    1.9618    1.3720 O   0  0  0  0  0  0  0  0  0  0  0  0
   -3.6295    0.6594   -0.5048 C   0  0  2  0  0  0  0  0  0  0  0  0
   -4.9964    0.1009   -0.5614 C   0  0  0  0  0  0  0  0  0  0  0  0
   -6.0004    0.9806   -1.1734 C   0  0  0  0  0  0  0  0  0  0  0  0
   -6.0666    0.9962   -2.5654 C   0  0  0  0  0  0  0  0  0  0  0  0
   -6.9868    1.7576   -3.2562 C   0  0  0  0  0  0  0  0  0  0  0  0
   -7.8680    2.5282   -2.5085 C   0  0  0  0  0  0  0  0  0  0  0  0
   -7.8273    2.5333   -1.1358 C   0  0  0  0  0  0  0  0  0  0  0  0
   -6.8904    1.7553   -0.4984 C   0  0  0  0  0  0  0  0  0  0  0  0
   -2.5807   -0.2592   -0.1447 N   0  0  0  0  0  0  0  0  0  0  0  0
   -2.4921   -1.1874    0.9145 C   0  0  0  0  0  0  0  0  0  0  0  0
   -1.5737   -0.9348    1.7934 O   0  0  0  0  0  0  0  0  0  0  0  0
   -3.2566   -2.3707    1.1773 C   0  0  2  0  0  0  0  0  0  0  0  0
   -3.8735   -2.5214    2.5413 C   0  0  0  0  0  0  0  0  0  0  0  0
   -4.3966   -3.9625    2.4481 C   0  0  0  0  0  0  0  0  0  0  0  0
   -3.9740   -4.4319    1.0700 C   0  0  0  0  0  0  0  0  0  0  0  0
   -2.6840   -3.6775    0.9733 N   0  0  0  0  0  0  0  0  0  0  0  0
   -1.3591   -4.1034    0.7499 C   0  0  0  0  0  0  0  0  0  0  0  0
   -1.2142   -4.5555   -0.4571 O   0  0  0  0  0  0  0  0  0  0  0  0
   -0.1745   -4.1419    1.5722 C   0  0  2  0  0  0  0  0  0  0  0  0
   -0.5199   -4.1422    3.0897 C   0  0  0  0  0  0  0  0  0  0  0  0
    0.5752   -4.8484    3.8342 C   0  0  0  0  0  0  0  0  0  0  0  0
    1.8316   -3.9946    3.6003 C   0  0  0  0  0  0  0  0  0  0  0  0
    2.1235   -4.1485    2.1161 C   0  0  0  0  0  0  0  0  0  0  0  0
    1.0376   -3.4697    1.3134 N   0  0  0  0  0  0  0  0  0  0  0  0
    1.5058   -2.3912    0.5879 C   0  0  0  0  0  0  0  0  0  0  0  0
    2.3844   -1.6673    1.2705 O   0  0  0  0  0  0  0  0  0  0  0  0
    1.3065   -1.8081   -0.7383 C   0  0  2  0  0  0  0  0  0  0  0  0
    1.4848   -2.6778   -1.9394 C   0  0  0  0  0  0  0  0  0  0  0  0
    2.8003   -3.2944   -2.1328 C   0  0  0  0  0  0  0  0  0  0  0  0
    3.0253   -4.5211   -1.5832 C   0  0  0  0  0  0  0  0  0  0  0  0
    4.2133   -5.1823   -1.7178 C   0  0  0  0  0  0  0  0  0  0  0  0
    5.2466   -4.6007   -2.4391 C   0  0  0  0  0  0  0  0  0  0  0  0
    5.0118   -3.3610   -2.9917 C   0  0  0  0  0  0  0  0  0  0  0  0
    3.8167   -2.7128   -2.8476 C   0  0  0  0  0  0  0  0  0  0  0  0
    2.3058   -0.7556   -0.9620 N   0  0  0  0  0  0  0  0  0  0  0  0
    2.1790    0.5588   -1.3496 C   0  0  0  0  0  0  0  0  0  0  0  0
    2.6491    0.8368   -2.5318 O   0  0  0  0  0  0  0  0  0  0  0  0
    5.2136    6.5538   -0.7872 H   0  0  0  0  0  0  0  0  0  0  0  0
    5.6896    7.4714    0.7018 H   0  0  0  0  0  0  0  0  0  0  0  0
    9.0188    6.5531    0.3437 H   0  0  0  0  0  0  0  0  0  0  0  0
    8.0633    6.6186    1.8786 H   0  0  0  0  0  0  0  0  0  0  0  0
    5.6948    4.6538   -1.7915 H   0  0  0  0  0  0  0  0  0  0  0  0
    6.5353    3.0718   -1.3950 H   0  0  0  0  0  0  0  0  0  0  0  0
    5.2987    2.9230    0.7097 H   0  0  0  0  0  0  0  0  0  0  0  0
    4.5143    4.5279    0.4014 H   0  0  0  0  0  0  0  0  0  0  0  0
    3.5405    3.4140   -1.7596 H   0  0  0  0  0  0  0  0  0  0  0  0
    4.3641    1.8790   -1.1255 H   0  0  0  0  0  0  0  0  0  0  0  0
    2.2889    3.4300    0.5154 H   0  0  0  0  0  0  0  0  0  0  0  0
    3.0543    1.8581    0.8720 H   0  0  0  0  0  0  0  0  0  0  0  0
    1.2452    2.4756   -1.4402 H   0  0  0  0  0  0  0  0  0  0  0  0
    0.6786    0.6106    0.8770 H   0  0  0  0  0  0  0  0  0  0  0  0
   -1.3964    2.2425   -1.4507 H   0  0  0  0  0  0  0  0  0  0  0  0
   -1.1778    4.4283   -2.0270 H   0  0  0  0  0  0  0  0  0  0  0  0
    0.0961    4.4659   -0.7551 H   0  0  0  0  0  0  0  0  0  0  0  0
   -1.9491    6.1224   -0.6633 H   0  0  0  0  0  0  0  0  0  0  0  0
   -1.3411    5.3498    0.8302 H   0  0  0  0  0  0  0  0  0  0  0  0
   -3.8152    4.7855   -0.7666 H   0  0  0  0  0  0  0  0  0  0  0  0
   -3.5470    4.6337    1.0447 H   0  0  0  0  0  0  0  0  0  0  0  0
   -3.4008    0.9610   -1.5911 H   0  0  0  0  0  0  0  0  0  0  0  0
   -5.0099   -0.8397   -1.1596 H   0  0  0  0  0  0  0  0  0  0  0  0
   -5.3281   -0.0813    0.4899 H   0  0  0  0  0  0  0  0  0  0  0  0
   -5.3858    0.3998   -3.1648 H   0  0  0  0  0  0  0  0  0  0  0  0
   -7.0477    1.7770   -4.3360 H   0  0  0  0  0  0  0  0  0  0  0  0
   -8.6143    3.1476   -3.0067 H   0  0  0  0  0  0  0  0  0  0  0  0
   -8.5274    3.1461   -0.5414 H   0  0  0  0  0  0  0  0  0  0  0  0
   -6.9165    1.7805    0.5987 H   0  0  0  0  0  0  0  0  0  0  0  0
   -1.7206   -0.2169   -0.7864 H   0  0  0  0  0  0  0  0  0  0  0  0
   -4.1631   -2.3227    0.4804 H   0  0  0  0  0  0  0  0  0  0  0  0
   -4.7079   -1.8116    2.7156 H   0  0  0  0  0  0  0  0  0  0  0  0
   -3.0985   -2.4087    3.3097 H   0  0  0  0  0  0  0  0  0  0  0  0
   -5.5114   -3.9175    2.5352 H   0  0  0  0  0  0  0  0  0  0  0  0
   -3.9723   -4.6008    3.2553 H   0  0  0  0  0  0  0  0  0  0  0  0
   -4.6911   -3.9510    0.3572 H   0  0  0  0  0  0  0  0  0  0  0  0
   -3.9413   -5.4704    0.8970 H   0  0  0  0  0  0  0  0  0  0  0  0
    0.1108   -5.2860    1.5234 H   0  0  0  0  0  0  0  0  0  0  0  0
   -1.4439   -4.7507    3.1447 H   0  0  0  0  0  0  0  0  0  0  0  0
   -0.7118   -3.1305    3.4421 H   0  0  0  0  0  0  0  0  0  0  0  0
    0.7529   -5.8357    3.3859 H   0  0  0  0  0  0  0  0  0  0  0  0
    0.3105   -4.8726    4.8960 H   0  0  0  0  0  0  0  0  0  0  0  0
    2.6996   -4.3882    4.1263 H   0  0  0  0  0  0  0  0  0  0  0  0
    1.5517   -2.9789    3.8741 H   0  0  0  0  0  0  0  0  0  0  0  0
    2.0415   -5.2551    1.9171 H   0  0  0  0  0  0  0  0  0  0  0  0
    3.1173   -3.8802    1.8482 H   0  0  0  0  0  0  0  0  0  0  0  0
    0.2767   -1.3962   -0.8071 H   0  0  0  0  0  0  0  0  0  0  0  0
    1.3942   -1.9333   -2.8092 H   0  0  0  0  0  0  0  0  0  0  0  0
    0.6417   -3.3603   -2.1660 H   0  0  0  0  0  0  0  0  0  0  0  0
    2.2444   -5.0263   -1.0047 H   0  0  0  0  0  0  0  0  0  0  0  0
    4.3551   -6.1630   -1.2626 H   0  0  0  0  0  0  0  0  0  0  0  0
    6.1919   -5.1202   -2.5491 H   0  0  0  0  0  0  0  0  0  0  0  0
    5.8039   -2.8749   -3.5654 H   0  0  0  0  0  0  0  0  0  0  0  0
    3.6728   -1.7208   -3.3125 H   0  0  0  0  0  0  0  0  0  0  0  0
    3.2960   -1.1683   -0.7705 H   0  0  0  0  0  0  0  0  0  0  0  0
  1  2  1  0
  2  3  1  0
  2  4  2  3
  4  5  1  0
  5  6  1  0
  6  7  1  0
  7  8  1  0
  8  9  1  0
  9 10  1  0
 10 11  1  0
 11 12  2  0
 11 13  1  0
 13 14  1  0
 14 15  1  0
 15 16  1  0
 16 17  1  0
 17 18  1  0
 18 19  2  0
 18 20  1  0
 20 21  1  0
 21 22  1  0
 22 23  2  0
 23 24  1  0
 24 25  2  0
 25 26  1  0
 26 27  2  0
 20 28  1  0
 28 29  1  0
 29 30  2  0
 29 31  1  0
 31 32  1  0
 32 33  1  0
 33 34  1  0
 34 35  1  0
 35 36  1  0
 36 37  2  0
 36 38  1  0
 38 39  1  0
 39 40  1  0
 40 41  1  0
 41 42  1  0
 42 43  1  0
 43 44  1  0
 44 45  2  0
 44 46  1  0
 46 47  1  0
 47 48  1  0
 48 49  2  0
 49 50  1  0
 50 51  2  0
 51 52  1  0
 52 53  2  0
 46 54  1  0
 54 55  1  0
 55 56  2  0
 55  9  1  0
 17 13  1  0
 27 22  1  0
 35 31  1  0
 43 38  1  0
 53 48  1  0
  1 57  1  0
  1 58  1  0
  3 59  1  0
  3 60  1  0
  5 61  1  0
  5 62  1  0
  6 63  1  0
  6 64  1  0
  7 65  1  0
  7 66  1  0
  8 67  1  0
  8 68  1  0
  9 69  1  6
 10 70  1  0
 13 71  1  6
 14 72  1  0
 14 73  1  0
 15 74  1  0
 15 75  1  0
 16 76  1  0
 16 77  1  0
 20 78  1  6
 21 79  1  0
 21 80  1  0
 23 81  1  0
 24 82  1  0
 25 83  1  0
 26 84  1  0
 27 85  1  0
 28 86  1  0
 31 87  1  6
 32 88  1  0
 32 89  1  0
 33 90  1  0
 33 91  1  0
 34 92  1  0
 34 93  1  0
 38 94  1  6
 39 95  1  0
 39 96  1  0
 40 97  1  0
 40 98  1  0
 41 99  1  0
 41100  1  0
 42101  1  0
 42102  1  0
 46103  1  1
 47104  1  0
 47105  1  0
 49106  1  0
 50107  1  0
 51108  1  0
 52109  1  0
 53110  1  0
 54111  1  0
M  END
$$$$
[H]c1nc2c(c([H])c1-c1c([H])c([H])c(C([H])([H])N3C([H])([H])C([H])([H])N(C(=O)C([H])([H])[H])C([H])([H])C3([H])[H])c(F)c1[H])c(-c1c([H])c([H])c([H])c(OC(F)(F)F)c1[H])c([H])n2[H]
     RDKit          3D

 61 65  0  0  0  0  0  0  0  0999 V2000
   -9.0156    2.7266    0.4965 C   0  0  0  0  0  0  0  0  0  0  0  0
   -8.6388    1.2772    0.6055 C   0  0  0  0  0  0  0  0  0  0  0  0
   -9.4785    0.4261    0.9177 O   0  0  0  0  0  0  0  0  0  0  0  0
   -7.2819    0.9098    0.3434 N   0  0  0  0  0  0  0  0  0  0  0  0
   -6.8225   -0.4425    0.4037 C   0  0  0  0  0  0  0  0  0  0  0  0
   -5.3307   -0.5282    0.6868 C   0  0  0  0  0  0  0  0  0  0  0  0
   -4.5063    0.3579    0.0517 N   0  0  0  0  0  0  0  0  0  0  0  0
   -3.3032    0.1643   -0.5401 C   0  0  0  0  0  0  0  0  0  0  0  0
   -2.1622   -0.5579    0.0155 C   0  0  0  0  0  0  0  0  0  0  0  0
   -2.0058   -1.9135   -0.1706 C   0  0  0  0  0  0  0  0  0  0  0  0
   -0.7659   -2.5445    0.0572 C   0  0  0  0  0  0  0  0  0  0  0  0
    0.3387   -1.7974    0.4873 C   0  0  0  0  0  0  0  0  0  0  0  0
    0.1812   -0.4475    0.6852 C   0  0  0  0  0  0  0  0  0  0  0  0
   -1.0192    0.1427    0.4539 C   0  0  0  0  0  0  0  0  0  0  0  0
   -1.1781    1.4628    0.6203 F   0  0  0  0  0  0  0  0  0  0  0  0
    1.6604   -2.4245    0.4859 C   0  0  0  0  0  0  0  0  0  0  0  0
    1.8879   -3.7694    0.5034 C   0  0  0  0  0  0  0  0  0  0  0  0
    3.0896   -4.3518    0.4763 N   0  0  0  0  0  0  0  0  0  0  0  0
    4.1678   -3.5171    0.4312 C   0  0  0  0  0  0  0  0  0  0  0  0
    5.4926   -3.8058    0.4087 N   0  0  0  0  0  0  0  0  0  0  0  0
    6.2063   -2.6915    0.3862 C   0  0  0  0  0  0  0  0  0  0  0  0
    5.3455   -1.5990    0.3981 C   0  0  0  0  0  0  0  0  0  0  0  0
    5.7333   -0.1952    0.4882 C   0  0  0  0  0  0  0  0  0  0  0  0
    5.0865    0.7009    1.3575 C   0  0  0  0  0  0  0  0  0  0  0  0
    5.5224    1.9796    1.5413 C   0  0  0  0  0  0  0  0  0  0  0  0
    6.6159    2.4810    0.8993 C   0  0  0  0  0  0  0  0  0  0  0  0
    7.3126    1.6210    0.0124 C   0  0  0  0  0  0  0  0  0  0  0  0
    8.3819    2.1475   -0.5700 O   0  0  0  0  0  0  0  0  0  0  0  0
    8.7880    2.8313   -1.6470 C   0  0  0  0  0  0  0  0  0  0  0  0
    8.1147    4.0715   -1.8090 F   0  0  0  0  0  0  0  0  0  0  0  0
   10.1715    3.2287   -1.3822 F   0  0  0  0  0  0  0  0  0  0  0  0
    8.8429    2.1872   -2.8451 F   0  0  0  0  0  0  0  0  0  0  0  0
    6.8378    0.3116   -0.1613 C   0  0  0  0  0  0  0  0  0  0  0  0
    4.0570   -2.1529    0.4155 C   0  0  0  0  0  0  0  0  0  0  0  0
    2.7806   -1.6182    0.4430 C   0  0  0  0  0  0  0  0  0  0  0  0
   -5.1947    1.4185   -0.7270 C   0  0  0  0  0  0  0  0  0  0  0  0
   -6.3442    1.9727    0.0068 C   0  0  0  0  0  0  0  0  0  0  0  0
  -10.0230    2.9366    0.8593 H   0  0  0  0  0  0  0  0  0  0  0  0
   -8.9035    3.0161   -0.5954 H   0  0  0  0  0  0  0  0  0  0  0  0
   -8.2484    3.3161    1.0337 H   0  0  0  0  0  0  0  0  0  0  0  0
   -7.3343   -0.9697    1.2466 H   0  0  0  0  0  0  0  0  0  0  0  0
   -7.0453   -1.0552   -0.4972 H   0  0  0  0  0  0  0  0  0  0  0  0
   -5.2993   -0.3794    1.8503 H   0  0  0  0  0  0  0  0  0  0  0  0
   -5.0615   -1.6107    0.6116 H   0  0  0  0  0  0  0  0  0  0  0  0
   -3.5923   -0.5820   -1.4701 H   0  0  0  0  0  0  0  0  0  0  0  0
   -2.9695    1.0935   -1.1375 H   0  0  0  0  0  0  0  0  0  0  0  0
   -2.8131   -2.5165   -0.4999 H   0  0  0  0  0  0  0  0  0  0  0  0
   -0.6530   -3.6200   -0.1074 H   0  0  0  0  0  0  0  0  0  0  0  0
    0.9897    0.1580    1.0400 H   0  0  0  0  0  0  0  0  0  0  0  0
    1.0121   -4.4093    0.5224 H   0  0  0  0  0  0  0  0  0  0  0  0
    5.8307   -4.7923    0.4007 H   0  0  0  0  0  0  0  0  0  0  0  0
    7.2701   -2.5661    0.3628 H   0  0  0  0  0  0  0  0  0  0  0  0
    4.2183    0.3520    1.9145 H   0  0  0  0  0  0  0  0  0  0  0  0
    4.9803    2.6288    2.2355 H   0  0  0  0  0  0  0  0  0  0  0  0
    6.9381    3.4957    1.0342 H   0  0  0  0  0  0  0  0  0  0  0  0
    7.3579   -0.3668   -0.8546 H   0  0  0  0  0  0  0  0  0  0  0  0
    2.7180   -0.5171    0.4074 H   0  0  0  0  0  0  0  0  0  0  0  0
   -4.4161    2.1801   -0.8891 H   0  0  0  0  0  0  0  0  0  0  0  0
   -5.5137    0.9457   -1.6650 H   0  0  0  0  0  0  0  0  0  0  0  0
   -6.0903    2.5888    0.8801 H   0  0  0  0  0  0  0  0  0  0  0  0
   -6.9192    2.6118   -0.7384 H   0  0  0  0  0  0  0  0  0  0  0  0
  1  2  1  0
  2  3  2  0
  2  4  1  0
  4  5  1  0
  5  6  1  0
  6  7  1  0
  7  8  1  0
  8  9  1  0
  9 10  2  0
 10 11  1  0
 11 12  2  0
 12 13  1  0
 13 14  2  0
 14 15  1  0
 12 16  1  0
 16 17  2  0
 17 18  1  0
 18 19  2  0
 19 20  1  0
 20 21  1  0
 21 22  2  0
 22 23  1  0
 23 24  2  0
 24 25  1  0
 25 26  2  0
 26 27  1  0
 27 28  1  0
 28 29  1  0
 29 30  1  0
 29 31  1  0
 29 32  1  0
 27 33  2  0
 22 34  1  0
 34 35  2  0
  7 36  1  0
 36 37  1  0
 37  4  1  0
 14  9  1  0
 35 16  1  0
 34 19  1  0
 33 23  1  0
  1 38  1  0
  1 39  1  0
  1 40  1  0
  5 41  1  0
  5 42  1  0
  6 43  1  0
  6 44  1  0
  8 45  1  0
  8 46  1  0
 10 47  1  0
 11 48  1  0
 13 49  1  0
 17 50  1  0
 20 51  1  0
 21 52  1  0
 24 53  1  0
 25 54  1  0
 26 55  1  0
 33 56  1  0
 35 57  1  0
 36 58  1  0
 36 59  1  0
 37 60  1  0
 37 61  1  0
M  END
$$$$
[H]c1c([H])c([H])c(-c2nn3c([H])c(N([H])S(=O)(=O)c4c([H])c([H])c([H])c([H])c4[H])c(N([H])C(=O)C([H])([H])[H])c([H])c3c2[H])c([H])c1[H]
     RDKit          3D

 47 50  0  0  0  0  0  0  0  0999 V2000
   -0.9601    6.1909   -0.1034 C   0  0  0  0  0  0  0  0  0  0  0  0
   -0.2086    4.8735   -0.0712 C   0  0  0  0  0  0  0  0  0  0  0  0
    1.0059    4.9932    0.1289 O   0  0  0  0  0  0  0  0  0  0  0  0
   -0.8598    3.6585   -0.2542 N   0  0  0  0  0  0  0  0  0  0  0  0
   -0.2705    2.3917   -0.2439 C   0  0  0  0  0  0  0  0  0  0  0  0
    1.0684    2.1604   -0.0305 C   0  0  0  0  0  0  0  0  0  0  0  0
    1.5584    0.8516   -0.0353 C   0  0  0  0  0  0  0  0  0  0  0  0
    2.8440    0.3866    0.1535 C   0  0  0  0  0  0  0  0  0  0  0  0
    2.7719   -0.9855    0.0481 C   0  0  0  0  0  0  0  0  0  0  0  0
    1.4972   -1.2750   -0.1899 N   0  0  0  0  0  0  0  0  0  0  0  0
    0.7420   -0.1804   -0.2451 N   0  0  0  0  0  0  0  0  0  0  0  0
   -0.5734    0.0334   -0.4560 C   0  0  0  0  0  0  0  0  0  0  0  0
   -1.1249    1.2863   -0.4650 C   0  0  0  0  0  0  0  0  0  0  0  0
   -2.4765    1.5555   -0.7027 N   0  0  0  0  0  0  0  0  0  0  0  0
   -3.8420    0.9907    0.1205 S   0  0  0  0  0  0  0  0  0  0  0  0
   -3.8199    1.3490    1.5868 O   0  0  0  0  0  0  0  0  0  0  0  0
   -5.1140    1.5323   -0.5190 O   0  0  0  0  0  0  0  0  0  0  0  0
   -3.9723   -0.7429    0.0339 C   0  0  0  0  0  0  0  0  0  0  0  0
   -4.4682   -1.3963   -1.0784 C   0  0  0  0  0  0  0  0  0  0  0  0
   -4.5831   -2.7726   -1.0988 C   0  0  0  0  0  0  0  0  0  0  0  0
   -4.2076   -3.5320   -0.0139 C   0  0  0  0  0  0  0  0  0  0  0  0
   -3.7136   -2.9108    1.0999 C   0  0  0  0  0  0  0  0  0  0  0  0
   -3.6042   -1.5536    1.1104 C   0  0  0  0  0  0  0  0  0  0  0  0
    3.9069   -1.8862    0.1817 C   0  0  0  0  0  0  0  0  0  0  0  0
    5.1668   -1.4138    0.4294 C   0  0  0  0  0  0  0  0  0  0  0  0
    6.2321   -2.3123    0.5511 C   0  0  0  0  0  0  0  0  0  0  0  0
    6.0529   -3.6593    0.4295 C   0  0  0  0  0  0  0  0  0  0  0  0
    4.7731   -4.1171    0.1794 C   0  0  0  0  0  0  0  0  0  0  0  0
    3.6984   -3.2619    0.0530 C   0  0  0  0  0  0  0  0  0  0  0  0
   -0.9623    6.5422    0.9520 H   0  0  0  0  0  0  0  0  0  0  0  0
   -0.3845    6.8544   -0.7603 H   0  0  0  0  0  0  0  0  0  0  0  0
   -1.9804    5.9801   -0.4785 H   0  0  0  0  0  0  0  0  0  0  0  0
   -1.9236    3.7367   -0.4159 H   0  0  0  0  0  0  0  0  0  0  0  0
    1.7746    2.9333    0.1432 H   0  0  0  0  0  0  0  0  0  0  0  0
    3.7356    0.9829    0.3466 H   0  0  0  0  0  0  0  0  0  0  0  0
   -1.2090   -0.8296   -0.6386 H   0  0  0  0  0  0  0  0  0  0  0  0
   -2.6754    2.2177   -1.5323 H   0  0  0  0  0  0  0  0  0  0  0  0
   -4.7740   -0.8318   -1.9515 H   0  0  0  0  0  0  0  0  0  0  0  0
   -4.9793   -3.2773   -1.9908 H   0  0  0  0  0  0  0  0  0  0  0  0
   -4.2854   -4.6114    0.0009 H   0  0  0  0  0  0  0  0  0  0  0  0
   -3.3958   -3.4479    1.9978 H   0  0  0  0  0  0  0  0  0  0  0  0
   -3.2111   -1.0353    1.9919 H   0  0  0  0  0  0  0  0  0  0  0  0
    5.3545   -0.3532    0.5331 H   0  0  0  0  0  0  0  0  0  0  0  0
    7.2267   -1.9498    0.7460 H   0  0  0  0  0  0  0  0  0  0  0  0
    6.8767   -4.3531    0.5237 H   0  0  0  0  0  0  0  0  0  0  0  0
    4.5939   -5.1897    0.0762 H   0  0  0  0  0  0  0  0  0  0  0  0
    2.6992   -3.6222   -0.1425 H   0  0  0  0  0  0  0  0  0  0  0  0
  1  2  1  0
  2  3  2  0
  2  4  1  0
  4  5  1  0
  5  6  2  0
  6  7  1  0
  7  8  2  0
  8  9  1  0
  9 10  2  0
 10 11  1  0
 11 12  1  0
 12 13  2  0
 13 14  1  0
 14 15  1  0
 15 16  2  0
 15 17  2  0
 15 18  1  0
 18 19  2  0
 19 20  1  0
 20 21  2  0
 21 22  1  0
 22 23  2  0
  9 24  1  0
 24 25  2  0
 25 26  1  0
 26 27  2  0
 27 28  1  0
 28 29  2  0
 13  5  1  0
 23 18  1  0
 29 24  1  0
 11  7  1  0
  1 30  1  0
  1 31  1  0
  1 32  1  0
  4 33  1  0
  6 34  1  0
  8 35  1  0
 12 36  1  0
 14 37  1  0
 19 38  1  0
 20 39  1  0
 21 40  1  0
 22 41  1  0
 23 42  1  0
 25 43  1  0
 26 44  1  0
 27 45  1  0
 28 46  1  0
 29 47  1  0
M  END
$$$$
[H]c1c([H])c(S(=O)(=O)C([H])([H])[H])c([H])c(OC([H])([H])C([H])([H])[H])c1C(=O)N([H])C([H])([H])[C@@]1([H])N(C(=O)OC(C([H])([H])[H])(C([H])([H])[H])C([H])([H])[H])C([H])([H])C([H])([H])C1([H])[H]
     RDKit          3D

 59 60  0  0  0  0  0  0  0  0999 V2000
   -4.5692   -1.5957   -2.3878 C   0  0  0  0  0  0  0  0  0  0  0  0
   -3.7196   -2.2135   -1.3068 C   0  0  0  0  0  0  0  0  0  0  0  0
   -3.0632   -1.2348   -0.5872 O   0  0  0  0  0  0  0  0  0  0  0  0
   -3.6257   -0.2751    0.1718 C   0  0  0  0  0  0  0  0  0  0  0  0
   -5.0217   -0.2313    0.2999 C   0  0  0  0  0  0  0  0  0  0  0  0
   -5.6415    0.7251    1.0634 C   0  0  0  0  0  0  0  0  0  0  0  0
   -4.8355    1.6370    1.6972 C   0  0  0  0  0  0  0  0  0  0  0  0
   -3.4688    1.6134    1.5871 C   0  0  0  0  0  0  0  0  0  0  0  0
   -2.8022    0.6477    0.8130 C   0  0  0  0  0  0  0  0  0  0  0  0
   -1.3642    0.6747    0.7343 C   0  0  0  0  0  0  0  0  0  0  0  0
   -0.8117    1.6198    1.4145 O   0  0  0  0  0  0  0  0  0  0  0  0
   -0.4855   -0.1495    0.0478 N   0  0  0  0  0  0  0  0  0  0  0  0
    0.9287   -0.1392   -0.0123 C   0  0  0  0  0  0  0  0  0  0  0  0
    1.7723   -0.4339    1.1334 C   0  0  2  0  0  0  0  0  0  0  0  0
    1.7419    0.3613    2.3715 C   0  0  0  0  0  0  0  0  0  0  0  0
    3.0261   -0.1128    3.0946 C   0  0  0  0  0  0  0  0  0  0  0  0
    3.7752   -0.9471    2.0779 C   0  0  0  0  0  0  0  0  0  0  0  0
    3.1913   -0.4921    0.8421 N   0  0  0  0  0  0  0  0  0  0  0  0
    3.8963   -0.1949   -0.3295 C   0  0  0  0  0  0  0  0  0  0  0  0
    3.3800    0.2058   -1.4200 O   0  0  0  0  0  0  0  0  0  0  0  0
    5.2863   -0.3179   -0.4059 O   0  0  0  0  0  0  0  0  0  0  0  0
    6.0306   -0.0276   -1.5689 C   0  0  0  0  0  0  0  0  0  0  0  0
    7.4920   -0.2906   -1.2278 C   0  0  0  0  0  0  0  0  0  0  0  0
    5.9328    1.4318   -1.9594 C   0  0  0  0  0  0  0  0  0  0  0  0
    5.5894   -0.8386   -2.7632 C   0  0  0  0  0  0  0  0  0  0  0  0
   -7.3691    0.7850    1.2252 S   0  0  0  0  0  0  0  0  0  0  0  0
   -8.0877    1.8005   -0.0331 C   0  0  0  0  0  0  0  0  0  0  0  0
   -7.9192   -0.6214    1.1762 O   0  0  0  0  0  0  0  0  0  0  0  0
   -7.7892    1.3537    2.5615 O   0  0  0  0  0  0  0  0  0  0  0  0
   -5.6266   -1.9448   -2.3609 H   0  0  0  0  0  0  0  0  0  0  0  0
   -4.1320   -1.8446   -3.3685 H   0  0  0  0  0  0  0  0  0  0  0  0
   -4.5391   -0.4707   -2.3068 H   0  0  0  0  0  0  0  0  0  0  0  0
   -2.9186   -2.8281   -1.8251 H   0  0  0  0  0  0  0  0  0  0  0  0
   -4.3248   -2.9029   -0.6628 H   0  0  0  0  0  0  0  0  0  0  0  0
   -5.6513   -0.9582   -0.1855 H   0  0  0  0  0  0  0  0  0  0  0  0
   -5.3372    2.3930    2.3015 H   0  0  0  0  0  0  0  0  0  0  0  0
   -2.8599    2.3481    2.1007 H   0  0  0  0  0  0  0  0  0  0  0  0
   -0.9578   -0.9261   -0.5363 H   0  0  0  0  0  0  0  0  0  0  0  0
    1.2463   -0.8430   -0.8470 H   0  0  0  0  0  0  0  0  0  0  0  0
    1.2547    0.8597   -0.4304 H   0  0  0  0  0  0  0  0  0  0  0  0
    1.5518   -1.5226    1.4747 H   0  0  0  0  0  0  0  0  0  0  0  0
    0.8706    0.0981    3.0199 H   0  0  0  0  0  0  0  0  0  0  0  0
    1.9014    1.4436    2.2451 H   0  0  0  0  0  0  0  0  0  0  0  0
    2.7407   -0.7519    3.9635 H   0  0  0  0  0  0  0  0  0  0  0  0
    3.6648    0.7135    3.3978 H   0  0  0  0  0  0  0  0  0  0  0  0
    3.5203   -2.0357    2.2139 H   0  0  0  0  0  0  0  0  0  0  0  0
    4.8687   -0.7834    2.1246 H   0  0  0  0  0  0  0  0  0  0  0  0
    7.6800   -1.3720   -1.3365 H   0  0  0  0  0  0  0  0  0  0  0  0
    7.6278   -0.0074   -0.1636 H   0  0  0  0  0  0  0  0  0  0  0  0
    8.1791    0.3325   -1.8346 H   0  0  0  0  0  0  0  0  0  0  0  0
    6.9022    1.7403   -2.4041 H   0  0  0  0  0  0  0  0  0  0  0  0
    5.1799    1.5765   -2.7883 H   0  0  0  0  0  0  0  0  0  0  0  0
    5.7429    2.0941   -1.1115 H   0  0  0  0  0  0  0  0  0  0  0  0
    6.5128   -1.2989   -3.2016 H   0  0  0  0  0  0  0  0  0  0  0  0
    4.8825   -1.6347   -2.5254 H   0  0  0  0  0  0  0  0  0  0  0  0
    5.1735   -0.2001   -3.5780 H   0  0  0  0  0  0  0  0  0  0  0  0
   -8.3087    1.1479   -0.9045 H   0  0  0  0  0  0  0  0  0  0  0  0
   -7.3326    2.5342   -0.3535 H   0  0  0  0  0  0  0  0  0  0  0  0
   -8.9800    2.3039    0.3627 H   0  0  0  0  0  0  0  0  0  0  0  0
  1  2  1  0
  2  3  1  0
  3  4  1  0
  4  5  2  0
  5  6  1  0
  6  7  2  0
  7  8  1  0
  8  9  2  0
  9 10  1  0
 10 11  2  0
 10 12  1  0
 12 13  1  0
 13 14  1  0
 14 15  1  0
 15 16  1  0
 16 17  1  0
 17 18  1  0
 18 19  1  0
 19 20  2  0
 19 21  1  0
 21 22  1  0
 22 23  1  0
 22 24  1  0
 22 25  1  0
  6 26  1  0
 26 27  1  0
 26 28  2  0
 26 29  2  0
  9  4  1  0
 18 14  1  0
  1 30  1  0
  1 31  1  0
  1 32  1  0
  2 33  1  0
  2 34  1  0
  5 35  1  0
  7 36  1  0
  8 37  1  0
 12 38  1  0
 13 39  1  0
 13 40  1  0
 14 41  1  1
 15 42  1  0
 15 43  1  0
 16 44  1  0
 16 45  1  0
 17 46  1  0
 17 47  1  0
 23 48  1  0
 23 49  1  0
 23 50  1  0
 24 51  1  0
 24 52  1  0
 24 53  1  0
 25 54  1  0
 25 55  1  0
 25 56  1  0
 27 57  1  0
 27 58  1  0
 27 59  1  0
M  END
$$$$
[H]OC(=O)C([H])([H])C([H])([H])c1c([H])c([H])c(-c2nc([H])c([H])c([H])c2C([H])([H])[H])c([H])c1C([H])([H])[H]
     RDKit          3D

 36 37  0  0  0  0  0  0  0  0999 V2000
    2.8362    1.5439   -1.0536 C   0  0  0  0  0  0  0  0  0  0  0  0
    3.4112    0.4317   -0.2660 C   0  0  0  0  0  0  0  0  0  0  0  0
    4.8046    0.3482   -0.2032 C   0  0  0  0  0  0  0  0  0  0  0  0
    5.4244   -0.6529    0.5202 C   0  0  0  0  0  0  0  0  0  0  0  0
    4.6411   -1.5671    1.1784 C   0  0  0  0  0  0  0  0  0  0  0  0
    3.3120   -1.4584    1.0978 N   0  0  0  0  0  0  0  0  0  0  0  0
    2.6594   -0.4940    0.4006 C   0  0  0  0  0  0  0  0  0  0  0  0
    1.1875   -0.4621    0.3861 C   0  0  0  0  0  0  0  0  0  0  0  0
    0.4883   -0.5779    1.5849 C   0  0  0  0  0  0  0  0  0  0  0  0
   -0.8806   -0.5742    1.5984 C   0  0  0  0  0  0  0  0  0  0  0  0
   -1.6338   -0.4571    0.4408 C   0  0  0  0  0  0  0  0  0  0  0  0
   -3.1043   -0.4679    0.4766 C   0  0  0  0  0  0  0  0  0  0  0  0
   -3.7566    0.8664    0.2802 C   0  0  0  0  0  0  0  0  0  0  0  0
   -5.2146    0.6387    0.3530 C   0  0  0  0  0  0  0  0  0  0  0  0
   -5.9145    0.9520    1.4924 O   0  0  0  0  0  0  0  0  0  0  0  0
   -5.8020    0.1567   -0.6338 O   0  0  0  0  0  0  0  0  0  0  0  0
   -0.9563   -0.3422   -0.7416 C   0  0  0  0  0  0  0  0  0  0  0  0
   -1.6783   -0.2061   -2.0589 C   0  0  0  0  0  0  0  0  0  0  0  0
    0.4460   -0.3461   -0.7590 C   0  0  0  0  0  0  0  0  0  0  0  0
    1.8672    1.8592   -0.6470 H   0  0  0  0  0  0  0  0  0  0  0  0
    3.5562    2.4221   -1.0702 H   0  0  0  0  0  0  0  0  0  0  0  0
    2.6779    1.2879   -2.1295 H   0  0  0  0  0  0  0  0  0  0  0  0
    5.3978    1.0831   -0.7338 H   0  0  0  0  0  0  0  0  0  0  0  0
    6.4988   -0.6970    0.5534 H   0  0  0  0  0  0  0  0  0  0  0  0
    5.0892   -2.3827    1.7688 H   0  0  0  0  0  0  0  0  0  0  0  0
    1.0701   -0.6711    2.5170 H   0  0  0  0  0  0  0  0  0  0  0  0
   -1.4350   -0.6649    2.5349 H   0  0  0  0  0  0  0  0  0  0  0  0
   -3.4353   -0.8194    1.4973 H   0  0  0  0  0  0  0  0  0  0  0  0
   -3.4907   -1.1834   -0.2699 H   0  0  0  0  0  0  0  0  0  0  0  0
   -3.4394    1.3073   -0.6707 H   0  0  0  0  0  0  0  0  0  0  0  0
   -3.4554    1.5927    1.0682 H   0  0  0  0  0  0  0  0  0  0  0  0
   -6.6621    0.2962    1.7645 H   0  0  0  0  0  0  0  0  0  0  0  0
   -1.8044    0.8675   -2.3259 H   0  0  0  0  0  0  0  0  0  0  0  0
   -2.6325   -0.7361   -1.9962 H   0  0  0  0  0  0  0  0  0  0  0  0
   -0.9946   -0.6364   -2.8294 H   0  0  0  0  0  0  0  0  0  0  0  0
    0.9227   -0.2571   -1.7250 H   0  0  0  0  0  0  0  0  0  0  0  0
  1  2  1  0
  2  3  2  0
  3  4  1  0
  4  5  2  0
  5  6  1  0
  6  7  2  0
  7  8  1  0
  8  9  2  0
  9 10  1  0
 10 11  2  0
 11 12  1  0
 12 13  1  0
 13 14  1  0
 14 15  1  0
 14 16  2  0
 11 17  1  0
 17 18  1  0
 17 19  2  0
  7  2  1  0
 19  8  1  0
  1 20  1  0
  1 21  1  0
  1 22  1  0
  3 23  1  0
  4 24  1  0
  5 25  1  0
  9 26  1  0
 10 27  1  0
 12 28  1  0
 12 29  1  0
 13 30  1  0
 13 31  1  0
 15 32  1  0
 18 33  1  0
 18 34  1  0
 18 35  1  0
 19 36  1  0
M  END
$$$$
[H]c1c([H])c([H])c(C([H])(N([H])C(=O)C2([H])c3c(OC([H])([H])[H])c(OC([H])([H])[H])c([H])c([H])c3C([H])([H])C([H])([H])C2([H])[H])C([H])([H])N2C([H])([H])C([H])([H])C([H])([H])C2([H])[H])c([H])c1[H]
     RDKit          3D

 62 65  0  0  0  0  0  0  0  0999 V2000
    6.3787    2.8419    0.6387 C   0  0  0  0  0  0  0  0  0  0  0  0
    5.3527    1.9187    0.7965 O   0  0  0  0  0  0  0  0  0  0  0  0
    4.3716    1.5833   -0.1023 C   0  0  0  0  0  0  0  0  0  0  0  0
    4.3460    2.2085   -1.3366 C   0  0  0  0  0  0  0  0  0  0  0  0
    3.3489    1.8639   -2.2428 C   0  0  0  0  0  0  0  0  0  0  0  0
    2.4048    0.9088   -1.9002 C   0  0  0  0  0  0  0  0  0  0  0  0
    1.3311    0.4812   -2.8309 C   0  0  0  0  0  0  0  0  0  0  0  0
    1.3940   -1.0527   -2.7870 C   0  0  0  0  0  0  0  0  0  0  0  0
    1.1460   -1.5969   -1.4200 C   0  0  0  0  0  0  0  0  0  0  0  0
    1.4356   -0.6930   -0.2745 C   0  0  0  0  0  0  0  0  0  0  0  0
    0.2105    0.0330    0.1758 C   0  0  0  0  0  0  0  0  0  0  0  0
    0.2071    1.3143    0.2010 O   0  0  0  0  0  0  0  0  0  0  0  0
   -0.9879   -0.5926    0.5964 N   0  0  0  0  0  0  0  0  0  0  0  0
   -2.1149    0.1610    1.0298 C   0  0  0  0  0  0  0  0  0  0  0  0
   -3.4072   -0.1342    0.3835 C   0  0  0  0  0  0  0  0  0  0  0  0
   -3.4794    0.0778   -1.0337 N   0  0  0  0  0  0  0  0  0  0  0  0
   -2.7263   -0.8073   -1.8459 C   0  0  0  0  0  0  0  0  0  0  0  0
   -3.5990   -1.1984   -3.0207 C   0  0  0  0  0  0  0  0  0  0  0  0
   -4.9969   -1.0949   -2.4433 C   0  0  0  0  0  0  0  0  0  0  0  0
   -4.8636    0.0217   -1.4601 C   0  0  0  0  0  0  0  0  0  0  0  0
   -2.2403    0.0137    2.5153 C   0  0  0  0  0  0  0  0  0  0  0  0
   -2.1318   -1.2062    3.1014 C   0  0  0  0  0  0  0  0  0  0  0  0
   -2.2481   -1.3226    4.4668 C   0  0  0  0  0  0  0  0  0  0  0  0
   -2.4745   -0.1952    5.2306 C   0  0  0  0  0  0  0  0  0  0  0  0
   -2.5847    1.0415    4.6443 C   0  0  0  0  0  0  0  0  0  0  0  0
   -2.4635    1.1351    3.2611 C   0  0  0  0  0  0  0  0  0  0  0  0
    2.4621    0.3073   -0.6584 C   0  0  0  0  0  0  0  0  0  0  0  0
    3.4352    0.6239    0.2629 C   0  0  0  0  0  0  0  0  0  0  0  0
    3.4736    0.0108    1.4939 O   0  0  0  0  0  0  0  0  0  0  0  0
    4.2472   -1.1766    1.6195 C   0  0  0  0  0  0  0  0  0  0  0  0
    6.7175    2.8632   -0.3957 H   0  0  0  0  0  0  0  0  0  0  0  0
    7.1983    2.5313    1.3397 H   0  0  0  0  0  0  0  0  0  0  0  0
    6.0163    3.8614    0.8890 H   0  0  0  0  0  0  0  0  0  0  0  0
    5.0778    2.9502   -1.6069 H   0  0  0  0  0  0  0  0  0  0  0  0
    3.2750    2.3213   -3.2330 H   0  0  0  0  0  0  0  0  0  0  0  0
    0.3382    0.8506   -2.6128 H   0  0  0  0  0  0  0  0  0  0  0  0
    1.6270    0.7389   -3.8944 H   0  0  0  0  0  0  0  0  0  0  0  0
    2.4581   -1.2772   -3.0858 H   0  0  0  0  0  0  0  0  0  0  0  0
    0.6783   -1.4779   -3.4918 H   0  0  0  0  0  0  0  0  0  0  0  0
    0.0963   -1.9689   -1.3867 H   0  0  0  0  0  0  0  0  0  0  0  0
    1.7882   -2.5310   -1.3417 H   0  0  0  0  0  0  0  0  0  0  0  0
    1.8161   -1.3083    0.5864 H   0  0  0  0  0  0  0  0  0  0  0  0
   -1.0332   -1.6316    0.5871 H   0  0  0  0  0  0  0  0  0  0  0  0
   -1.8846    1.2495    0.8263 H   0  0  0  0  0  0  0  0  0  0  0  0
   -4.1728    0.5811    0.8269 H   0  0  0  0  0  0  0  0  0  0  0  0
   -3.8107   -1.1480    0.6548 H   0  0  0  0  0  0  0  0  0  0  0  0
   -1.8044   -0.3333   -2.2004 H   0  0  0  0  0  0  0  0  0  0  0  0
   -2.4771   -1.7706   -1.3333 H   0  0  0  0  0  0  0  0  0  0  0  0
   -3.3782   -2.2447   -3.3430 H   0  0  0  0  0  0  0  0  0  0  0  0
   -3.4877   -0.5305   -3.8911 H   0  0  0  0  0  0  0  0  0  0  0  0
   -5.3167   -2.0302   -1.9308 H   0  0  0  0  0  0  0  0  0  0  0  0
   -5.6764   -0.8622   -3.3050 H   0  0  0  0  0  0  0  0  0  0  0  0
   -5.2012    0.9548   -1.9709 H   0  0  0  0  0  0  0  0  0  0  0  0
   -5.5750   -0.1270   -0.6141 H   0  0  0  0  0  0  0  0  0  0  0  0
   -1.9541   -2.1292    2.5516 H   0  0  0  0  0  0  0  0  0  0  0  0
   -2.1620   -2.3000    4.9567 H   0  0  0  0  0  0  0  0  0  0  0  0
   -2.5687   -0.2727    6.3146 H   0  0  0  0  0  0  0  0  0  0  0  0
   -2.7629    1.9546    5.1929 H   0  0  0  0  0  0  0  0  0  0  0  0
   -2.5546    2.1362    2.8098 H   0  0  0  0  0  0  0  0  0  0  0  0
    4.8216   -1.4217    0.7151 H   0  0  0  0  0  0  0  0  0  0  0  0
    3.6589   -2.0652    1.8954 H   0  0  0  0  0  0  0  0  0  0  0  0
    5.0257   -1.0388    2.4298 H   0  0  0  0  0  0  0  0  0  0  0  0
  1  2  1  0
  2  3  1  0
  3  4  2  0
  4  5  1  0
  5  6  2  0
  6  7  1  0
  7  8  1  0
  8  9  1  0
  9 10  1  0
 10 11  1  0
 11 12  2  0
 11 13  1  0
 13 14  1  0
 14 15  1  0
 15 16  1  0
 16 17  1  0
 17 18  1  0
 18 19  1  0
 19 20  1  0
 14 21  1  0
 21 22  2  0
 22 23  1  0
 23 24  2  0
 24 25  1  0
 25 26  2  0
 10 27  1  0
 27 28  2  0
 28 29  1  0
 29 30  1  0
 28  3  1  0
 27  6  1  0
 20 16  1  0
 26 21  1  0
  1 31  1  0
  1 32  1  0
  1 33  1  0
  4 34  1  0
  5 35  1  0
  7 36  1  0
  7 37  1  0
  8 38  1  0
  8 39  1  0
  9 40  1  0
  9 41  1  0
 10 42  1  0
 13 43  1  0
 14 44  1  0
 15 45  1  0
 15 46  1  0
 17 47  1  0
 17 48  1  0
 18 49  1  0
 18 50  1  0
 19 51  1  0
 19 52  1  0
 20 53  1  0
 20 54  1  0
 22 55  1  0
 23 56  1  0
 24 57  1  0
 25 58  1  0
 26 59  1  0
 30 60  1  0
 30 61  1  0
 30 62  1  0
M  END
$$$$
[H]N=C(N([H])[H])N([H])C([H])([H])C([H])([H])C([H])([H])[C@@]([H])(C(=O)c1nc([H])c([H])s1)N([H])C(=O)[C@@]([H])(N([H])C(=O)[C@@]([H])(N([H])C(=O)C([H])([H])C([H])([H])C(=O)O[H])C([H])([H])C(=O)N([H])[H])C([H])([H])C([H])([H])C([H])([H])N=C(N([H])[H])N([H])[H]
     RDKit          3D

 79 79  0  0  0  0  0  0  0  0999 V2000
   -2.0296    6.4380    2.8798 N   0  0  0  0  0  0  0  0  0  0  0  0
   -1.8788    5.2889    3.6920 C   0  0  0  0  0  0  0  0  0  0  0  0
   -1.6352    5.3755    5.0575 N   0  0  0  0  0  0  0  0  0  0  0  0
   -1.9726    4.1191    3.0947 N   0  0  0  0  0  0  0  0  0  0  0  0
   -2.2202    4.0745    1.6729 C   0  0  0  0  0  0  0  0  0  0  0  0
   -1.8714    2.7467    1.0640 C   0  0  0  0  0  0  0  0  0  0  0  0
   -0.4319    2.4129    1.3083 C   0  0  0  0  0  0  0  0  0  0  0  0
   -0.0341    1.1236    0.6164 C   0  0  2  0  0  0  0  0  0  0  0  0
   -0.8482    0.0457    1.1094 N   0  0  0  0  0  0  0  0  0  0  0  0
   -1.9597   -0.4477    0.3690 C   0  0  0  0  0  0  0  0  0  0  0  0
   -2.2238    0.1440   -0.7345 O   0  0  0  0  0  0  0  0  0  0  0  0
   -2.8230   -1.5596    0.7365 C   0  0  2  0  0  0  0  0  0  0  0  0
   -2.1774   -2.7804   -0.0074 C   0  0  0  0  0  0  0  0  0  0  0  0
   -2.1234   -2.5965   -1.4497 C   0  0  0  0  0  0  0  0  0  0  0  0
   -3.2210   -2.9832   -2.2911 N   0  0  0  0  0  0  0  0  0  0  0  0
   -1.1113   -2.0867   -1.9888 O   0  0  0  0  0  0  0  0  0  0  0  0
   -4.1940   -1.4038    0.4052 N   0  0  0  0  0  0  0  0  0  0  0  0
   -5.1761   -2.3943    0.5817 C   0  0  0  0  0  0  0  0  0  0  0  0
   -4.7335   -3.5234    1.0443 O   0  0  0  0  0  0  0  0  0  0  0  0
   -6.6135   -2.2869    0.2923 C   0  0  0  0  0  0  0  0  0  0  0  0
   -7.0111   -2.6890   -1.0971 C   0  0  0  0  0  0  0  0  0  0  0  0
   -8.4782   -2.6307   -1.3141 C   0  0  0  0  0  0  0  0  0  0  0  0
   -9.3750   -2.7479   -0.2545 O   0  0  0  0  0  0  0  0  0  0  0  0
   -8.9238   -2.4713   -2.4855 O   0  0  0  0  0  0  0  0  0  0  0  0
    1.4308    0.8250    1.0068 C   0  0  0  0  0  0  0  0  0  0  0  0
    1.4918    0.4424    2.2217 O   0  0  0  0  0  0  0  0  0  0  0  0
    2.4647    0.9601    0.1664 N   0  0  0  0  0  0  0  0  0  0  0  0
    3.5518    1.0999   -0.7087 C   0  0  1  0  0  0  0  0  0  0  0  0
    4.1994   -0.3684   -0.8233 C   0  0  0  0  0  0  0  0  0  0  0  0
    4.6301   -0.8172    0.5282 C   0  0  0  0  0  0  0  0  0  0  0  0
    5.2747   -2.1665    0.5126 C   0  0  0  0  0  0  0  0  0  0  0  0
    6.4608   -2.3080   -0.2705 N   0  0  0  0  0  0  0  0  0  0  0  0
    7.1920   -3.5425   -0.2247 C   0  0  0  0  0  0  0  0  0  0  0  0
    7.0327   -4.3852    0.8874 N   0  0  0  0  0  0  0  0  0  0  0  0
    7.9774   -3.8573   -1.1845 N   0  0  0  0  0  0  0  0  0  0  0  0
    3.1004    1.3052   -2.0995 C   0  0  0  0  0  0  0  0  0  0  0  0
    1.8594    1.1679   -2.3510 O   0  0  0  0  0  0  0  0  0  0  0  0
    3.9686    1.6576   -3.2097 C   0  0  0  0  0  0  0  0  0  0  0  0
    3.6309    1.8407   -4.4676 N   0  0  0  0  0  0  0  0  0  0  0  0
    4.4703    2.1769   -5.3617 C   0  0  0  0  0  0  0  0  0  0  0  0
    5.7988    2.3496   -4.9456 C   0  0  0  0  0  0  0  0  0  0  0  0
    5.6507    1.9932   -3.2778 S   0  0  0  0  0  0  0  0  0  0  0  0
   -2.7475    6.4652    2.1482 H   0  0  0  0  0  0  0  0  0  0  0  0
   -1.4113    7.2491    3.0373 H   0  0  0  0  0  0  0  0  0  0  0  0
   -2.4055    5.2100    5.7374 H   0  0  0  0  0  0  0  0  0  0  0  0
   -0.6821    5.6103    5.4028 H   0  0  0  0  0  0  0  0  0  0  0  0
   -1.6079    4.9106    1.2091 H   0  0  0  0  0  0  0  0  0  0  0  0
   -3.2905    4.3319    1.4939 H   0  0  0  0  0  0  0  0  0  0  0  0
   -1.9876    2.8497   -0.0724 H   0  0  0  0  0  0  0  0  0  0  0  0
   -2.5722    1.9796    1.4600 H   0  0  0  0  0  0  0  0  0  0  0  0
    0.1726    3.2686    0.9453 H   0  0  0  0  0  0  0  0  0  0  0  0
   -0.2233    2.2233    2.3941 H   0  0  0  0  0  0  0  0  0  0  0  0
   -0.1544    1.3045   -0.4407 H   0  0  0  0  0  0  0  0  0  0  0  0
   -0.6334   -0.3907    2.0205 H   0  0  0  0  0  0  0  0  0  0  0  0
   -2.7145   -1.8651    1.7871 H   0  0  0  0  0  0  0  0  0  0  0  0
   -2.5948   -3.7218    0.2980 H   0  0  0  0  0  0  0  0  0  0  0  0
   -1.1249   -2.7540    0.4345 H   0  0  0  0  0  0  0  0  0  0  0  0
   -3.2366   -2.5733   -3.2635 H   0  0  0  0  0  0  0  0  0  0  0  0
   -3.9757   -3.6330   -1.9992 H   0  0  0  0  0  0  0  0  0  0  0  0
   -4.5151   -0.4605   -0.0319 H   0  0  0  0  0  0  0  0  0  0  0  0
   -7.1684   -3.0698    0.9735 H   0  0  0  0  0  0  0  0  0  0  0  0
   -7.0460   -1.3530    0.5929 H   0  0  0  0  0  0  0  0  0  0  0  0
   -6.5622   -1.8757   -1.7835 H   0  0  0  0  0  0  0  0  0  0  0  0
   -6.6334   -3.6519   -1.4179 H   0  0  0  0  0  0  0  0  0  0  0  0
   -9.2216   -3.1679    0.6253 H   0  0  0  0  0  0  0  0  0  0  0  0
    3.3446    0.8523    1.1871 H   0  0  0  0  0  0  0  0  0  0  0  0
    4.4479    1.6531   -0.4081 H   0  0  0  0  0  0  0  0  0  0  0  0
    3.4707   -1.0238   -1.3113 H   0  0  0  0  0  0  0  0  0  0  0  0
    5.0765   -0.2531   -1.4772 H   0  0  0  0  0  0  0  0  0  0  0  0
    3.7569   -0.9445    1.2311 H   0  0  0  0  0  0  0  0  0  0  0  0
    5.3395   -0.0951    1.0203 H   0  0  0  0  0  0  0  0  0  0  0  0
    4.5443   -2.9452    0.1710 H   0  0  0  0  0  0  0  0  0  0  0  0
    5.5279   -2.4850    1.5740 H   0  0  0  0  0  0  0  0  0  0  0  0
    6.8255   -1.5535   -0.8904 H   0  0  0  0  0  0  0  0  0  0  0  0
    6.5427   -5.3172    0.8076 H   0  0  0  0  0  0  0  0  0  0  0  0
    7.4048   -4.0836    1.8306 H   0  0  0  0  0  0  0  0  0  0  0  0
    8.0628   -3.1997   -1.9803 H   0  0  0  0  0  0  0  0  0  0  0  0
    4.2257    2.3308   -6.4252 H   0  0  0  0  0  0  0  0  0  0  0  0
    6.6478    2.6379   -5.5794 H   0  0  0  0  0  0  0  0  0  0  0  0
  1  2  1  0
  2  3  1  0
  2  4  2  3
  4  5  1  0
  5  6  1  0
  6  7  1  0
  7  8  1  0
  8  9  1  0
  9 10  1  0
 10 11  2  0
 10 12  1  0
 12 13  1  0
 13 14  1  0
 14 15  1  0
 14 16  2  0
 12 17  1  0
 17 18  1  0
 18 19  2  0
 18 20  1  0
 20 21  1  0
 21 22  1  0
 22 23  1  0
 22 24  2  0
  8 25  1  0
 25 26  2  0
 25 27  1  0
 27 28  1  0
 28 29  1  0
 29 30  1  0
 30 31  1  0
 31 32  1  0
 32 33  1  0
 33 34  1  0
 33 35  2  3
 28 36  1  0
 36 37  2  0
 36 38  1  0
 38 39  2  0
 39 40  1  0
 40 41  2  0
 41 42  1  0
 42 38  1  0
  1 43  1  0
  1 44  1  0
  3 45  1  0
  3 46  1  0
  5 47  1  0
  5 48  1  0
  6 49  1  0
  6 50  1  0
  7 51  1  0
  7 52  1  0
  8 53  1  6
  9 54  1  0
 12 55  1  1
 13 56  1  0
 13 57  1  0
 15 58  1  0
 15 59  1  0
 17 60  1  0
 20 61  1  0
 20 62  1  0
 21 63  1  0
 21 64  1  0
 23 65  1  0
 27 66  1  0
 28 67  1  1
 29 68  1  0
 29 69  1  0
 30 70  1  0
 30 71  1  0
 31 72  1  0
 31 73  1  0
 32 74  1  0
 34 75  1  0
 34 76  1  0
 35 77  1  0
 40 78  1  0
 41 79  1  0
M  END
$$$$
[H]c1nn(C([H])([H])[H])c([H])c1-c1c([H])c([H])c2c([H])nc(N([H])c3c([H])c([H])c(N4C([H])([H])C([H])([H])N(C(=O)[C@]5([H])N([H])C([H])([H])C([H])([H])C5([H])[H])C([H])([H])C4([H])[H])c([H])c3[H])nc2c1[H]
     RDKit          3D

 66 71  0  0  0  0  0  0  0  0999 V2000
   11.1025    3.3590   -0.6413 C   0  0  0  0  0  0  0  0  0  0  0  0
   10.3480    2.2724   -0.0483 N   0  0  0  0  0  0  0  0  0  0  0  0
    9.0940    1.8444   -0.3685 C   0  0  0  0  0  0  0  0  0  0  0  0
    8.7574    0.7837    0.4409 C   0  0  0  0  0  0  0  0  0  0  0  0
    9.8426    0.5794    1.2619 C   0  0  0  0  0  0  0  0  0  0  0  0
   10.7855    1.5012    0.9346 N   0  0  0  0  0  0  0  0  0  0  0  0
    7.5180    0.0293    0.4388 C   0  0  0  0  0  0  0  0  0  0  0  0
    7.5575   -1.3184    0.7910 C   0  0  0  0  0  0  0  0  0  0  0  0
    6.3920   -2.0273    0.7886 C   0  0  0  0  0  0  0  0  0  0  0  0
    5.2034   -1.4507    0.4525 C   0  0  0  0  0  0  0  0  0  0  0  0
    4.0243   -2.1777    0.4524 C   0  0  0  0  0  0  0  0  0  0  0  0
    2.9191   -1.5396    0.1138 N   0  0  0  0  0  0  0  0  0  0  0  0
    2.7858   -0.2646   -0.2345 C   0  0  0  0  0  0  0  0  0  0  0  0
    1.5975    0.3982   -0.5933 N   0  0  0  0  0  0  0  0  0  0  0  0
    0.3404   -0.1878   -0.6270 C   0  0  0  0  0  0  0  0  0  0  0  0
   -0.0081   -1.2865    0.0893 C   0  0  0  0  0  0  0  0  0  0  0  0
   -1.2875   -1.8599   -0.0032 C   0  0  0  0  0  0  0  0  0  0  0  0
   -2.2426   -1.3113   -0.8393 C   0  0  0  0  0  0  0  0  0  0  0  0
   -1.8556   -0.1902   -1.5554 C   0  0  0  0  0  0  0  0  0  0  0  0
   -0.6112    0.3694   -1.4676 C   0  0  0  0  0  0  0  0  0  0  0  0
   -3.5266   -1.8687   -0.9355 N   0  0  0  0  0  0  0  0  0  0  0  0
   -4.0147   -2.8843    0.0055 C   0  0  0  0  0  0  0  0  0  0  0  0
   -5.4963   -2.6428    0.2718 C   0  0  0  0  0  0  0  0  0  0  0  0
   -5.8131   -1.2379   -0.0240 N   0  0  0  0  0  0  0  0  0  0  0  0
   -5.5374   -0.6655   -1.3141 C   0  0  0  0  0  0  0  0  0  0  0  0
   -4.4513   -1.4978   -1.9640 C   0  0  0  0  0  0  0  0  0  0  0  0
   -6.3865   -0.4696    0.9936 C   0  0  0  0  0  0  0  0  0  0  0  0
   -6.6122   -1.0294    2.1208 O   0  0  0  0  0  0  0  0  0  0  0  0
   -6.7402    0.9420    0.8363 C   0  0  1  0  0  0  0  0  0  0  0  0
   -7.7919    1.2327   -0.1896 C   0  0  0  0  0  0  0  0  0  0  0  0
   -8.3979    2.5461    0.3171 C   0  0  0  0  0  0  0  0  0  0  0  0
   -7.8646    2.7298    1.7206 C   0  0  0  0  0  0  0  0  0  0  0  0
   -7.2938    1.4569    2.0867 N   0  0  0  0  0  0  0  0  0  0  0  0
    3.9595    0.4539   -0.2332 N   0  0  0  0  0  0  0  0  0  0  0  0
    5.1193   -0.1206    0.0978 C   0  0  0  0  0  0  0  0  0  0  0  0
    6.3141    0.6004    0.1018 C   0  0  0  0  0  0  0  0  0  0  0  0
   10.4451    3.8887   -1.3447 H   0  0  0  0  0  0  0  0  0  0  0  0
   11.3164    4.0734    0.1926 H   0  0  0  0  0  0  0  0  0  0  0  0
   12.0373    2.9804   -1.1005 H   0  0  0  0  0  0  0  0  0  0  0  0
    8.4844    2.2870   -1.1400 H   0  0  0  0  0  0  0  0  0  0  0  0
    9.8786   -0.1916    2.0126 H   0  0  0  0  0  0  0  0  0  0  0  0
    8.5027   -1.7677    1.0561 H   0  0  0  0  0  0  0  0  0  0  0  0
    6.3731   -3.0853    1.0574 H   0  0  0  0  0  0  0  0  0  0  0  0
    4.0444   -3.2187    0.7226 H   0  0  0  0  0  0  0  0  0  0  0  0
    1.6592    1.4401   -0.8601 H   0  0  0  0  0  0  0  0  0  0  0  0
    0.6491   -1.7954    0.7950 H   0  0  0  0  0  0  0  0  0  0  0  0
   -1.5441   -2.7350    0.5721 H   0  0  0  0  0  0  0  0  0  0  0  0
   -2.6130    0.2534   -2.2186 H   0  0  0  0  0  0  0  0  0  0  0  0
   -0.3776    1.2375   -2.0500 H   0  0  0  0  0  0  0  0  0  0  0  0
   -3.9439   -3.8511   -0.5250 H   0  0  0  0  0  0  0  0  0  0  0  0
   -3.5091   -2.8837    0.9634 H   0  0  0  0  0  0  0  0  0  0  0  0
   -6.1131   -3.2642   -0.3788 H   0  0  0  0  0  0  0  0  0  0  0  0
   -5.7079   -2.8773    1.3275 H   0  0  0  0  0  0  0  0  0  0  0  0
   -5.1094    0.3678   -1.2148 H   0  0  0  0  0  0  0  0  0  0  0  0
   -6.4427   -0.6179   -1.9628 H   0  0  0  0  0  0  0  0  0  0  0  0
   -4.0173   -1.0062   -2.8498 H   0  0  0  0  0  0  0  0  0  0  0  0
   -4.9122   -2.4646   -2.3259 H   0  0  0  0  0  0  0  0  0  0  0  0
   -5.8660    1.5893    0.5942 H   0  0  0  0  0  0  0  0  0  0  0  0
   -7.3333    1.4172   -1.2090 H   0  0  0  0  0  0  0  0  0  0  0  0
   -8.5166    0.4158   -0.2046 H   0  0  0  0  0  0  0  0  0  0  0  0
   -9.5092    2.4207    0.3450 H   0  0  0  0  0  0  0  0  0  0  0  0
   -8.0893    3.3742   -0.3252 H   0  0  0  0  0  0  0  0  0  0  0  0
   -8.6662    2.9716    2.4420 H   0  0  0  0  0  0  0  0  0  0  0  0
   -7.0947    3.5351    1.7310 H   0  0  0  0  0  0  0  0  0  0  0  0
   -8.0301    0.8097    2.4077 H   0  0  0  0  0  0  0  0  0  0  0  0
    6.2759    1.6284   -0.1682 H   0  0  0  0  0  0  0  0  0  0  0  0
  1  2  1  0
  2  3  1  0
  3  4  2  0
  4  5  1  0
  5  6  2  0
  4  7  1  0
  7  8  2  0
  8  9  1  0
  9 10  2  0
 10 11  1  0
 11 12  2  0
 12 13  1  0
 13 14  1  0
 14 15  1  0
 15 16  2  0
 16 17  1  0
 17 18  2  0
 18 19  1  0
 19 20  2  0
 18 21  1  0
 21 22  1  0
 22 23  1  0
 23 24  1  0
 24 25  1  0
 25 26  1  0
 24 27  1  0
 27 28  2  0
 27 29  1  0
 29 30  1  0
 30 31  1  0
 31 32  1  0
 32 33  1  0
 13 34  2  0
 34 35  1  0
 35 36  2  0
  6  2  1  0
 36  7  1  0
 35 10  1  0
 20 15  1  0
 26 21  1  0
 33 29  1  0
  1 37  1  0
  1 38  1  0
  1 39  1  0
  3 40  1  0
  5 41  1  0
  8 42  1  0
  9 43  1  0
 11 44  1  0
 14 45  1  0
 16 46  1  0
 17 47  1  0
 19 48  1  0
 20 49  1  0
 22 50  1  0
 22 51  1  0
 23 52  1  0
 23 53  1  0
 25 54  1  0
 25 55  1  0
 26 56  1  0
 26 57  1  0
 29 58  1  6
 30 59  1  0
 30 60  1  0
 31 61  1  0
 31 62  1  0
 32 63  1  0
 32 64  1  0
 33 65  1  0
 36 66  1  0
M  END
$$$$
[H]c1c([H])c(Cl)c(N([H])c2nc3c([H])c(-c4nn([H])c(N([H])C([H])([H])C([H])([H])C([H])([H])N5C([H])([H])C([H])([H])N(C([H])([H])[H])C([H])([H])C5([H])[H])c4[H])c([H])c([H])c3n2C([H])([H])[H])c([H])c1Cl
     RDKit          3D

 65 69  0  0  0  0  0  0  0  0999 V2000
   -7.4244   -0.8888   -3.2115 C   0  0  0  0  0  0  0  0  0  0  0  0
   -7.4670   -0.5120   -1.8228 N   0  0  0  0  0  0  0  0  0  0  0  0
   -6.1622   -0.6520   -1.2101 C   0  0  0  0  0  0  0  0  0  0  0  0
   -5.4241    0.6414   -1.3553 C   0  0  0  0  0  0  0  0  0  0  0  0
   -6.0331    1.6162   -0.5116 N   0  0  0  0  0  0  0  0  0  0  0  0
   -5.3017    1.9976    0.6488 C   0  0  0  0  0  0  0  0  0  0  0  0
   -5.1741    0.9011    1.6856 C   0  0  0  0  0  0  0  0  0  0  0  0
   -4.3831    1.4608    2.8393 C   0  0  0  0  0  0  0  0  0  0  0  0
   -3.0631    1.9110    2.4967 N   0  0  0  0  0  0  0  0  0  0  0  0
   -1.9879    1.0640    2.0977 C   0  0  0  0  0  0  0  0  0  0  0  0
   -0.6935    1.4612    1.7549 C   0  0  0  0  0  0  0  0  0  0  0  0
    0.0591    0.3553    1.4453 C   0  0  0  0  0  0  0  0  0  0  0  0
   -0.7535   -0.6973    1.5944 N   0  0  0  0  0  0  0  0  0  0  0  0
   -1.9674   -0.2725    1.9819 N   0  0  0  0  0  0  0  0  0  0  0  0
    1.4609    0.2926    1.0345 C   0  0  0  0  0  0  0  0  0  0  0  0
    2.2339    1.4268    0.9055 C   0  0  0  0  0  0  0  0  0  0  0  0
    3.5491    1.4066    0.5252 C   0  0  0  0  0  0  0  0  0  0  0  0
    4.1454    0.1827    0.2526 C   0  0  0  0  0  0  0  0  0  0  0  0
    5.4191   -0.1600   -0.1412 N   0  0  0  0  0  0  0  0  0  0  0  0
    6.4120    0.8519   -0.4289 C   0  0  0  0  0  0  0  0  0  0  0  0
    5.4928   -1.4649   -0.2647 C   0  0  0  0  0  0  0  0  0  0  0  0
    6.5553   -2.3469   -0.5362 N   0  0  0  0  0  0  0  0  0  0  0  0
    7.9161   -2.2351   -0.4839 C   0  0  0  0  0  0  0  0  0  0  0  0
    8.6850   -3.0864   -1.3139 C   0  0  0  0  0  0  0  0  0  0  0  0
    7.8620   -4.1497   -2.4434 Cl  0  0  0  0  0  0  0  0  0  0  0  0
   10.0582   -3.0974   -1.2554 C   0  0  0  0  0  0  0  0  0  0  0  0
   10.7517   -2.2911   -0.3966 C   0  0  0  0  0  0  0  0  0  0  0  0
   10.0303   -1.4555    0.4217 C   0  0  0  0  0  0  0  0  0  0  0  0
   10.8855   -0.4159    1.5264 Cl  0  0  0  0  0  0  0  0  0  0  0  0
    8.6306   -1.4492    0.3583 C   0  0  0  0  0  0  0  0  0  0  0  0
    4.2475   -1.9484    0.0508 N   0  0  0  0  0  0  0  0  0  0  0  0
    3.4078   -0.9678    0.3702 C   0  0  0  0  0  0  0  0  0  0  0  0
    2.0814   -0.9069    0.7570 C   0  0  0  0  0  0  0  0  0  0  0  0
   -7.4353    1.4379   -0.3329 C   0  0  0  0  0  0  0  0  0  0  0  0
   -7.9891    0.8055   -1.6148 C   0  0  0  0  0  0  0  0  0  0  0  0
   -6.5866   -1.6174   -3.4176 H   0  0  0  0  0  0  0  0  0  0  0  0
   -7.2628   -0.0330   -3.8948 H   0  0  0  0  0  0  0  0  0  0  0  0
   -8.3565   -1.3962   -3.5469 H   0  0  0  0  0  0  0  0  0  0  0  0
   -6.3659   -0.9279   -0.1377 H   0  0  0  0  0  0  0  0  0  0  0  0
   -5.6466   -1.5015   -1.7278 H   0  0  0  0  0  0  0  0  0  0  0  0
   -4.3302    0.5389   -1.2017 H   0  0  0  0  0  0  0  0  0  0  0  0
   -5.5499    0.9779   -2.4120 H   0  0  0  0  0  0  0  0  0  0  0  0
   -5.8827    2.8241    1.1414 H   0  0  0  0  0  0  0  0  0  0  0  0
   -4.3087    2.4332    0.4241 H   0  0  0  0  0  0  0  0  0  0  0  0
   -4.7027    0.0044    1.3142 H   0  0  0  0  0  0  0  0  0  0  0  0
   -6.1792    0.6191    2.0663 H   0  0  0  0  0  0  0  0  0  0  0  0
   -4.2464    0.6717    3.6254 H   0  0  0  0  0  0  0  0  0  0  0  0
   -4.9171    2.3036    3.3399 H   0  0  0  0  0  0  0  0  0  0  0  0
   -2.8199    2.9566    2.5291 H   0  0  0  0  0  0  0  0  0  0  0  0
   -0.3563    2.4822    1.7414 H   0  0  0  0  0  0  0  0  0  0  0  0
   -2.7485   -0.9307    2.1617 H   0  0  0  0  0  0  0  0  0  0  0  0
    1.7635    2.3751    1.1190 H   0  0  0  0  0  0  0  0  0  0  0  0
    4.1527    2.3061    0.4264 H   0  0  0  0  0  0  0  0  0  0  0  0
    7.0433    0.6222   -1.3137 H   0  0  0  0  0  0  0  0  0  0  0  0
    6.9769    1.1911    0.4602 H   0  0  0  0  0  0  0  0  0  0  0  0
    5.8467    1.7786   -0.7536 H   0  0  0  0  0  0  0  0  0  0  0  0
    6.2148   -3.3519   -0.8653 H   0  0  0  0  0  0  0  0  0  0  0  0
   10.6444   -3.7557   -1.8974 H   0  0  0  0  0  0  0  0  0  0  0  0
   11.8254   -2.3121   -0.3643 H   0  0  0  0  0  0  0  0  0  0  0  0
    8.1671   -0.8019    1.0700 H   0  0  0  0  0  0  0  0  0  0  0  0
    1.5035   -1.8291    0.8471 H   0  0  0  0  0  0  0  0  0  0  0  0
   -7.7198    0.8339    0.5477 H   0  0  0  0  0  0  0  0  0  0  0  0
   -7.9334    2.4276   -0.2500 H   0  0  0  0  0  0  0  0  0  0  0  0
   -9.0954    0.7886   -1.5332 H   0  0  0  0  0  0  0  0  0  0  0  0
   -7.7535    1.5078   -2.4412 H   0  0  0  0  0  0  0  0  0  0  0  0
  1  2  1  0
  2  3  1  0
  3  4  1  0
  4  5  1  0
  5  6  1  0
  6  7  1  0
  7  8  1  0
  8  9  1  0
  9 10  1  0
 10 11  2  0
 11 12  1  0
 12 13  2  0
 13 14  1  0
 12 15  1  0
 15 16  2  0
 16 17  1  0
 17 18  2  0
 18 19  1  0
 19 20  1  0
 19 21  1  0
 21 22  1  0
 22 23  1  0
 23 24  2  0
 24 25  1  0
 24 26  1  0
 26 27  2  0
 27 28  1  0
 28 29  1  0
 28 30  2  0
 21 31  2  0
 31 32  1  0
 32 33  2  0
  5 34  1  0
 34 35  1  0
 35  2  1  0
 14 10  1  0
 33 15  1  0
 32 18  1  0
 30 23  1  0
  1 36  1  0
  1 37  1  0
  1 38  1  0
  3 39  1  0
  3 40  1  0
  4 41  1  0
  4 42  1  0
  6 43  1  0
  6 44  1  0
  7 45  1  0
  7 46  1  0
  8 47  1  0
  8 48  1  0
  9 49  1  0
 11 50  1  0
 14 51  1  0
 16 52  1  0
 17 53  1  0
 20 54  1  0
 20 55  1  0
 20 56  1  0
 22 57  1  0
 26 58  1  0
 27 59  1  0
 30 60  1  0
 33 61  1  0
 34 62  1  0
 34 63  1  0
 35 64  1  0
 35 65  1  0
M  END
$$$$
[H]c1nc(N([H])C([H])([H])c2c([H])c([H])c3c(c2[H])OC([H])([H])O3)oc1-c1c([H])c([H])c([H])c([H])c1I
     RDKit          3D

 36 39  0  0  0  0  0  0  0  0999 V2000
   -5.6002   -2.2662    1.3768 I   0  0  0  0  0  0  0  0  0  0  0  0
   -5.5350   -0.5311    0.2158 C   0  0  0  0  0  0  0  0  0  0  0  0
   -6.7763   -0.0395   -0.2603 C   0  0  0  0  0  0  0  0  0  0  0  0
   -6.8369    1.0568   -1.0523 C   0  0  0  0  0  0  0  0  0  0  0  0
   -5.6593    1.6857   -1.3859 C   0  0  0  0  0  0  0  0  0  0  0  0
   -4.4622    1.2033   -0.9200 C   0  0  0  0  0  0  0  0  0  0  0  0
   -4.3724    0.0647   -0.0937 C   0  0  0  0  0  0  0  0  0  0  0  0
   -3.0541   -0.3110    0.3715 C   0  0  0  0  0  0  0  0  0  0  0  0
   -2.6677   -1.1943    1.3217 C   0  0  0  0  0  0  0  0  0  0  0  0
   -1.3169   -1.1641    1.3675 N   0  0  0  0  0  0  0  0  0  0  0  0
   -0.8717   -0.2804    0.4661 C   0  0  0  0  0  0  0  0  0  0  0  0
    0.5072    0.0481    0.2008 N   0  0  0  0  0  0  0  0  0  0  0  0
    1.5062   -0.6321    0.9706 C   0  0  0  0  0  0  0  0  0  0  0  0
    2.8685   -0.2560    0.6507 C   0  0  0  0  0  0  0  0  0  0  0  0
    3.4789    0.7823    1.3129 C   0  0  0  0  0  0  0  0  0  0  0  0
    4.7948    1.1567    1.0142 C   0  0  0  0  0  0  0  0  0  0  0  0
    5.5024    0.4914    0.0510 C   0  0  0  0  0  0  0  0  0  0  0  0
    6.8011    0.6864   -0.4053 O   0  0  0  0  0  0  0  0  0  0  0  0
    7.1203   -0.4838   -1.1714 C   0  0  0  0  0  0  0  0  0  0  0  0
    5.8555   -1.0143   -1.5164 O   0  0  0  0  0  0  0  0  0  0  0  0
    4.9034   -0.5459   -0.6157 C   0  0  0  0  0  0  0  0  0  0  0  0
    3.5877   -0.9191   -0.3161 C   0  0  0  0  0  0  0  0  0  0  0  0
   -1.9221    0.2124   -0.1116 O   0  0  0  0  0  0  0  0  0  0  0  0
   -7.6838   -0.5530    0.0174 H   0  0  0  0  0  0  0  0  0  0  0  0
   -7.7951    1.4474   -1.4278 H   0  0  0  0  0  0  0  0  0  0  0  0
   -5.7375    2.5558   -2.0172 H   0  0  0  0  0  0  0  0  0  0  0  0
   -3.5592    1.7188   -1.1991 H   0  0  0  0  0  0  0  0  0  0  0  0
   -3.2217   -1.8179    1.9664 H   0  0  0  0  0  0  0  0  0  0  0  0
    0.7016    0.7607   -0.5347 H   0  0  0  0  0  0  0  0  0  0  0  0
    1.2749   -0.4240    2.0565 H   0  0  0  0  0  0  0  0  0  0  0  0
    1.3207   -1.7278    0.8571 H   0  0  0  0  0  0  0  0  0  0  0  0
    2.9939    1.3597    2.0854 H   0  0  0  0  0  0  0  0  0  0  0  0
    5.2460    1.9681    1.5443 H   0  0  0  0  0  0  0  0  0  0  0  0
    7.6993   -1.1384   -0.4996 H   0  0  0  0  0  0  0  0  0  0  0  0
    7.7117   -0.1524   -2.0286 H   0  0  0  0  0  0  0  0  0  0  0  0
    3.1980   -1.7469   -0.8915 H   0  0  0  0  0  0  0  0  0  0  0  0
  1  2  1  0
  2  3  2  0
  3  4  1  0
  4  5  2  0
  5  6  1  0
  6  7  2  0
  7  8  1  0
  8  9  2  0
  9 10  1  0
 10 11  2  0
 11 12  1  0
 12 13  1  0
 13 14  1  0
 14 15  2  0
 15 16  1  0
 16 17  2  0
 17 18  1  0
 18 19  1  0
 19 20  1  0
 20 21  1  0
 21 22  2  0
 11 23  1  0
  7  2  1  0
 23  8  1  0
 22 14  1  0
 21 17  1  0
  3 24  1  0
  4 25  1  0
  5 26  1  0
  6 27  1  0
  9 28  1  0
 12 29  1  0
 13 30  1  0
 13 31  1  0
 15 32  1  0
 16 33  1  0
 19 34  1  0
 19 35  1  0
 22 36  1  0
M  END
$$$$
