[H]OC(=O)[C@@]([H])(N([H])C(=O)c1c([H])c([H])c(O[H])c([H])c1[H])C([H])([H])C([H])(C([H])([H])[H])C([H])([H])[H]
     RDKit          3D

 35 35  0  0  0  0  0  0  0  0999 V2000
   -2.9939    0.3655    1.5974 C   0  0  0  0  0  0  0  0  0  0  0  0
   -2.8235    0.7217    0.1445 C   0  0  0  0  0  0  0  0  0  0  0  0
   -1.7721    1.7638   -0.0253 C   0  0  0  0  0  0  0  0  0  0  0  0
   -2.6879   -0.4795   -0.7381 C   0  0  0  0  0  0  0  0  0  0  0  0
   -1.5370   -1.3776   -0.4507 C   0  0  2  0  0  0  0  0  0  0  0  0
   -0.2355   -0.7527   -0.5593 N   0  0  0  0  0  0  0  0  0  0  0  0
    0.6973   -0.7253    0.5026 C   0  0  0  0  0  0  0  0  0  0  0  0
    0.3702   -1.2715    1.5838 O   0  0  0  0  0  0  0  0  0  0  0  0
    1.9991   -0.0953    0.3821 C   0  0  0  0  0  0  0  0  0  0  0  0
    2.9014   -0.0860    1.4529 C   0  0  0  0  0  0  0  0  0  0  0  0
    4.1438    0.5055    1.3644 C   0  0  0  0  0  0  0  0  0  0  0  0
    4.5432    1.1158    0.2012 C   0  0  0  0  0  0  0  0  0  0  0  0
    5.8041    1.7113    0.1243 O   0  0  0  0  0  0  0  0  0  0  0  0
    3.6942    1.1272   -0.8608 C   0  0  0  0  0  0  0  0  0  0  0  0
    2.4431    0.5286   -0.7637 C   0  0  0  0  0  0  0  0  0  0  0  0
   -1.6476   -2.5352   -1.3934 C   0  0  0  0  0  0  0  0  0  0  0  0
   -2.7940   -3.2987   -1.4814 O   0  0  0  0  0  0  0  0  0  0  0  0
   -0.6783   -2.8288   -2.1284 O   0  0  0  0  0  0  0  0  0  0  0  0
   -2.3813   -0.4560    1.9559 H   0  0  0  0  0  0  0  0  0  0  0  0
   -4.0724    0.1096    1.8108 H   0  0  0  0  0  0  0  0  0  0  0  0
   -2.8030    1.2880    2.1854 H   0  0  0  0  0  0  0  0  0  0  0  0
   -3.8136    1.1925   -0.1498 H   0  0  0  0  0  0  0  0  0  0  0  0
   -1.2365    1.6685   -0.9844 H   0  0  0  0  0  0  0  0  0  0  0  0
   -2.2680    2.7646   -0.0660 H   0  0  0  0  0  0  0  0  0  0  0  0
   -1.1003    1.8199    0.8585 H   0  0  0  0  0  0  0  0  0  0  0  0
   -3.6149   -1.0989   -0.5465 H   0  0  0  0  0  0  0  0  0  0  0  0
   -2.7771   -0.2140   -1.8201 H   0  0  0  0  0  0  0  0  0  0  0  0
   -1.6418   -1.7628    0.5884 H   0  0  0  0  0  0  0  0  0  0  0  0
    0.0388   -0.2997   -1.4580 H   0  0  0  0  0  0  0  0  0  0  0  0
    2.5812   -0.5715    2.3752 H   0  0  0  0  0  0  0  0  0  0  0  0
    4.8392    0.5107    2.1948 H   0  0  0  0  0  0  0  0  0  0  0  0
    6.4259    1.6957    0.9216 H   0  0  0  0  0  0  0  0  0  0  0  0
    4.0144    1.6131   -1.7841 H   0  0  0  0  0  0  0  0  0  0  0  0
    1.8342    0.5820   -1.6474 H   0  0  0  0  0  0  0  0  0  0  0  0
   -3.4514   -3.2307   -0.6942 H   0  0  0  0  0  0  0  0  0  0  0  0
  1  2  1  0
  2  3  1  0
  2  4  1  0
  4  5  1  0
  5  6  1  0
  6  7  1  0
  7  8  2  0
  7  9  1  0
  9 10  2  0
 10 11  1  0
 11 12  2  0
 12 13  1  0
 12 14  1  0
 14 15  2  0
  5 16  1  0
 16 17  1  0
 16 18  2  0
 15  9  1  0
  1 19  1  0
  1 20  1  0
  1 21  1  0
  2 22  1  0
  3 23  1  0
  3 24  1  0
  3 25  1  0
  4 26  1  0
  4 27  1  0
  5 28  1  1
  6 29  1  0
 10 30  1  0
 11 31  1  0
 13 32  1  0
 14 33  1  0
 15 34  1  0
 17 35  1  0
M  END
$$$$
[H]c1nc(N([H])[C@]2([H])C([H])([H])C([H])([H])[C@@]([H])(N([H])C(=O)c3c([H])c([H])c([H])c([H])c3[H])C([H])([H])C2([H])[H])c2c(-c3c([H])c([H])c(N(C([H])([H])[H])C([H])([H])[H])c([H])c3[H])c([H])n([H])c2n1
     RDKit          3D

 64 68  0  0  0  0  0  0  0  0999 V2000
   -4.7832    3.4427   -0.2436 C   0  0  0  0  0  0  0  0  0  0  0  0
   -5.5652    2.2427   -0.2178 N   0  0  0  0  0  0  0  0  0  0  0  0
   -7.0085    2.3802   -0.4760 C   0  0  0  0  0  0  0  0  0  0  0  0
   -5.0521    0.9386    0.0394 C   0  0  0  0  0  0  0  0  0  0  0  0
   -4.5745    0.1609   -0.9916 C   0  0  0  0  0  0  0  0  0  0  0  0
   -4.0802   -1.1044   -0.7664 C   0  0  0  0  0  0  0  0  0  0  0  0
   -4.0330   -1.6747    0.5150 C   0  0  0  0  0  0  0  0  0  0  0  0
   -4.5204   -0.8698    1.5356 C   0  0  0  0  0  0  0  0  0  0  0  0
   -5.0153    0.3978    1.3091 C   0  0  0  0  0  0  0  0  0  0  0  0
   -3.5464   -3.0144    0.7655 C   0  0  0  0  0  0  0  0  0  0  0  0
   -4.3754   -4.1493    0.9086 C   0  0  0  0  0  0  0  0  0  0  0  0
   -3.6062   -5.2246    1.0690 N   0  0  0  0  0  0  0  0  0  0  0  0
   -2.3204   -4.8798    1.0430 C   0  0  0  0  0  0  0  0  0  0  0  0
   -1.2261   -5.6245    1.1608 N   0  0  0  0  0  0  0  0  0  0  0  0
   -0.0245   -5.0090    1.0960 C   0  0  0  0  0  0  0  0  0  0  0  0
    0.0673   -3.6890    0.9197 N   0  0  0  0  0  0  0  0  0  0  0  0
   -1.0302   -2.8813    0.7938 C   0  0  0  0  0  0  0  0  0  0  0  0
   -0.8743   -1.4940    0.6886 N   0  0  0  0  0  0  0  0  0  0  0  0
    0.5092   -0.9806    0.5759 C   0  0  1  0  0  0  0  0  0  0  0  0
    1.1646   -1.3174   -0.7124 C   0  0  0  0  0  0  0  0  0  0  0  0
    2.5906   -0.8059   -0.7886 C   0  0  0  0  0  0  0  0  0  0  0  0
    2.7264    0.6296   -0.3707 C   0  0  1  0  0  0  0  0  0  0  0  0
    2.0574    0.8778    0.9613 C   0  0  0  0  0  0  0  0  0  0  0  0
    0.5853    0.4957    0.7958 C   0  0  0  0  0  0  0  0  0  0  0  0
    4.1561    0.9595   -0.2380 N   0  0  0  0  0  0  0  0  0  0  0  0
    4.7365    2.0008   -0.9910 C   0  0  0  0  0  0  0  0  0  0  0  0
    4.0326    2.6557   -1.7835 O   0  0  0  0  0  0  0  0  0  0  0  0
    6.1400    2.3075   -0.8450 C   0  0  0  0  0  0  0  0  0  0  0  0
    6.9912    1.6506   -0.0005 C   0  0  0  0  0  0  0  0  0  0  0  0
    8.3392    1.9909    0.0978 C   0  0  0  0  0  0  0  0  0  0  0  0
    8.8333    3.0174   -0.6755 C   0  0  0  0  0  0  0  0  0  0  0  0
    8.0005    3.7058   -1.5429 C   0  0  0  0  0  0  0  0  0  0  0  0
    6.6873    3.3376   -1.6058 C   0  0  0  0  0  0  0  0  0  0  0  0
   -2.2651   -3.4889    0.8539 C   0  0  0  0  0  0  0  0  0  0  0  0
   -5.2030    4.0829   -1.0744 H   0  0  0  0  0  0  0  0  0  0  0  0
   -4.8743    4.0632    0.6753 H   0  0  0  0  0  0  0  0  0  0  0  0
   -3.7068    3.2592   -0.5162 H   0  0  0  0  0  0  0  0  0  0  0  0
   -7.5387    2.7661    0.4296 H   0  0  0  0  0  0  0  0  0  0  0  0
   -7.2003    3.0471   -1.3190 H   0  0  0  0  0  0  0  0  0  0  0  0
   -7.4583    1.3837   -0.7226 H   0  0  0  0  0  0  0  0  0  0  0  0
   -4.6053    0.5935   -1.9999 H   0  0  0  0  0  0  0  0  0  0  0  0
   -3.7014   -1.7233   -1.5777 H   0  0  0  0  0  0  0  0  0  0  0  0
   -4.4938   -1.2909    2.5374 H   0  0  0  0  0  0  0  0  0  0  0  0
   -5.3943    1.0176    2.1211 H   0  0  0  0  0  0  0  0  0  0  0  0
   -5.4568   -4.0684    0.8800 H   0  0  0  0  0  0  0  0  0  0  0  0
   -4.0286   -6.1948    1.1954 H   0  0  0  0  0  0  0  0  0  0  0  0
    0.8493   -5.6485    1.1953 H   0  0  0  0  0  0  0  0  0  0  0  0
   -1.5942   -0.7656    0.6987 H   0  0  0  0  0  0  0  0  0  0  0  0
    1.0425   -1.4879    1.4269 H   0  0  0  0  0  0  0  0  0  0  0  0
    1.2149   -2.3942   -0.9003 H   0  0  0  0  0  0  0  0  0  0  0  0
    0.6421   -0.8638   -1.5831 H   0  0  0  0  0  0  0  0  0  0  0  0
    2.9090   -0.8950   -1.8459 H   0  0  0  0  0  0  0  0  0  0  0  0
    3.2851   -1.4532   -0.1978 H   0  0  0  0  0  0  0  0  0  0  0  0
    2.2539    1.3022   -1.1111 H   0  0  0  0  0  0  0  0  0  0  0  0
    2.4699    0.2228    1.7450 H   0  0  0  0  0  0  0  0  0  0  0  0
    2.0918    1.9412    1.2319 H   0  0  0  0  0  0  0  0  0  0  0  0
    0.1190    1.0317   -0.0339 H   0  0  0  0  0  0  0  0  0  0  0  0
    0.0600    0.7159    1.7527 H   0  0  0  0  0  0  0  0  0  0  0  0
    4.6832    0.3757    0.4389 H   0  0  0  0  0  0  0  0  0  0  0  0
    6.6297    0.8436    0.6155 H   0  0  0  0  0  0  0  0  0  0  0  0
    9.0086    1.4519    0.7819 H   0  0  0  0  0  0  0  0  0  0  0  0
    9.8817    3.3089   -0.6233 H   0  0  0  0  0  0  0  0  0  0  0  0
    8.3541    4.5179   -2.1657 H   0  0  0  0  0  0  0  0  0  0  0  0
    6.0444    3.8765   -2.2823 H   0  0  0  0  0  0  0  0  0  0  0  0
  1  2  1  0
  2  3  1  0
  2  4  1  0
  4  5  2  0
  5  6  1  0
  6  7  2  0
  7  8  1  0
  8  9  2  0
  7 10  1  0
 10 11  2  0
 11 12  1  0
 12 13  1  0
 13 14  2  0
 14 15  1  0
 15 16  2  0
 16 17  1  0
 17 18  1  0
 18 19  1  0
 19 20  1  0
 20 21  1  0
 21 22  1  0
 22 23  1  0
 23 24  1  0
 22 25  1  0
 25 26  1  0
 26 27  2  0
 26 28  1  0
 28 29  2  0
 29 30  1  0
 30 31  2  0
 31 32  1  0
 32 33  2  0
 17 34  2  0
  9  4  1  0
 34 10  1  0
 34 13  1  0
 24 19  1  0
 33 28  1  0
  1 35  1  0
  1 36  1  0
  1 37  1  0
  3 38  1  0
  3 39  1  0
  3 40  1  0
  5 41  1  0
  6 42  1  0
  8 43  1  0
  9 44  1  0
 11 45  1  0
 12 46  1  0
 15 47  1  0
 18 48  1  0
 19 49  1  1
 20 50  1  0
 20 51  1  0
 21 52  1  0
 21 53  1  0
 22 54  1  6
 23 55  1  0
 23 56  1  0
 24 57  1  0
 24 58  1  0
 25 59  1  0
 29 60  1  0
 30 61  1  0
 31 62  1  0
 32 63  1  0
 33 64  1  0
M  END
$$$$
[H]c1c([H])c([H])c(N2C([H])([H])C([H])([H])[C@]([H])(N([H])C(=O)c3c([H])c([H])c(N([H])C(=O)c4c([H])c([H])c(OC([H])([H])[H])c([H])c4[H])c([H])c3[H])[C@@]([H])(c3c([H])c([H])c([H])c([H])c3[H])C2([H])[H])c([H])c1[H]
     RDKit          3D

 69 73  0  0  0  0  0  0  0  0999 V2000
   11.9906    2.3036    0.3215 C   0  0  0  0  0  0  0  0  0  0  0  0
   11.2981    1.0957    0.1108 O   0  0  0  0  0  0  0  0  0  0  0  0
    9.9230    1.0116    0.2054 C   0  0  0  0  0  0  0  0  0  0  0  0
    9.3160   -0.1980   -0.0130 C   0  0  0  0  0  0  0  0  0  0  0  0
    7.9231   -0.2871    0.0819 C   0  0  0  0  0  0  0  0  0  0  0  0
    7.1724    0.8294    0.3912 C   0  0  0  0  0  0  0  0  0  0  0  0
    7.7970    2.0399    0.6084 C   0  0  0  0  0  0  0  0  0  0  0  0
    9.1764    2.1091    0.5103 C   0  0  0  0  0  0  0  0  0  0  0  0
    5.6973    0.7966    0.4954 C   0  0  0  0  0  0  0  0  0  0  0  0
    5.1702    1.7374    1.1339 O   0  0  0  0  0  0  0  0  0  0  0  0
    4.9746   -0.2374   -0.0966 N   0  0  0  0  0  0  0  0  0  0  0  0
    3.5741   -0.4394   -0.0985 C   0  0  0  0  0  0  0  0  0  0  0  0
    3.0469   -1.4584   -0.9093 C   0  0  0  0  0  0  0  0  0  0  0  0
    1.7020   -1.7087   -0.9457 C   0  0  0  0  0  0  0  0  0  0  0  0
    0.7860   -0.9939   -0.2046 C   0  0  0  0  0  0  0  0  0  0  0  0
    1.2935    0.0048    0.5912 C   0  0  0  0  0  0  0  0  0  0  0  0
    2.6742    0.2637    0.6304 C   0  0  0  0  0  0  0  0  0  0  0  0
   -0.6406   -1.2926   -0.2715 C   0  0  0  0  0  0  0  0  0  0  0  0
   -1.0216   -2.2065   -1.0706 O   0  0  0  0  0  0  0  0  0  0  0  0
   -1.6391   -0.6481    0.4813 N   0  0  0  0  0  0  0  0  0  0  0  0
   -3.0416   -0.9605    0.3979 C   0  0  1  0  0  0  0  0  0  0  0  0
   -3.5720   -1.4589    1.7287 C   0  0  0  0  0  0  0  0  0  0  0  0
   -5.0355   -1.6682    1.7082 C   0  0  0  0  0  0  0  0  0  0  0  0
   -5.7458   -1.1260    0.5716 N   0  0  0  0  0  0  0  0  0  0  0  0
   -5.1979   -0.2171   -0.4057 C   0  0  0  0  0  0  0  0  0  0  0  0
   -3.8676    0.2807    0.0935 C   0  0  2  0  0  0  0  0  0  0  0  0
   -3.1944    1.1784   -0.8485 C   0  0  0  0  0  0  0  0  0  0  0  0
   -2.9119    2.4697   -0.4646 C   0  0  0  0  0  0  0  0  0  0  0  0
   -2.2768    3.3675   -1.3041 C   0  0  0  0  0  0  0  0  0  0  0  0
   -1.9161    2.9694   -2.5523 C   0  0  0  0  0  0  0  0  0  0  0  0
   -2.1829    1.6869   -2.9690 C   0  0  0  0  0  0  0  0  0  0  0  0
   -2.8258    0.7848   -2.1133 C   0  0  0  0  0  0  0  0  0  0  0  0
   -7.1043   -1.5394    0.4277 C   0  0  0  0  0  0  0  0  0  0  0  0
   -7.8069   -1.1143   -0.6711 C   0  0  0  0  0  0  0  0  0  0  0  0
   -9.1340   -1.5006   -0.8370 C   0  0  0  0  0  0  0  0  0  0  0  0
   -9.7811   -2.3075    0.0750 C   0  0  0  0  0  0  0  0  0  0  0  0
   -9.0709   -2.7300    1.1741 C   0  0  0  0  0  0  0  0  0  0  0  0
   -7.7471   -2.3452    1.3406 C   0  0  0  0  0  0  0  0  0  0  0  0
   13.0618    2.0240    0.5002 H   0  0  0  0  0  0  0  0  0  0  0  0
   11.9362    2.9915   -0.5257 H   0  0  0  0  0  0  0  0  0  0  0  0
   11.6683    2.8053    1.2722 H   0  0  0  0  0  0  0  0  0  0  0  0
    9.8673   -1.0769   -0.2531 H   0  0  0  0  0  0  0  0  0  0  0  0
    7.4611   -1.2337   -0.0855 H   0  0  0  0  0  0  0  0  0  0  0  0
    7.2583    2.9357    0.8518 H   0  0  0  0  0  0  0  0  0  0  0  0
    9.6771    3.0383    0.6753 H   0  0  0  0  0  0  0  0  0  0  0  0
    5.5684   -0.9664   -0.6152 H   0  0  0  0  0  0  0  0  0  0  0  0
    3.7507   -2.0428   -1.5099 H   0  0  0  0  0  0  0  0  0  0  0  0
    1.3019   -2.5102   -1.5851 H   0  0  0  0  0  0  0  0  0  0  0  0
    0.6117    0.5947    1.1929 H   0  0  0  0  0  0  0  0  0  0  0  0
    2.9942    1.0563    1.2814 H   0  0  0  0  0  0  0  0  0  0  0  0
   -1.3428    0.1090    1.1463 H   0  0  0  0  0  0  0  0  0  0  0  0
   -3.2587   -1.7473   -0.3365 H   0  0  0  0  0  0  0  0  0  0  0  0
   -3.0567   -2.3557    2.0799 H   0  0  0  0  0  0  0  0  0  0  0  0
   -3.3140   -0.6406    2.4645 H   0  0  0  0  0  0  0  0  0  0  0  0
   -5.4822   -1.2186    2.6245 H   0  0  0  0  0  0  0  0  0  0  0  0
   -5.2409   -2.7747    1.8181 H   0  0  0  0  0  0  0  0  0  0  0  0
   -5.0660   -0.7327   -1.3999 H   0  0  0  0  0  0  0  0  0  0  0  0
   -5.9056    0.6252   -0.5721 H   0  0  0  0  0  0  0  0  0  0  0  0
   -4.0793    0.7939    1.0741 H   0  0  0  0  0  0  0  0  0  0  0  0
   -3.1764    2.8479    0.5242 H   0  0  0  0  0  0  0  0  0  0  0  0
   -2.0698    4.3727   -0.9726 H   0  0  0  0  0  0  0  0  0  0  0  0
   -1.4134    3.7012   -3.1968 H   0  0  0  0  0  0  0  0  0  0  0  0
   -1.8781    1.4135   -3.9696 H   0  0  0  0  0  0  0  0  0  0  0  0
   -3.0216   -0.2221   -2.4746 H   0  0  0  0  0  0  0  0  0  0  0  0
   -7.3706   -0.4699   -1.4493 H   0  0  0  0  0  0  0  0  0  0  0  0
   -9.6477   -1.1450   -1.7131 H   0  0  0  0  0  0  0  0  0  0  0  0
  -10.8308   -2.6018   -0.0747 H   0  0  0  0  0  0  0  0  0  0  0  0
   -9.5767   -3.3617    1.8882 H   0  0  0  0  0  0  0  0  0  0  0  0
   -7.2272   -2.6998    2.2193 H   0  0  0  0  0  0  0  0  0  0  0  0
  1  2  1  0
  2  3  1  0
  3  4  2  0
  4  5  1  0
  5  6  2  0
  6  7  1  0
  7  8  2  0
  6  9  1  0
  9 10  2  0
  9 11  1  0
 11 12  1  0
 12 13  2  0
 13 14  1  0
 14 15  2  0
 15 16  1  0
 16 17  2  0
 15 18  1  0
 18 19  2  0
 18 20  1  0
 20 21  1  0
 21 22  1  0
 22 23  1  0
 23 24  1  0
 24 25  1  0
 25 26  1  0
 26 27  1  0
 27 28  2  0
 28 29  1  0
 29 30  2  0
 30 31  1  0
 31 32  2  0
 24 33  1  0
 33 34  2  0
 34 35  1  0
 35 36  2  0
 36 37  1  0
 37 38  2  0
  8  3  1  0
 17 12  1  0
 26 21  1  0
 32 27  1  0
 38 33  1  0
  1 39  1  0
  1 40  1  0
  1 41  1  0
  4 42  1  0
  5 43  1  0
  7 44  1  0
  8 45  1  0
 11 46  1  0
 13 47  1  0
 14 48  1  0
 16 49  1  0
 17 50  1  0
 20 51  1  0
 21 52  1  6
 22 53  1  0
 22 54  1  0
 23 55  1  0
 23 56  1  0
 25 57  1  0
 25 58  1  0
 26 59  1  1
 28 60  1  0
 29 61  1  0
 30 62  1  0
 31 63  1  0
 32 64  1  0
 34 65  1  0
 35 66  1  0
 36 67  1  0
 37 68  1  0
 38 69  1  0
M  END
$$$$
[H]c1c([H])c(-c2c([H])c([H])c(S(=O)(=O)C([H])([H])[H])c([H])c2[H])c([H])c([H])c1C(=O)N([H])[C@]([H])(C(=O)N1C([H])([H])C([H])([H])OC([H])([H])C1([H])[H])C([H])(C([H])([H])[H])C([H])([H])[H]
     RDKit          3D

 59 61  0  0  0  0  0  0  0  0999 V2000
   -2.7846   -3.1102   -0.6633 C   0  0  0  0  0  0  0  0  0  0  0  0
   -3.3618   -1.9358   -1.3785 C   0  0  0  0  0  0  0  0  0  0  0  0
   -4.6489   -2.1614   -2.0706 C   0  0  0  0  0  0  0  0  0  0  0  0
   -3.2793   -0.7183   -0.4707 C   0  0  2  0  0  0  0  0  0  0  0  0
   -1.7866   -0.6073   -0.2735 N   0  0  0  0  0  0  0  0  0  0  0  0
   -1.0939    0.4706   -0.8161 C   0  0  0  0  0  0  0  0  0  0  0  0
   -1.7380    1.3402   -1.4675 O   0  0  0  0  0  0  0  0  0  0  0  0
    0.3482    0.5728   -0.6233 C   0  0  0  0  0  0  0  0  0  0  0  0
    1.0421    1.6479   -1.1855 C   0  0  0  0  0  0  0  0  0  0  0  0
    2.4054    1.7847   -1.0286 C   0  0  0  0  0  0  0  0  0  0  0  0
    3.1542    0.8737   -0.3126 C   0  0  0  0  0  0  0  0  0  0  0  0
    2.4798   -0.1897    0.2459 C   0  0  0  0  0  0  0  0  0  0  0  0
    1.0958   -0.3325    0.0890 C   0  0  0  0  0  0  0  0  0  0  0  0
    4.6001    1.0491   -0.1655 C   0  0  0  0  0  0  0  0  0  0  0  0
    5.4608   -0.0195   -0.0511 C   0  0  0  0  0  0  0  0  0  0  0  0
    6.8169    0.1515    0.0872 C   0  0  0  0  0  0  0  0  0  0  0  0
    7.3580    1.4235    0.1154 C   0  0  0  0  0  0  0  0  0  0  0  0
    6.4845    2.4752    0.0001 C   0  0  0  0  0  0  0  0  0  0  0  0
    5.1175    2.3271   -0.1401 C   0  0  0  0  0  0  0  0  0  0  0  0
    9.0988    1.6695    0.2928 S   0  0  0  0  0  0  0  0  0  0  0  0
    9.7994    1.7137   -1.3290 C   0  0  0  0  0  0  0  0  0  0  0  0
    9.3471    2.9370    1.0423 O   0  0  0  0  0  0  0  0  0  0  0  0
    9.6503    0.5129    1.0745 O   0  0  0  0  0  0  0  0  0  0  0  0
   -3.8739   -0.8957    0.8516 C   0  0  0  0  0  0  0  0  0  0  0  0
   -3.0868   -1.1628    1.8291 O   0  0  0  0  0  0  0  0  0  0  0  0
   -5.2260   -0.7959    1.1507 N   0  0  0  0  0  0  0  0  0  0  0  0
   -6.3251   -0.4607    0.2735 C   0  0  0  0  0  0  0  0  0  0  0  0
   -7.3203    0.2880    1.1801 C   0  0  0  0  0  0  0  0  0  0  0  0
   -6.6597    1.0507    2.1322 O   0  0  0  0  0  0  0  0  0  0  0  0
   -5.9773    0.3365    3.0834 C   0  0  0  0  0  0  0  0  0  0  0  0
   -5.6752   -1.0536    2.5455 C   0  0  0  0  0  0  0  0  0  0  0  0
   -3.1533   -4.0236   -1.2168 H   0  0  0  0  0  0  0  0  0  0  0  0
   -1.6792   -3.0895   -0.7217 H   0  0  0  0  0  0  0  0  0  0  0  0
   -3.1559   -3.1316    0.3838 H   0  0  0  0  0  0  0  0  0  0  0  0
   -2.5810   -1.6873   -2.1917 H   0  0  0  0  0  0  0  0  0  0  0  0
   -5.1425   -1.2739   -2.4570 H   0  0  0  0  0  0  0  0  0  0  0  0
   -4.4432   -2.7873   -3.0044 H   0  0  0  0  0  0  0  0  0  0  0  0
   -5.2861   -2.8338   -1.4442 H   0  0  0  0  0  0  0  0  0  0  0  0
   -3.6237    0.1765   -1.0117 H   0  0  0  0  0  0  0  0  0  0  0  0
   -1.3662   -1.3589    0.2695 H   0  0  0  0  0  0  0  0  0  0  0  0
    0.4383    2.3575   -1.7478 H   0  0  0  0  0  0  0  0  0  0  0  0
    2.9235    2.6391   -1.4812 H   0  0  0  0  0  0  0  0  0  0  0  0
    3.0570   -0.9111    0.8097 H   0  0  0  0  0  0  0  0  0  0  0  0
    0.6152   -1.1854    0.5472 H   0  0  0  0  0  0  0  0  0  0  0  0
    5.0167   -1.0247   -0.0754 H   0  0  0  0  0  0  0  0  0  0  0  0
    7.4765   -0.7162    0.1757 H   0  0  0  0  0  0  0  0  0  0  0  0
    6.8889    3.4787    0.0193 H   0  0  0  0  0  0  0  0  0  0  0  0
    4.4446    3.1630   -0.2302 H   0  0  0  0  0  0  0  0  0  0  0  0
   10.4212    2.6299   -1.4220 H   0  0  0  0  0  0  0  0  0  0  0  0
    9.0288    1.7312   -2.1210 H   0  0  0  0  0  0  0  0  0  0  0  0
   10.4283    0.8256   -1.5156 H   0  0  0  0  0  0  0  0  0  0  0  0
   -6.8518   -1.3728   -0.0426 H   0  0  0  0  0  0  0  0  0  0  0  0
   -6.0127    0.2015   -0.5618 H   0  0  0  0  0  0  0  0  0  0  0  0
   -7.9951   -0.4564    1.6122 H   0  0  0  0  0  0  0  0  0  0  0  0
   -7.8941    0.9647    0.5255 H   0  0  0  0  0  0  0  0  0  0  0  0
   -6.4981    0.2969    4.0619 H   0  0  0  0  0  0  0  0  0  0  0  0
   -4.9673    0.8374    3.1819 H   0  0  0  0  0  0  0  0  0  0  0  0
   -6.6203   -1.6434    2.5284 H   0  0  0  0  0  0  0  0  0  0  0  0
   -4.8903   -1.5751    3.1127 H   0  0  0  0  0  0  0  0  0  0  0  0
  1  2  1  0
  2  3  1  0
  2  4  1  0
  4  5  1  0
  5  6  1  0
  6  7  2  0
  6  8  1  0
  8  9  2  0
  9 10  1  0
 10 11  2  0
 11 12  1  0
 12 13  2  0
 11 14  1  0
 14 15  2  0
 15 16  1  0
 16 17  2  0
 17 18  1  0
 18 19  2  0
 17 20  1  0
 20 21  1  0
 20 22  2  0
 20 23  2  0
  4 24  1  0
 24 25  2  0
 24 26  1  0
 26 27  1  0
 27 28  1  0
 28 29  1  0
 29 30  1  0
 30 31  1  0
 13  8  1  0
 19 14  1  0
 31 26  1  0
  1 32  1  0
  1 33  1  0
  1 34  1  0
  2 35  1  0
  3 36  1  0
  3 37  1  0
  3 38  1  0
  4 39  1  6
  5 40  1  0
  9 41  1  0
 10 42  1  0
 12 43  1  0
 13 44  1  0
 15 45  1  0
 16 46  1  0
 18 47  1  0
 19 48  1  0
 21 49  1  0
 21 50  1  0
 21 51  1  0
 27 52  1  0
 27 53  1  0
 28 54  1  0
 28 55  1  0
 30 56  1  0
 30 57  1  0
 31 58  1  0
 31 59  1  0
M  END
$$$$
[H]N=C(N([H])[H])N([H])C([H])([H])C([H])([H])C([H])([H])[C@@]([H])(C(=O)N([H])[C@]([H])(C(=O)N([H])[C@]([H])(C(=O)N([H])[H])C([H])([H])c1c([H])c([H])c([H])c([H])c1[H])C([H])([H])c1c([H])c([H])c([H])c([H])c1[H])N([H])C(=O)[C@@]([H])(N([H])C(=O)[C@@]([H])(N([H])C(=O)OC(C([H])([H])[H])(C([H])([H])[H])C([H])([H])[H])C([H])([H])c1c([H])c([H])c([H])c([H])c1[H])C([H])([H])c1c([H])c([H])c([H])c([H])c1[H]
     RDKit          3D

122125  0  0  0  0  0  0  0  0999 V2000
   -9.4308    2.5718   -2.7498 C   0  0  0  0  0  0  0  0  0  0  0  0
   -8.2437    3.3015   -2.0929 C   0  0  0  0  0  0  0  0  0  0  0  0
   -8.8001    4.5313   -1.4223 C   0  0  0  0  0  0  0  0  0  0  0  0
   -7.3802    3.7446   -3.2513 C   0  0  0  0  0  0  0  0  0  0  0  0
   -7.6271    2.4574   -1.1953 O   0  0  0  0  0  0  0  0  0  0  0  0
   -6.5374    2.8451   -0.3576 C   0  0  0  0  0  0  0  0  0  0  0  0
   -6.2779    4.0907   -0.5716 O   0  0  0  0  0  0  0  0  0  0  0  0
   -5.9331    2.0122    0.4849 N   0  0  0  0  0  0  0  0  0  0  0  0
   -5.2854    1.1396    1.3811 C   0  0  1  0  0  0  0  0  0  0  0  0
   -6.0603   -0.0066    1.9156 C   0  0  0  0  0  0  0  0  0  0  0  0
   -6.6286   -0.9580    0.9620 C   0  0  0  0  0  0  0  0  0  0  0  0
   -5.9899   -2.0667    0.4817 C   0  0  0  0  0  0  0  0  0  0  0  0
   -6.5783   -2.9368   -0.3764 C   0  0  0  0  0  0  0  0  0  0  0  0
   -7.8728   -2.7420   -0.8230 C   0  0  0  0  0  0  0  0  0  0  0  0
   -8.5585   -1.6158   -0.3540 C   0  0  0  0  0  0  0  0  0  0  0  0
   -7.9454   -0.7573    0.5130 C   0  0  0  0  0  0  0  0  0  0  0  0
   -3.8809    0.8935    0.9797 C   0  0  0  0  0  0  0  0  0  0  0  0
   -3.3852    1.6853    0.0773 O   0  0  0  0  0  0  0  0  0  0  0  0
   -2.9742   -0.1045    1.4674 N   0  0  0  0  0  0  0  0  0  0  0  0
   -1.6500   -0.0275    0.9351 C   0  0  1  0  0  0  0  0  0  0  0  0
   -0.8621    0.8388    2.0508 C   0  0  0  0  0  0  0  0  0  0  0  0
   -0.9073    0.1203    3.3244 C   0  0  0  0  0  0  0  0  0  0  0  0
   -1.8946    0.1997    4.2655 C   0  0  0  0  0  0  0  0  0  0  0  0
   -1.9493   -0.5046    5.4382 C   0  0  0  0  0  0  0  0  0  0  0  0
   -0.9112   -1.3841    5.7209 C   0  0  0  0  0  0  0  0  0  0  0  0
    0.0987   -1.4975    4.8178 C   0  0  0  0  0  0  0  0  0  0  0  0
    0.1334   -0.7718    3.6295 C   0  0  0  0  0  0  0  0  0  0  0  0
   -0.7905   -1.1852    0.7359 C   0  0  0  0  0  0  0  0  0  0  0  0
   -0.8887   -2.3156    1.2557 O   0  0  0  0  0  0  0  0  0  0  0  0
    0.3350   -0.9868   -0.1631 N   0  0  0  0  0  0  0  0  0  0  0  0
    1.3697   -1.9355   -0.3508 C   0  0  1  0  0  0  0  0  0  0  0  0
    0.9008   -3.1450   -1.0829 C   0  0  0  0  0  0  0  0  0  0  0  0
    0.3208   -2.9071   -2.4338 C   0  0  0  0  0  0  0  0  0  0  0  0
   -0.0266   -4.2971   -2.9854 C   0  0  0  0  0  0  0  0  0  0  0  0
   -0.5985   -4.2243   -4.3076 N   0  0  0  0  0  0  0  0  0  0  0  0
   -0.8383   -5.4812   -4.9850 C   0  0  0  0  0  0  0  0  0  0  0  0
   -2.0333   -6.1823   -4.5902 N   0  0  0  0  0  0  0  0  0  0  0  0
   -0.0990   -5.9517   -5.8376 N   0  0  0  0  0  0  0  0  0  0  0  0
    2.5263   -1.2551   -1.0438 C   0  0  0  0  0  0  0  0  0  0  0  0
    2.2948   -0.7247   -2.1632 O   0  0  0  0  0  0  0  0  0  0  0  0
    3.7892   -1.1974   -0.4513 N   0  0  0  0  0  0  0  0  0  0  0  0
    5.0189   -0.6136   -0.8472 C   0  0  1  0  0  0  0  0  0  0  0  0
    5.1586    0.8703   -0.6659 C   0  0  0  0  0  0  0  0  0  0  0  0
    4.2160    1.7267   -1.4072 C   0  0  0  0  0  0  0  0  0  0  0  0
    3.0584    2.2819   -0.8908 C   0  0  0  0  0  0  0  0  0  0  0  0
    2.2475    3.0866   -1.6760 C   0  0  0  0  0  0  0  0  0  0  0  0
    2.5493    3.3719   -2.9980 C   0  0  0  0  0  0  0  0  0  0  0  0
    3.6911    2.8257   -3.5099 C   0  0  0  0  0  0  0  0  0  0  0  0
    4.5044    2.0254   -2.7440 C   0  0  0  0  0  0  0  0  0  0  0  0
    6.1663   -1.2515   -0.0619 C   0  0  0  0  0  0  0  0  0  0  0  0
    6.2126   -2.4906   -0.0018 O   0  0  0  0  0  0  0  0  0  0  0  0
    7.1265   -0.4491    0.5801 N   0  0  0  0  0  0  0  0  0  0  0  0
    8.2555   -0.8822    1.3650 C   0  0  1  0  0  0  0  0  0  0  0  0
    9.4230    0.0809    1.3583 C   0  0  0  0  0  0  0  0  0  0  0  0
    9.0652    1.4349    1.8390 C   0  0  0  0  0  0  0  0  0  0  0  0
    9.0839    1.8130    3.1500 C   0  0  0  0  0  0  0  0  0  0  0  0
    8.7470    3.1170    3.5652 C   0  0  0  0  0  0  0  0  0  0  0  0
    8.3847    4.0634    2.6314 C   0  0  0  0  0  0  0  0  0  0  0  0
    8.3622    3.7044    1.3189 C   0  0  0  0  0  0  0  0  0  0  0  0
    8.6901    2.4392    0.9333 C   0  0  0  0  0  0  0  0  0  0  0  0
    7.8027   -1.2136    2.7610 C   0  0  0  0  0  0  0  0  0  0  0  0
    8.7166   -1.7408    3.7075 N   0  0  0  0  0  0  0  0  0  0  0  0
    6.6030   -1.0385    3.1373 O   0  0  0  0  0  0  0  0  0  0  0  0
   -9.2225    1.5159   -2.8922 H   0  0  0  0  0  0  0  0  0  0  0  0
   -9.7518    3.0905   -3.6431 H   0  0  0  0  0  0  0  0  0  0  0  0
  -10.2568    2.6739   -2.0214 H   0  0  0  0  0  0  0  0  0  0  0  0
   -9.7566    4.7910   -1.9151 H   0  0  0  0  0  0  0  0  0  0  0  0
   -8.8858    4.4150   -0.3051 H   0  0  0  0  0  0  0  0  0  0  0  0
   -8.1418    5.4136   -1.6886 H   0  0  0  0  0  0  0  0  0  0  0  0
   -8.1185    4.1246   -4.0353 H   0  0  0  0  0  0  0  0  0  0  0  0
   -6.8610    2.9063   -3.7695 H   0  0  0  0  0  0  0  0  0  0  0  0
   -6.7398    4.6028   -3.0613 H   0  0  0  0  0  0  0  0  0  0  0  0
   -5.0305    2.9945    0.8351 H   0  0  0  0  0  0  0  0  0  0  0  0
   -5.1172    1.7884    2.3779 H   0  0  0  0  0  0  0  0  0  0  0  0
   -6.8780    0.3610    2.6140 H   0  0  0  0  0  0  0  0  0  0  0  0
   -5.4256   -0.6209    2.6448 H   0  0  0  0  0  0  0  0  0  0  0  0
   -4.9670   -2.2998    0.7897 H   0  0  0  0  0  0  0  0  0  0  0  0
   -6.0669   -3.8436   -0.7700 H   0  0  0  0  0  0  0  0  0  0  0  0
   -8.3748   -3.4175   -1.5060 H   0  0  0  0  0  0  0  0  0  0  0  0
   -9.5788   -1.4964   -0.7235 H   0  0  0  0  0  0  0  0  0  0  0  0
   -8.5049    0.0995    0.8575 H   0  0  0  0  0  0  0  0  0  0  0  0
   -3.2556   -0.8558    2.1520 H   0  0  0  0  0  0  0  0  0  0  0  0
   -1.5981    0.6661    0.0941 H   0  0  0  0  0  0  0  0  0  0  0  0
    0.1180    0.9352    1.6414 H   0  0  0  0  0  0  0  0  0  0  0  0
   -1.4095    1.7852    2.0317 H   0  0  0  0  0  0  0  0  0  0  0  0
   -2.7372    0.8780    4.0871 H   0  0  0  0  0  0  0  0  0  0  0  0
   -2.7704   -0.3651    6.1233 H   0  0  0  0  0  0  0  0  0  0  0  0
   -0.9105   -1.9617    6.6728 H   0  0  0  0  0  0  0  0  0  0  0  0
    0.9057   -2.2073    5.0898 H   0  0  0  0  0  0  0  0  0  0  0  0
    0.9819   -0.9411    2.9809 H   0  0  0  0  0  0  0  0  0  0  0  0
    0.3658   -0.0451   -0.7036 H   0  0  0  0  0  0  0  0  0  0  0  0
    1.7325   -2.3339    0.6407 H   0  0  0  0  0  0  0  0  0  0  0  0
    1.8193   -3.8294   -1.1705 H   0  0  0  0  0  0  0  0  0  0  0  0
    0.1603   -3.6958   -0.4414 H   0  0  0  0  0  0  0  0  0  0  0  0
   -0.5867   -2.2758   -2.3542 H   0  0  0  0  0  0  0  0  0  0  0  0
    1.0287   -2.4541   -3.1138 H   0  0  0  0  0  0  0  0  0  0  0  0
    0.9527   -4.8648   -3.0560 H   0  0  0  0  0  0  0  0  0  0  0  0
   -0.6795   -4.8716   -2.3153 H   0  0  0  0  0  0  0  0  0  0  0  0
   -0.8338   -3.3190   -4.7447 H   0  0  0  0  0  0  0  0  0  0  0  0
   -2.9264   -5.8902   -4.9623 H   0  0  0  0  0  0  0  0  0  0  0  0
   -1.9470   -6.9684   -3.9221 H   0  0  0  0  0  0  0  0  0  0  0  0
    0.7605   -5.6537   -6.2583 H   0  0  0  0  0  0  0  0  0  0  0  0
    3.8390   -1.7019    0.5208 H   0  0  0  0  0  0  0  0  0  0  0  0
    5.1841   -0.7509   -1.9657 H   0  0  0  0  0  0  0  0  0  0  0  0
    6.1880    1.1764   -1.0668 H   0  0  0  0  0  0  0  0  0  0  0  0
    5.0774    1.1265    0.4265 H   0  0  0  0  0  0  0  0  0  0  0  0
    2.8365    2.0558    0.1259 H   0  0  0  0  0  0  0  0  0  0  0  0
    1.3425    3.4840   -1.1764 H   0  0  0  0  0  0  0  0  0  0  0  0
    1.8657    4.0096   -3.5552 H   0  0  0  0  0  0  0  0  0  0  0  0
    3.9725    3.0320   -4.5498 H   0  0  0  0  0  0  0  0  0  0  0  0
    5.4209    1.5939   -3.1661 H   0  0  0  0  0  0  0  0  0  0  0  0
    7.0060    0.5814    0.4964 H   0  0  0  0  0  0  0  0  0  0  0  0
    8.5885   -1.8724    0.9667 H   0  0  0  0  0  0  0  0  0  0  0  0
    9.8088    0.1386    0.3179 H   0  0  0  0  0  0  0  0  0  0  0  0
   10.2289   -0.3727    1.9392 H   0  0  0  0  0  0  0  0  0  0  0  0
    9.3716    1.1060    3.9063 H   0  0  0  0  0  0  0  0  0  0  0  0
    8.7656    3.3843    4.5984 H   0  0  0  0  0  0  0  0  0  0  0  0
    8.1226    5.0753    2.9609 H   0  0  0  0  0  0  0  0  0  0  0  0
    8.0984    4.4146    0.5613 H   0  0  0  0  0  0  0  0  0  0  0  0
    8.6760    2.1700   -0.1279 H   0  0  0  0  0  0  0  0  0  0  0  0
    9.7104   -1.4435    3.7469 H   0  0  0  0  0  0  0  0  0  0  0  0
    8.3908   -2.4690    4.3889 H   0  0  0  0  0  0  0  0  0  0  0  0
  1  2  1  0
  2  3  1  0
  2  4  1  0
  2  5  1  0
  5  6  1  0
  6  7  2  0
  6  8  1  0
  8  9  1  0
  9 10  1  0
 10 11  1  0
 11 12  2  0
 12 13  1  0
 13 14  2  0
 14 15  1  0
 15 16  2  0
  9 17  1  0
 17 18  2  0
 17 19  1  0
 19 20  1  0
 20 21  1  0
 21 22  1  0
 22 23  2  0
 23 24  1  0
 24 25  2  0
 25 26  1  0
 26 27  2  0
 20 28  1  0
 28 29  2  0
 28 30  1  0
 30 31  1  0
 31 32  1  0
 32 33  1  0
 33 34  1  0
 34 35  1  0
 35 36  1  0
 36 37  1  0
 36 38  2  3
 31 39  1  0
 39 40  2  0
 39 41  1  0
 41 42  1  0
 42 43  1  0
 43 44  1  0
 44 45  2  0
 45 46  1  0
 46 47  2  0
 47 48  1  0
 48 49  2  0
 42 50  1  0
 50 51  2  0
 50 52  1  0
 52 53  1  0
 53 54  1  0
 54 55  1  0
 55 56  2  0
 56 57  1  0
 57 58  2  0
 58 59  1  0
 59 60  2  0
 53 61  1  0
 61 62  1  0
 61 63  2  0
 16 11  1  0
 27 22  1  0
 49 44  1  0
 60 55  1  0
  1 64  1  0
  1 65  1  0
  1 66  1  0
  3 67  1  0
  3 68  1  0
  3 69  1  0
  4 70  1  0
  4 71  1  0
  4 72  1  0
  8 73  1  0
  9 74  1  1
 10 75  1  0
 10 76  1  0
 12 77  1  0
 13 78  1  0
 14 79  1  0
 15 80  1  0
 16 81  1  0
 19 82  1  0
 20 83  1  6
 21 84  1  0
 21 85  1  0
 23 86  1  0
 24 87  1  0
 25 88  1  0
 26 89  1  0
 27 90  1  0
 30 91  1  0
 31 92  1  1
 32 93  1  0
 32 94  1  0
 33 95  1  0
 33 96  1  0
 34 97  1  0
 34 98  1  0
 35 99  1  0
 37100  1  0
 37101  1  0
 38102  1  0
 41103  1  0
 42104  1  6
 43105  1  0
 43106  1  0
 45107  1  0
 46108  1  0
 47109  1  0
 48110  1  0
 49111  1  0
 52112  1  0
 53113  1  6
 54114  1  0
 54115  1  0
 56116  1  0
 57117  1  0
 58118  1  0
 59119  1  0
 60120  1  0
 62121  1  0
 62122  1  0
M  END
$$$$
[H]c1nc(N([H])c2c([H])c([H])c(N3C([H])([H])C([H])([H])C(C([H])([H])[H])(C([H])([H])[H])C([H])([H])C3([H])[H])c([H])c2OC([H])([H])[H])nc(N([H])c2c([H])c([H])c([H])c([H])c2S(=O)(=O)C([H])(C([H])([H])[H])C([H])([H])[H])c1Cl
     RDKit          3D

 71 74  0  0  0  0  0  0  0  0999 V2000
    1.9944   -3.7904    0.5854 C   0  0  0  0  0  0  0  0  0  0  0  0
    1.2278   -2.7107    0.1386 O   0  0  0  0  0  0  0  0  0  0  0  0
    1.8521   -1.5385   -0.2350 C   0  0  0  0  0  0  0  0  0  0  0  0
    3.2190   -1.4345   -0.1681 C   0  0  0  0  0  0  0  0  0  0  0  0
    3.9146   -0.2883   -0.5267 C   0  0  0  0  0  0  0  0  0  0  0  0
    3.1447    0.7558   -0.9606 C   0  0  0  0  0  0  0  0  0  0  0  0
    1.7440    0.6537   -1.0311 C   0  0  0  0  0  0  0  0  0  0  0  0
    1.0600   -0.4700   -0.6796 C   0  0  0  0  0  0  0  0  0  0  0  0
   -0.3188   -0.6803   -0.7095 N   0  0  0  0  0  0  0  0  0  0  0  0
   -1.3023    0.2466   -1.1182 C   0  0  0  0  0  0  0  0  0  0  0  0
   -1.0645    1.4886   -1.5468 N   0  0  0  0  0  0  0  0  0  0  0  0
   -2.0232    2.3225   -1.9207 C   0  0  0  0  0  0  0  0  0  0  0  0
   -3.3413    1.9438   -1.8860 C   0  0  0  0  0  0  0  0  0  0  0  0
   -4.6232    3.0142   -2.3829 Cl  0  0  0  0  0  0  0  0  0  0  0  0
   -3.6291    0.6314   -1.4355 C   0  0  0  0  0  0  0  0  0  0  0  0
   -4.9895    0.2657   -1.3576 N   0  0  0  0  0  0  0  0  0  0  0  0
   -5.5057   -0.9834   -1.0027 C   0  0  0  0  0  0  0  0  0  0  0  0
   -4.7086   -2.1166   -1.1747 C   0  0  0  0  0  0  0  0  0  0  0  0
   -5.2495   -3.3642   -0.9514 C   0  0  0  0  0  0  0  0  0  0  0  0
   -6.5465   -3.5462   -0.5655 C   0  0  0  0  0  0  0  0  0  0  0  0
   -7.3178   -2.4335   -0.3991 C   0  0  0  0  0  0  0  0  0  0  0  0
   -6.8174   -1.1421   -0.6106 C   0  0  0  0  0  0  0  0  0  0  0  0
   -7.8588    0.2064   -0.2546 S   0  0  0  0  0  0  0  0  0  0  0  0
   -7.9605    1.2063   -1.3775 O   0  0  0  0  0  0  0  0  0  0  0  0
   -9.3083   -0.3468   -0.1375 O   0  0  0  0  0  0  0  0  0  0  0  0
   -7.4599    1.0523    1.2295 C   0  0  0  0  0  0  0  0  0  0  0  0
   -8.6147    2.0679    1.4515 C   0  0  0  0  0  0  0  0  0  0  0  0
   -6.2109    1.8398    1.2567 C   0  0  0  0  0  0  0  0  0  0  0  0
   -2.6081   -0.1147   -1.0885 N   0  0  0  0  0  0  0  0  0  0  0  0
    5.3189   -0.2183   -0.4263 N   0  0  0  0  0  0  0  0  0  0  0  0
    6.0574    0.7540   -1.1968 C   0  0  0  0  0  0  0  0  0  0  0  0
    6.7097    1.7364   -0.2564 C   0  0  0  0  0  0  0  0  0  0  0  0
    7.4724    1.0476    0.8473 C   0  0  0  0  0  0  0  0  0  0  0  0
    8.8797    0.7405    0.3248 C   0  0  0  0  0  0  0  0  0  0  0  0
    7.6547    2.0679    1.9579 C   0  0  0  0  0  0  0  0  0  0  0  0
    6.8118   -0.1479    1.4206 C   0  0  0  0  0  0  0  0  0  0  0  0
    6.1267   -1.0588    0.4318 C   0  0  0  0  0  0  0  0  0  0  0  0
    1.3448   -4.6017    0.9855 H   0  0  0  0  0  0  0  0  0  0  0  0
    2.6037   -4.2550   -0.2221 H   0  0  0  0  0  0  0  0  0  0  0  0
    2.6890   -3.5135    1.4181 H   0  0  0  0  0  0  0  0  0  0  0  0
    3.8368   -2.2779    0.1764 H   0  0  0  0  0  0  0  0  0  0  0  0
    3.6052    1.7025   -1.2581 H   0  0  0  0  0  0  0  0  0  0  0  0
    1.2189    1.5177   -1.3816 H   0  0  0  0  0  0  0  0  0  0  0  0
   -0.7252   -1.6293   -0.3991 H   0  0  0  0  0  0  0  0  0  0  0  0
   -1.8423    3.3382   -2.2723 H   0  0  0  0  0  0  0  0  0  0  0  0
   -5.7029    1.0016   -1.6199 H   0  0  0  0  0  0  0  0  0  0  0  0
   -3.6800   -2.0825   -1.4977 H   0  0  0  0  0  0  0  0  0  0  0  0
   -4.6347   -4.2436   -1.0829 H   0  0  0  0  0  0  0  0  0  0  0  0
   -6.9542   -4.5442   -0.3957 H   0  0  0  0  0  0  0  0  0  0  0  0
   -8.3489   -2.5436   -0.0940 H   0  0  0  0  0  0  0  0  0  0  0  0
   -7.4880    0.3390    2.1139 H   0  0  0  0  0  0  0  0  0  0  0  0
   -9.5465    1.4558    1.4501 H   0  0  0  0  0  0  0  0  0  0  0  0
   -8.5757    2.7350    0.5772 H   0  0  0  0  0  0  0  0  0  0  0  0
   -8.4537    2.5761    2.4150 H   0  0  0  0  0  0  0  0  0  0  0  0
   -6.2164    2.5512    2.1452 H   0  0  0  0  0  0  0  0  0  0  0  0
   -5.3058    1.2066    1.4598 H   0  0  0  0  0  0  0  0  0  0  0  0
   -6.0496    2.4719    0.3626 H   0  0  0  0  0  0  0  0  0  0  0  0
    5.4181    1.2985   -1.9028 H   0  0  0  0  0  0  0  0  0  0  0  0
    6.8320    0.2166   -1.8197 H   0  0  0  0  0  0  0  0  0  0  0  0
    7.4397    2.3290   -0.8452 H   0  0  0  0  0  0  0  0  0  0  0  0
    5.9479    2.4349    0.1243 H   0  0  0  0  0  0  0  0  0  0  0  0
    9.5671    1.5905    0.5216 H   0  0  0  0  0  0  0  0  0  0  0  0
    8.8622    0.6158   -0.7916 H   0  0  0  0  0  0  0  0  0  0  0  0
    9.2954   -0.1423    0.8369 H   0  0  0  0  0  0  0  0  0  0  0  0
    8.3148    1.6209    2.7328 H   0  0  0  0  0  0  0  0  0  0  0  0
    6.6543    2.2193    2.4306 H   0  0  0  0  0  0  0  0  0  0  0  0
    8.0042    3.0391    1.5860 H   0  0  0  0  0  0  0  0  0  0  0  0
    7.6142   -0.7751    1.9088 H   0  0  0  0  0  0  0  0  0  0  0  0
    6.1032    0.0948    2.2467 H   0  0  0  0  0  0  0  0  0  0  0  0
    6.8759   -1.6113   -0.1697 H   0  0  0  0  0  0  0  0  0  0  0  0
    5.5671   -1.7908    1.0115 H   0  0  0  0  0  0  0  0  0  0  0  0
  1  2  1  0
  2  3  1  0
  3  4  2  0
  4  5  1  0
  5  6  2  0
  6  7  1  0
  7  8  2  0
  8  9  1  0
  9 10  1  0
 10 11  2  0
 11 12  1  0
 12 13  2  0
 13 14  1  0
 13 15  1  0
 15 16  1  0
 16 17  1  0
 17 18  2  0
 18 19  1  0
 19 20  2  0
 20 21  1  0
 21 22  2  0
 22 23  1  0
 23 24  2  0
 23 25  2  0
 23 26  1  0
 26 27  1  0
 26 28  1  0
 15 29  2  0
  5 30  1  0
 30 31  1  0
 31 32  1  0
 32 33  1  0
 33 34  1  0
 33 35  1  0
 33 36  1  0
 36 37  1  0
  8  3  1  0
 29 10  1  0
 37 30  1  0
 22 17  1  0
  1 38  1  0
  1 39  1  0
  1 40  1  0
  4 41  1  0
  6 42  1  0
  7 43  1  0
  9 44  1  0
 12 45  1  0
 16 46  1  0
 18 47  1  0
 19 48  1  0
 20 49  1  0
 21 50  1  0
 26 51  1  0
 27 52  1  0
 27 53  1  0
 27 54  1  0
 28 55  1  0
 28 56  1  0
 28 57  1  0
 31 58  1  0
 31 59  1  0
 32 60  1  0
 32 61  1  0
 34 62  1  0
 34 63  1  0
 34 64  1  0
 35 65  1  0
 35 66  1  0
 35 67  1  0
 36 68  1  0
 36 69  1  0
 37 70  1  0
 37 71  1  0
M  END
$$$$
[H]c1c([H])c([H])c(C([H])([H])[C@@]([H])(C(=O)N2C([H])([H])C([H])([H])C([H])([H])[C@@]2([H])C(=O)N([H])[C@@]([H])(C(=O)N2C([H])([H])C([H])([H])C([H])([H])[C@@]2([H])C(=O)N([H])[C@]([H])(C(=O)N([H])[H])C([H])([H])[H])C([H])([H])c2c([H])c([H])c([H])c([H])c2[H])N([H])[H])c([H])c1[H]
     RDKit          3D

 82 85  0  0  0  0  0  0  0  0999 V2000
   -7.6677    0.1715    2.0017 C   0  0  0  0  0  0  0  0  0  0  0  0
   -7.2245    1.1395    0.9107 C   0  0  2  0  0  0  0  0  0  0  0  0
   -5.8161    1.4079    0.9459 N   0  0  0  0  0  0  0  0  0  0  0  0
   -4.9373    1.0837   -0.1468 C   0  0  0  0  0  0  0  0  0  0  0  0
   -5.4806    0.5505   -1.1301 O   0  0  0  0  0  0  0  0  0  0  0  0
   -3.4998    1.3682   -0.0928 C   0  0  2  0  0  0  0  0  0  0  0  0
   -3.3890    2.9029   -0.2851 C   0  0  0  0  0  0  0  0  0  0  0  0
   -3.5273    3.0329   -1.8051 C   0  0  0  0  0  0  0  0  0  0  0  0
   -3.1591    1.6814   -2.3701 C   0  0  0  0  0  0  0  0  0  0  0  0
   -2.7109    0.9435   -1.2114 N   0  0  0  0  0  0  0  0  0  0  0  0
   -1.6271    0.0011   -1.2390 C   0  0  0  0  0  0  0  0  0  0  0  0
   -1.0781   -0.2207   -2.3389 O   0  0  0  0  0  0  0  0  0  0  0  0
   -1.1228   -0.7107   -0.0460 C   0  0  1  0  0  0  0  0  0  0  0  0
   -2.0612   -1.7364    0.5126 C   0  0  0  0  0  0  0  0  0  0  0  0
   -2.3904   -2.8472   -0.4093 C   0  0  0  0  0  0  0  0  0  0  0  0
   -3.4237   -2.7752   -1.3050 C   0  0  0  0  0  0  0  0  0  0  0  0
   -3.6900   -3.8459   -2.1252 C   0  0  0  0  0  0  0  0  0  0  0  0
   -2.9242   -4.9800   -2.0463 C   0  0  0  0  0  0  0  0  0  0  0  0
   -1.8692   -5.1070   -1.1608 C   0  0  0  0  0  0  0  0  0  0  0  0
   -1.6431   -4.0075   -0.3613 C   0  0  0  0  0  0  0  0  0  0  0  0
    0.1259   -1.4176   -0.3819 N   0  0  0  0  0  0  0  0  0  0  0  0
    1.3680   -1.1122    0.2193 C   0  0  0  0  0  0  0  0  0  0  0  0
    1.4211   -0.1988    1.0776 O   0  0  0  0  0  0  0  0  0  0  0  0
    2.6154   -1.8275   -0.1242 C   0  0  2  0  0  0  0  0  0  0  0  0
    2.5524   -3.2425    0.4108 C   0  0  0  0  0  0  0  0  0  0  0  0
    3.0907   -3.0224    1.8235 C   0  0  0  0  0  0  0  0  0  0  0  0
    4.2736   -2.1342    1.5143 C   0  0  0  0  0  0  0  0  0  0  0  0
    3.7704   -1.1977    0.5466 N   0  0  0  0  0  0  0  0  0  0  0  0
    4.2026    0.0961    0.2083 C   0  0  0  0  0  0  0  0  0  0  0  0
    3.5373    0.7300   -0.6867 O   0  0  0  0  0  0  0  0  0  0  0  0
    5.3462    0.8327    0.7608 C   0  0  1  0  0  0  0  0  0  0  0  0
    6.1753    0.1182    1.6632 N   0  0  0  0  0  0  0  0  0  0  0  0
    6.1214    1.3757   -0.4344 C   0  0  0  0  0  0  0  0  0  0  0  0
    7.3157    2.1534   -0.0302 C   0  0  0  0  0  0  0  0  0  0  0  0
    8.5460    1.5605    0.1471 C   0  0  0  0  0  0  0  0  0  0  0  0
    9.6657    2.2536    0.5172 C   0  0  0  0  0  0  0  0  0  0  0  0
    9.5893    3.6067    0.7290 C   0  0  0  0  0  0  0  0  0  0  0  0
    8.3753    4.2391    0.5621 C   0  0  0  0  0  0  0  0  0  0  0  0
    7.2600    3.5209    0.1887 C   0  0  0  0  0  0  0  0  0  0  0  0
   -8.0059    2.3921    1.0328 C   0  0  0  0  0  0  0  0  0  0  0  0
   -9.4325    2.3383    1.0155 N   0  0  0  0  0  0  0  0  0  0  0  0
   -7.3875    3.4854    1.1502 O   0  0  0  0  0  0  0  0  0  0  0  0
   -8.5971   -0.3222    1.6498 H   0  0  0  0  0  0  0  0  0  0  0  0
   -7.9219    0.7048    2.9326 H   0  0  0  0  0  0  0  0  0  0  0  0
   -6.9013   -0.6050    2.1468 H   0  0  0  0  0  0  0  0  0  0  0  0
   -7.5263    0.6639   -0.0687 H   0  0  0  0  0  0  0  0  0  0  0  0
   -5.4025    1.8501    1.7800 H   0  0  0  0  0  0  0  0  0  0  0  0
   -3.0430    1.0931    0.8853 H   0  0  0  0  0  0  0  0  0  0  0  0
   -4.2296    3.3968    0.2363 H   0  0  0  0  0  0  0  0  0  0  0  0
   -2.4431    3.2813    0.0973 H   0  0  0  0  0  0  0  0  0  0  0  0
   -4.5631    3.3281   -2.0507 H   0  0  0  0  0  0  0  0  0  0  0  0
   -2.7784    3.7662   -2.1473 H   0  0  0  0  0  0  0  0  0  0  0  0
   -3.9736    1.1439   -2.8474 H   0  0  0  0  0  0  0  0  0  0  0  0
   -2.3209    1.7842   -3.1197 H   0  0  0  0  0  0  0  0  0  0  0  0
   -0.8737    0.0104    0.7490 H   0  0  0  0  0  0  0  0  0  0  0  0
   -3.0064   -1.2927    0.8311 H   0  0  0  0  0  0  0  0  0  0  0  0
   -1.5316   -2.1781    1.4057 H   0  0  0  0  0  0  0  0  0  0  0  0
   -4.0501   -1.8689   -1.3820 H   0  0  0  0  0  0  0  0  0  0  0  0
   -4.5118   -3.7884   -2.8370 H   0  0  0  0  0  0  0  0  0  0  0  0
   -3.1553   -5.8152   -2.7072 H   0  0  0  0  0  0  0  0  0  0  0  0
   -1.2613   -6.0125   -1.1017 H   0  0  0  0  0  0  0  0  0  0  0  0
   -0.8031   -4.1162    0.3411 H   0  0  0  0  0  0  0  0  0  0  0  0
    0.0732   -2.1571   -1.0920 H   0  0  0  0  0  0  0  0  0  0  0  0
    2.7880   -1.7839   -1.2061 H   0  0  0  0  0  0  0  0  0  0  0  0
    3.3138   -3.8513   -0.1142 H   0  0  0  0  0  0  0  0  0  0  0  0
    1.5415   -3.6417    0.4078 H   0  0  0  0  0  0  0  0  0  0  0  0
    3.3662   -3.9652    2.3112 H   0  0  0  0  0  0  0  0  0  0  0  0
    2.3536   -2.4268    2.3746 H   0  0  0  0  0  0  0  0  0  0  0  0
    5.0739   -2.7878    1.0539 H   0  0  0  0  0  0  0  0  0  0  0  0
    4.6542   -1.6697    2.4526 H   0  0  0  0  0  0  0  0  0  0  0  0
    4.9993    1.7587    1.3189 H   0  0  0  0  0  0  0  0  0  0  0  0
    6.8571   -0.5320    1.2638 H   0  0  0  0  0  0  0  0  0  0  0  0
    6.4107    0.5744    2.5492 H   0  0  0  0  0  0  0  0  0  0  0  0
    5.4227    2.0078   -1.0145 H   0  0  0  0  0  0  0  0  0  0  0  0
    6.4210    0.5536   -1.1235 H   0  0  0  0  0  0  0  0  0  0  0  0
    8.6097    0.4866   -0.0200 H   0  0  0  0  0  0  0  0  0  0  0  0
   10.5910    1.7124    0.6345 H   0  0  0  0  0  0  0  0  0  0  0  0
   10.4800    4.1675    1.0249 H   0  0  0  0  0  0  0  0  0  0  0  0
    8.3027    5.3192    0.7279 H   0  0  0  0  0  0  0  0  0  0  0  0
    6.2829    3.9804    0.0454 H   0  0  0  0  0  0  0  0  0  0  0  0
   -9.9289    1.7779    1.7207 H   0  0  0  0  0  0  0  0  0  0  0  0
  -10.0030    2.8512    0.3073 H   0  0  0  0  0  0  0  0  0  0  0  0
  1  2  1  0
  2  3  1  0
  3  4  1  0
  4  5  2  0
  4  6  1  0
  6  7  1  0
  7  8  1  0
  8  9  1  0
  9 10  1  0
 10 11  1  0
 11 12  2  0
 11 13  1  0
 13 14  1  0
 14 15  1  0
 15 16  2  0
 16 17  1  0
 17 18  2  0
 18 19  1  0
 19 20  2  0
 13 21  1  0
 21 22  1  0
 22 23  2  0
 22 24  1  0
 24 25  1  0
 25 26  1  0
 26 27  1  0
 27 28  1  0
 28 29  1  0
 29 30  2  0
 29 31  1  0
 31 32  1  0
 31 33  1  0
 33 34  1  0
 34 35  2  0
 35 36  1  0
 36 37  2  0
 37 38  1  0
 38 39  2  0
  2 40  1  0
 40 41  1  0
 40 42  2  0
 10  6  1  0
 20 15  1  0
 28 24  1  0
 39 34  1  0
  1 43  1  0
  1 44  1  0
  1 45  1  0
  2 46  1  6
  3 47  1  0
  6 48  1  1
  7 49  1  0
  7 50  1  0
  8 51  1  0
  8 52  1  0
  9 53  1  0
  9 54  1  0
 13 55  1  1
 14 56  1  0
 14 57  1  0
 16 58  1  0
 17 59  1  0
 18 60  1  0
 19 61  1  0
 20 62  1  0
 21 63  1  0
 24 64  1  6
 25 65  1  0
 25 66  1  0
 26 67  1  0
 26 68  1  0
 27 69  1  0
 27 70  1  0
 31 71  1  1
 32 72  1  0
 32 73  1  0
 33 74  1  0
 33 75  1  0
 35 76  1  0
 36 77  1  0
 37 78  1  0
 38 79  1  0
 39 80  1  0
 41 81  1  0
 41 82  1  0
M  END
$$$$
[H]c1c([H])c([H])c(C(=O)N([H])[C@]([H])(C(=O)N([H])[C@]([H])(C(=O)N([H])[C@]([H])(C(=O)N2C([H])([H])C([H])([H])C([H])([H])[C@@]2([H])C(=O)N([H])[C@]([H])(C(=O)N([H])[C@]([H])(C([H])(C([H])([H])[H])C([H])([H])[H])[C@@]([H])(C([H])([H])[H])C([H])([H])C([H])([H])[H])C([H])([H])c2c([H])n([H])c3c([H])c([H])c([H])c([H])c23)C([H])([H])c2c([H])c([H])c([H])c([H])c2[H])C([H])([H])c2c([H])c([H])c([H])c([H])c2[H])C([H])([H])c2c([H])c([H])c([H])c([H])c2[H])c([H])c1[H]
     RDKit          3D

138144  0  0  0  0  0  0  0  0999 V2000
   -7.0037    4.3056    0.7727 C   0  0  0  0  0  0  0  0  0  0  0  0
   -5.8942    3.6911   -0.0035 C   0  0  0  0  0  0  0  0  0  0  0  0
   -6.3781    2.9884   -1.2951 C   0  0  2  0  0  0  0  0  0  0  0  0
   -7.0351    4.1188   -2.0808 C   0  0  0  0  0  0  0  0  0  0  0  0
   -7.2858    1.9046   -0.8572 C   0  0  2  0  0  0  0  0  0  0  0  0
   -6.6220    0.9853    0.0158 N   0  0  0  0  0  0  0  0  0  0  0  0
   -5.3691    0.3736   -0.1000 C   0  0  0  0  0  0  0  0  0  0  0  0
   -4.6525    0.6342   -1.1407 O   0  0  0  0  0  0  0  0  0  0  0  0
   -4.7565   -0.5425    0.8454 C   0  0  2  0  0  0  0  0  0  0  0  0
   -5.5453   -0.9440    2.0481 C   0  0  0  0  0  0  0  0  0  0  0  0
   -6.7741   -1.7035    1.6921 C   0  0  0  0  0  0  0  0  0  0  0  0
   -7.1265   -2.2859    0.4774 C   0  0  0  0  0  0  0  0  0  0  0  0
   -8.2991   -2.9099    0.5811 N   0  0  0  0  0  0  0  0  0  0  0  0
   -8.7642   -2.7662    1.8544 C   0  0  0  0  0  0  0  0  0  0  0  0
   -9.9078   -3.2143    2.4691 C   0  0  0  0  0  0  0  0  0  0  0  0
  -10.1443   -2.9337    3.7785 C   0  0  0  0  0  0  0  0  0  0  0  0
   -9.2205   -2.1907    4.4899 C   0  0  0  0  0  0  0  0  0  0  0  0
   -8.0833   -1.7502    3.8623 C   0  0  0  0  0  0  0  0  0  0  0  0
   -7.8159   -2.0188    2.5365 C   0  0  0  0  0  0  0  0  0  0  0  0
   -3.3372   -0.3565    1.0829 N   0  0  0  0  0  0  0  0  0  0  0  0
   -2.4937   -1.4452    1.4085 C   0  0  0  0  0  0  0  0  0  0  0  0
   -3.0197   -2.6083    1.5076 O   0  0  0  0  0  0  0  0  0  0  0  0
   -1.0352   -1.3723    1.6535 C   0  0  2  0  0  0  0  0  0  0  0  0
   -0.8761   -1.1299    3.1776 C   0  0  0  0  0  0  0  0  0  0  0  0
    0.1077    0.0058    3.2054 C   0  0  0  0  0  0  0  0  0  0  0  0
   -0.1705    0.7691    1.9447 C   0  0  0  0  0  0  0  0  0  0  0  0
   -0.3503   -0.3373    0.9703 N   0  0  0  0  0  0  0  0  0  0  0  0
    0.1293   -0.2358   -0.3318 C   0  0  0  0  0  0  0  0  0  0  0  0
    0.6869    1.0168   -0.4691 O   0  0  0  0  0  0  0  0  0  0  0  0
    0.2462   -0.9477   -1.5476 C   0  0  2  0  0  0  0  0  0  0  0  0
    0.2949   -2.3640   -1.7849 C   0  0  0  0  0  0  0  0  0  0  0  0
   -0.7122   -3.3549   -1.4894 C   0  0  0  0  0  0  0  0  0  0  0  0
   -0.5265   -4.3456   -0.5639 C   0  0  0  0  0  0  0  0  0  0  0  0
   -1.4865   -5.2956   -0.3178 C   0  0  0  0  0  0  0  0  0  0  0  0
   -2.7013   -5.2938   -1.0011 C   0  0  0  0  0  0  0  0  0  0  0  0
   -2.8557   -4.2800   -1.9274 C   0  0  0  0  0  0  0  0  0  0  0  0
   -1.9148   -3.3239   -2.1908 C   0  0  0  0  0  0  0  0  0  0  0  0
    1.5081   -0.4263   -2.2090 N   0  0  0  0  0  0  0  0  0  0  0  0
    2.7204   -0.3400   -1.5221 C   0  0  0  0  0  0  0  0  0  0  0  0
    2.7642   -0.7278   -0.2977 O   0  0  0  0  0  0  0  0  0  0  0  0
    3.9751    0.1571   -2.0608 C   0  0  2  0  0  0  0  0  0  0  0  0
    4.4943   -0.6260   -3.2625 C   0  0  0  0  0  0  0  0  0  0  0  0
    4.7352   -2.0354   -2.9987 C   0  0  0  0  0  0  0  0  0  0  0  0
    3.8217   -3.0172   -3.3103 C   0  0  0  0  0  0  0  0  0  0  0  0
    4.0281   -4.3443   -3.0486 C   0  0  0  0  0  0  0  0  0  0  0  0
    5.2173   -4.7372   -2.4362 C   0  0  0  0  0  0  0  0  0  0  0  0
    6.1405   -3.7821   -2.1161 C   0  0  0  0  0  0  0  0  0  0  0  0
    5.9058   -2.4322   -2.3940 C   0  0  0  0  0  0  0  0  0  0  0  0
    5.0707    0.1822   -1.1036 N   0  0  0  0  0  0  0  0  0  0  0  0
    5.9781    1.2512   -0.9856 C   0  0  0  0  0  0  0  0  0  0  0  0
    5.8971    2.2886   -1.7274 O   0  0  0  0  0  0  0  0  0  0  0  0
    7.0772    1.2206    0.0083 C   0  0  2  0  0  0  0  0  0  0  0  0
    6.5213    1.2024    1.4309 C   0  0  0  0  0  0  0  0  0  0  0  0
    7.6153    1.1806    2.4206 C   0  0  0  0  0  0  0  0  0  0  0  0
    8.1594    0.0080    2.8951 C   0  0  0  0  0  0  0  0  0  0  0  0
    9.1782    0.0098    3.8167 C   0  0  0  0  0  0  0  0  0  0  0  0
    9.7047    1.1970    4.3116 C   0  0  0  0  0  0  0  0  0  0  0  0
    9.1578    2.3731    3.8352 C   0  0  0  0  0  0  0  0  0  0  0  0
    8.1249    2.3673    2.9007 C   0  0  0  0  0  0  0  0  0  0  0  0
    7.9627    2.3691   -0.1545 N   0  0  0  0  0  0  0  0  0  0  0  0
    9.3239    2.1475   -0.4746 C   0  0  0  0  0  0  0  0  0  0  0  0
    9.7370    0.9404   -0.6057 O   0  0  0  0  0  0  0  0  0  0  0  0
   10.3022    3.2048   -0.6705 C   0  0  0  0  0  0  0  0  0  0  0  0
   11.6213    2.8973   -1.0119 C   0  0  0  0  0  0  0  0  0  0  0  0
   12.5684    3.8670   -1.2169 C   0  0  0  0  0  0  0  0  0  0  0  0
   12.2616    5.2034   -1.0940 C   0  0  0  0  0  0  0  0  0  0  0  0
   10.9711    5.5289   -0.7590 C   0  0  0  0  0  0  0  0  0  0  0  0
   10.0056    4.5460   -0.5499 C   0  0  0  0  0  0  0  0  0  0  0  0
   -8.1584    1.2386   -1.8408 C   0  0  0  0  0  0  0  0  0  0  0  0
   -9.1801    2.0783   -2.5422 C   0  0  0  0  0  0  0  0  0  0  0  0
   -7.3921    0.4567   -2.8974 C   0  0  0  0  0  0  0  0  0  0  0  0
   -6.5231    5.0687    1.4594 H   0  0  0  0  0  0  0  0  0  0  0  0
   -7.7134    4.8231    0.1330 H   0  0  0  0  0  0  0  0  0  0  0  0
   -7.5056    3.6012    1.4691 H   0  0  0  0  0  0  0  0  0  0  0  0
   -5.2256    3.0540    0.5738 H   0  0  0  0  0  0  0  0  0  0  0  0
   -5.2524    4.5359   -0.3842 H   0  0  0  0  0  0  0  0  0  0  0  0
   -5.4448    2.6849   -1.8047 H   0  0  0  0  0  0  0  0  0  0  0  0
   -6.4634    5.0847   -1.8683 H   0  0  0  0  0  0  0  0  0  0  0  0
   -6.8852    3.9999   -3.1822 H   0  0  0  0  0  0  0  0  0  0  0  0
   -8.0526    4.3416   -1.7737 H   0  0  0  0  0  0  0  0  0  0  0  0
   -8.0194    2.4722   -0.1519 H   0  0  0  0  0  0  0  0  0  0  0  0
   -7.1514    0.7386    0.9065 H   0  0  0  0  0  0  0  0  0  0  0  0
   -4.7279   -1.5676    0.2400 H   0  0  0  0  0  0  0  0  0  0  0  0
   -4.9667   -1.5539    2.7514 H   0  0  0  0  0  0  0  0  0  0  0  0
   -5.8884   -0.0271    2.5876 H   0  0  0  0  0  0  0  0  0  0  0  0
   -6.5232   -2.2324   -0.4113 H   0  0  0  0  0  0  0  0  0  0  0  0
   -8.8294   -3.4415   -0.1553 H   0  0  0  0  0  0  0  0  0  0  0  0
  -10.6068   -3.7876    1.9067 H   0  0  0  0  0  0  0  0  0  0  0  0
  -11.0644   -3.3043    4.2379 H   0  0  0  0  0  0  0  0  0  0  0  0
   -9.4516   -1.9954    5.5189 H   0  0  0  0  0  0  0  0  0  0  0  0
   -7.3433   -1.1668    4.3958 H   0  0  0  0  0  0  0  0  0  0  0  0
   -2.9402    0.5943    1.0085 H   0  0  0  0  0  0  0  0  0  0  0  0
   -0.5680   -2.3742    1.5148 H   0  0  0  0  0  0  0  0  0  0  0  0
   -1.8381   -0.7446    3.5830 H   0  0  0  0  0  0  0  0  0  0  0  0
   -0.5431   -2.0503    3.6817 H   0  0  0  0  0  0  0  0  0  0  0  0
   -0.0378    0.6189    4.1188 H   0  0  0  0  0  0  0  0  0  0  0  0
    1.1331   -0.3856    3.2177 H   0  0  0  0  0  0  0  0  0  0  0  0
   -0.9928    1.4639    1.9661 H   0  0  0  0  0  0  0  0  0  0  0  0
    0.7443    1.3490    1.6956 H   0  0  0  0  0  0  0  0  0  0  0  0
   -0.5903   -0.4779   -2.2668 H   0  0  0  0  0  0  0  0  0  0  0  0
    1.3339   -2.7896   -1.4241 H   0  0  0  0  0  0  0  0  0  0  0  0
    0.4922   -2.5303   -2.9374 H   0  0  0  0  0  0  0  0  0  0  0  0
    0.4228   -4.4067    0.0187 H   0  0  0  0  0  0  0  0  0  0  0  0
   -1.3055   -6.0783    0.4283 H   0  0  0  0  0  0  0  0  0  0  0  0
   -3.4595   -6.0449   -0.8036 H   0  0  0  0  0  0  0  0  0  0  0  0
   -3.8202   -4.2802   -2.4641 H   0  0  0  0  0  0  0  0  0  0  0  0
   -2.1021   -2.5434   -2.9464 H   0  0  0  0  0  0  0  0  0  0  0  0
    1.4082   -0.1486   -3.1927 H   0  0  0  0  0  0  0  0  0  0  0  0
    3.8450    1.1945   -2.4274 H   0  0  0  0  0  0  0  0  0  0  0  0
    3.8282   -0.5388   -4.1409 H   0  0  0  0  0  0  0  0  0  0  0  0
    5.4595   -0.1644   -3.5532 H   0  0  0  0  0  0  0  0  0  0  0  0
    2.9147   -2.7072   -3.7765 H   0  0  0  0  0  0  0  0  0  0  0  0
    3.3328   -5.1349   -3.2833 H   0  0  0  0  0  0  0  0  0  0  0  0
    5.4097   -5.7933   -2.2132 H   0  0  0  0  0  0  0  0  0  0  0  0
    7.0672   -4.1098   -1.6328 H   0  0  0  0  0  0  0  0  0  0  0  0
    6.6519   -1.7163   -2.1234 H   0  0  0  0  0  0  0  0  0  0  0  0
    5.1724   -0.6408   -0.4835 H   0  0  0  0  0  0  0  0  0  0  0  0
    7.7026    0.3093   -0.0951 H   0  0  0  0  0  0  0  0  0  0  0  0
    5.8785    2.1081    1.5176 H   0  0  0  0  0  0  0  0  0  0  0  0
    5.8771    0.3238    1.5983 H   0  0  0  0  0  0  0  0  0  0  0  0
    7.8040   -0.9637    2.5584 H   0  0  0  0  0  0  0  0  0  0  0  0
    9.6218   -0.8971    4.2050 H   0  0  0  0  0  0  0  0  0  0  0  0
   10.5016    1.2148    5.0339 H   0  0  0  0  0  0  0  0  0  0  0  0
    9.5472    3.3272    4.2039 H   0  0  0  0  0  0  0  0  0  0  0  0
    7.7290    3.3100    2.5584 H   0  0  0  0  0  0  0  0  0  0  0  0
    7.6343    3.3467   -0.0441 H   0  0  0  0  0  0  0  0  0  0  0  0
   11.8751    1.8504   -1.1097 H   0  0  0  0  0  0  0  0  0  0  0  0
   13.5914    3.6263   -1.4809 H   0  0  0  0  0  0  0  0  0  0  0  0
   13.0258    5.9660   -1.2649 H   0  0  0  0  0  0  0  0  0  0  0  0
   10.6790    6.5524   -0.6488 H   0  0  0  0  0  0  0  0  0  0  0  0
    8.9905    4.8153   -0.2842 H   0  0  0  0  0  0  0  0  0  0  0  0
   -8.7363    0.4444   -1.2782 H   0  0  0  0  0  0  0  0  0  0  0  0
  -10.0027    1.4275   -2.9800 H   0  0  0  0  0  0  0  0  0  0  0  0
   -8.7873    2.6204   -3.4187 H   0  0  0  0  0  0  0  0  0  0  0  0
   -9.7416    2.7519   -1.8622 H   0  0  0  0  0  0  0  0  0  0  0  0
   -7.0012   -0.4908   -2.4726 H   0  0  0  0  0  0  0  0  0  0  0  0
   -8.1457    0.1634   -3.6653 H   0  0  0  0  0  0  0  0  0  0  0  0
   -6.5489    1.0143   -3.3074 H   0  0  0  0  0  0  0  0  0  0  0  0
  1  2  1  0
  2  3  1  0
  3  4  1  0
  3  5  1  0
  5  6  1  0
  6  7  1  0
  7  8  2  0
  7  9  1  0
  9 10  1  0
 10 11  1  0
 11 12  2  0
 12 13  1  0
 13 14  1  0
 14 15  2  0
 15 16  1  0
 16 17  2  0
 17 18  1  0
 18 19  2  0
  9 20  1  0
 20 21  1  0
 21 22  2  0
 21 23  1  0
 23 24  1  0
 24 25  1  0
 25 26  1  0
 26 27  1  0
 27 28  1  0
 28 29  2  0
 28 30  1  0
 30 31  1  0
 31 32  1  0
 32 33  2  0
 33 34  1  0
 34 35  2  0
 35 36  1  0
 36 37  2  0
 30 38  1  0
 38 39  1  0
 39 40  2  0
 39 41  1  0
 41 42  1  0
 42 43  1  0
 43 44  2  0
 44 45  1  0
 45 46  2  0
 46 47  1  0
 47 48  2  0
 41 49  1  0
 49 50  1  0
 50 51  2  0
 50 52  1  0
 52 53  1  0
 53 54  1  0
 54 55  2  0
 55 56  1  0
 56 57  2  0
 57 58  1  0
 58 59  2  0
 52 60  1  0
 60 61  1  0
 61 62  2  0
 61 63  1  0
 63 64  2  0
 64 65  1  0
 65 66  2  0
 66 67  1  0
 67 68  2  0
  5 69  1  0
 69 70  1  0
 69 71  1  0
 19 11  1  0
 27 23  1  0
 37 32  1  0
 48 43  1  0
 59 54  1  0
 68 63  1  0
 19 14  1  0
  1 72  1  0
  1 73  1  0
  1 74  1  0
  2 75  1  0
  2 76  1  0
  3 77  1  6
  4 78  1  0
  4 79  1  0
  4 80  1  0
  5 81  1  1
  6 82  1  0
  9 83  1  6
 10 84  1  0
 10 85  1  0
 12 86  1  0
 13 87  1  0
 15 88  1  0
 16 89  1  0
 17 90  1  0
 18 91  1  0
 20 92  1  0
 23 93  1  1
 24 94  1  0
 24 95  1  0
 25 96  1  0
 25 97  1  0
 26 98  1  0
 26 99  1  0
 30100  1  6
 31101  1  0
 31102  1  0
 33103  1  0
 34104  1  0
 35105  1  0
 36106  1  0
 37107  1  0
 38108  1  0
 41109  1  6
 42110  1  0
 42111  1  0
 44112  1  0
 45113  1  0
 46114  1  0
 47115  1  0
 48116  1  0
 49117  1  0
 52118  1  6
 53119  1  0
 53120  1  0
 55121  1  0
 56122  1  0
 57123  1  0
 58124  1  0
 59125  1  0
 60126  1  0
 64127  1  0
 65128  1  0
 66129  1  0
 67130  1  0
 68131  1  0
 69132  1  0
 70133  1  0
 70134  1  0
 70135  1  0
 71136  1  0
 71137  1  0
 71138  1  0
M  END
$$$$
[H]c1nc(N([H])c2c([H])c([H])c(N3C([H])([H])C([H])([H])N(C(=O)C([H])([H])[H])C([H])([H])C3([H])[H])c([H])c2OC([H])([H])[H])nc(N([H])c2c([H])c([H])c([H])c([H])c2S(=O)(=O)C2([H])C([H])([H])C2([H])[H])c1Cl
     RDKit          3D

 67 71  0  0  0  0  0  0  0  0999 V2000
    4.0320    3.6043    2.2379 C   0  0  0  0  0  0  0  0  0  0  0  0
    2.6593    3.4310    1.9454 O   0  0  0  0  0  0  0  0  0  0  0  0
    2.2712    2.3045    1.2051 C   0  0  0  0  0  0  0  0  0  0  0  0
    3.1901    1.3935    0.7751 C   0  0  0  0  0  0  0  0  0  0  0  0
    2.8145    0.2705    0.0384 C   0  0  0  0  0  0  0  0  0  0  0  0
    1.4741    0.1450   -0.2230 C   0  0  0  0  0  0  0  0  0  0  0  0
    0.5232    1.0678    0.2094 C   0  0  0  0  0  0  0  0  0  0  0  0
    0.8963    2.1685    0.9341 C   0  0  0  0  0  0  0  0  0  0  0  0
   -0.0129    3.1360    1.3276 N   0  0  0  0  0  0  0  0  0  0  0  0
   -1.3975    3.0769    1.4268 C   0  0  0  0  0  0  0  0  0  0  0  0
   -2.0823    4.2240    1.7817 N   0  0  0  0  0  0  0  0  0  0  0  0
   -3.4002    4.2504    1.9467 C   0  0  0  0  0  0  0  0  0  0  0  0
   -4.1267    3.1121    1.7646 C   0  0  0  0  0  0  0  0  0  0  0  0
   -5.8687    3.0665    1.9685 Cl  0  0  0  0  0  0  0  0  0  0  0  0
   -3.4707    1.9314    1.4074 C   0  0  0  0  0  0  0  0  0  0  0  0
   -4.2396    0.7679    1.1891 N   0  0  0  0  0  0  0  0  0  0  0  0
   -3.8810   -0.5365    0.9171 C   0  0  0  0  0  0  0  0  0  0  0  0
   -2.6238   -1.0245    1.1122 C   0  0  0  0  0  0  0  0  0  0  0  0
   -2.2555   -2.3620    0.8977 C   0  0  0  0  0  0  0  0  0  0  0  0
   -3.2174   -3.2384    0.4660 C   0  0  0  0  0  0  0  0  0  0  0  0
   -4.4845   -2.7473    0.2702 C   0  0  0  0  0  0  0  0  0  0  0  0
   -4.8558   -1.4363    0.4769 C   0  0  0  0  0  0  0  0  0  0  0  0
   -6.4932   -0.9399    0.1856 S   0  0  0  0  0  0  0  0  0  0  0  0
   -7.2478   -2.1469   -0.3614 O   0  0  0  0  0  0  0  0  0  0  0  0
   -7.2359   -0.5487    1.4299 O   0  0  0  0  0  0  0  0  0  0  0  0
   -6.6244    0.3021   -1.0833 C   0  0  0  0  0  0  0  0  0  0  0  0
   -6.9529   -0.1339   -2.4643 C   0  0  0  0  0  0  0  0  0  0  0  0
   -8.0618    0.4335   -1.6385 C   0  0  0  0  0  0  0  0  0  0  0  0
   -2.1580    2.0164    1.2683 N   0  0  0  0  0  0  0  0  0  0  0  0
    3.7905   -0.6665   -0.3759 N   0  0  0  0  0  0  0  0  0  0  0  0
    3.5599   -1.7281   -1.3308 C   0  0  0  0  0  0  0  0  0  0  0  0
    4.7868   -1.7869   -2.2497 C   0  0  0  0  0  0  0  0  0  0  0  0
    5.9163   -2.1488   -1.4162 N   0  0  0  0  0  0  0  0  0  0  0  0
    5.8812   -1.8716    0.0140 C   0  0  0  0  0  0  0  0  0  0  0  0
    5.1324   -0.5674    0.2157 C   0  0  0  0  0  0  0  0  0  0  0  0
    7.0548   -2.7659   -1.9774 C   0  0  0  0  0  0  0  0  0  0  0  0
    7.1312   -3.0552   -3.4171 C   0  0  0  0  0  0  0  0  0  0  0  0
    8.0335   -3.0818   -1.2512 O   0  0  0  0  0  0  0  0  0  0  0  0
    4.3085    2.7225    2.8818 H   0  0  0  0  0  0  0  0  0  0  0  0
    4.1696    4.4922    2.8922 H   0  0  0  0  0  0  0  0  0  0  0  0
    4.6793    3.6147    1.3566 H   0  0  0  0  0  0  0  0  0  0  0  0
    4.2563    1.5307    1.0037 H   0  0  0  0  0  0  0  0  0  0  0  0
    1.1843   -0.7399   -0.8055 H   0  0  0  0  0  0  0  0  0  0  0  0
   -0.5066    0.8587   -0.0869 H   0  0  0  0  0  0  0  0  0  0  0  0
    0.4706    4.0955    1.5931 H   0  0  0  0  0  0  0  0  0  0  0  0
   -3.9453    5.1591    2.2271 H   0  0  0  0  0  0  0  0  0  0  0  0
   -5.3202    0.9264    1.2516 H   0  0  0  0  0  0  0  0  0  0  0  0
   -1.8053   -0.4082    1.4770 H   0  0  0  0  0  0  0  0  0  0  0  0
   -1.2294   -2.6921    1.0679 H   0  0  0  0  0  0  0  0  0  0  0  0
   -2.9581   -4.2671    0.2954 H   0  0  0  0  0  0  0  0  0  0  0  0
   -5.2629   -3.4374   -0.0733 H   0  0  0  0  0  0  0  0  0  0  0  0
   -6.0849    1.2684   -0.9625 H   0  0  0  0  0  0  0  0  0  0  0  0
   -6.9702   -1.2254   -2.6986 H   0  0  0  0  0  0  0  0  0  0  0  0
   -6.6241    0.5070   -3.3240 H   0  0  0  0  0  0  0  0  0  0  0  0
   -8.8250   -0.2457   -1.2479 H   0  0  0  0  0  0  0  0  0  0  0  0
   -8.4160    1.4729   -1.7989 H   0  0  0  0  0  0  0  0  0  0  0  0
    2.6610   -1.6150   -1.9306 H   0  0  0  0  0  0  0  0  0  0  0  0
    3.5240   -2.7093   -0.7789 H   0  0  0  0  0  0  0  0  0  0  0  0
    4.9977   -0.7733   -2.6549 H   0  0  0  0  0  0  0  0  0  0  0  0
    4.6252   -2.5323   -3.0590 H   0  0  0  0  0  0  0  0  0  0  0  0
    6.9306   -1.7110    0.3308 H   0  0  0  0  0  0  0  0  0  0  0  0
    5.3519   -2.6588    0.5873 H   0  0  0  0  0  0  0  0  0  0  0  0
    5.0485   -0.3112    1.2718 H   0  0  0  0  0  0  0  0  0  0  0  0
    5.6498    0.2406   -0.3350 H   0  0  0  0  0  0  0  0  0  0  0  0
    8.1765   -2.7841   -3.7364 H   0  0  0  0  0  0  0  0  0  0  0  0
    7.0672   -4.1609   -3.6153 H   0  0  0  0  0  0  0  0  0  0  0  0
    6.3905   -2.5329   -4.0400 H   0  0  0  0  0  0  0  0  0  0  0  0
  1  2  1  0
  2  3  1  0
  3  4  2  0
  4  5  1  0
  5  6  2  0
  6  7  1  0
  7  8  2  0
  8  9  1  0
  9 10  1  0
 10 11  2  0
 11 12  1  0
 12 13  2  0
 13 14  1  0
 13 15  1  0
 15 16  1  0
 16 17  1  0
 17 18  2  0
 18 19  1  0
 19 20  2  0
 20 21  1  0
 21 22  2  0
 22 23  1  0
 23 24  2  0
 23 25  2  0
 23 26  1  0
 26 27  1  0
 27 28  1  0
 15 29  2  0
  5 30  1  0
 30 31  1  0
 31 32  1  0
 32 33  1  0
 33 34  1  0
 34 35  1  0
 33 36  1  0
 36 37  1  0
 36 38  2  0
  8  3  1  0
 29 10  1  0
 35 30  1  0
 22 17  1  0
 28 26  1  0
  1 39  1  0
  1 40  1  0
  1 41  1  0
  4 42  1  0
  6 43  1  0
  7 44  1  0
  9 45  1  0
 12 46  1  0
 16 47  1  0
 18 48  1  0
 19 49  1  0
 20 50  1  0
 21 51  1  0
 26 52  1  0
 27 53  1  0
 27 54  1  0
 28 55  1  0
 28 56  1  0
 31 57  1  0
 31 58  1  0
 32 59  1  0
 32 60  1  0
 34 61  1  0
 34 62  1  0
 35 63  1  0
 35 64  1  0
 37 65  1  0
 37 66  1  0
 37 67  1  0
M  END
$$$$
[H]c1c([H])c(N2C([H])([H])C([H])([H])N(C([H])([H])[H])C([H])([H])C2([H])[H])c([H])c([H])c1-c1c([H])c([H])c([N+](=O)[O-])c([H])c1[H]
     RDKit          3D

 41 43  0  0  0  0  0  0  0  0999 V2000
   -5.7682   -0.9012    0.2139 C   0  0  0  0  0  0  0  0  0  0  0  0
   -5.1202   -0.0221   -0.7445 N   0  0  0  0  0  0  0  0  0  0  0  0
   -4.4589    1.0420   -0.0093 C   0  0  0  0  0  0  0  0  0  0  0  0
   -3.1985    0.4359    0.6158 C   0  0  0  0  0  0  0  0  0  0  0  0
   -2.2826    0.1837   -0.5059 N   0  0  0  0  0  0  0  0  0  0  0  0
   -2.8961   -0.0080   -1.7862 C   0  0  0  0  0  0  0  0  0  0  0  0
   -4.2096   -0.7539   -1.5733 C   0  0  0  0  0  0  0  0  0  0  0  0
   -0.8723    0.1352   -0.2831 C   0  0  0  0  0  0  0  0  0  0  0  0
   -0.0048    0.0632   -1.3491 C   0  0  0  0  0  0  0  0  0  0  0  0
    1.3766    0.0089   -1.1168 C   0  0  0  0  0  0  0  0  0  0  0  0
    1.8711    0.0266    0.1585 C   0  0  0  0  0  0  0  0  0  0  0  0
    1.0042    0.0983    1.2150 C   0  0  0  0  0  0  0  0  0  0  0  0
   -0.3799    0.1539    1.0189 C   0  0  0  0  0  0  0  0  0  0  0  0
    3.2943   -0.0302    0.3942 C   0  0  0  0  0  0  0  0  0  0  0  0
    4.0875   -0.7440   -0.5064 C   0  0  0  0  0  0  0  0  0  0  0  0
    5.4413   -0.8111   -0.3011 C   0  0  0  0  0  0  0  0  0  0  0  0
    6.0510   -0.1950    0.7696 C   0  0  0  0  0  0  0  0  0  0  0  0
    5.2351    0.5024    1.6403 C   0  0  0  0  0  0  0  0  0  0  0  0
    3.8717    0.6059    1.4877 C   0  0  0  0  0  0  0  0  0  0  0  0
    7.4497   -0.2566    0.9937 N   0  0  0  0  0  0  0  0  0  0  0  0
    8.2203   -0.9560    0.1102 O   0  0  0  0  0  0  0  0  0  0  0  0
    7.9226    0.3228    1.9773 O   0  0  0  0  0  0  0  0  0  0  0  0
   -6.1025   -0.2552    1.0721 H   0  0  0  0  0  0  0  0  0  0  0  0
   -5.0638   -1.6629    0.5922 H   0  0  0  0  0  0  0  0  0  0  0  0
   -6.6870   -1.3612   -0.2040 H   0  0  0  0  0  0  0  0  0  0  0  0
   -5.1226    1.4158    0.7674 H   0  0  0  0  0  0  0  0  0  0  0  0
   -4.1310    1.8059   -0.7360 H   0  0  0  0  0  0  0  0  0  0  0  0
   -3.3820   -0.5242    1.0956 H   0  0  0  0  0  0  0  0  0  0  0  0
   -2.7671    1.1652    1.3430 H   0  0  0  0  0  0  0  0  0  0  0  0
   -3.0397    0.9097   -2.3709 H   0  0  0  0  0  0  0  0  0  0  0  0
   -2.2455   -0.6757   -2.3892 H   0  0  0  0  0  0  0  0  0  0  0  0
   -4.6569   -0.8832   -2.5793 H   0  0  0  0  0  0  0  0  0  0  0  0
   -3.9522   -1.7443   -1.1160 H   0  0  0  0  0  0  0  0  0  0  0  0
   -0.3746    0.0506   -2.3514 H   0  0  0  0  0  0  0  0  0  0  0  0
    2.0423   -0.0473   -1.9687 H   0  0  0  0  0  0  0  0  0  0  0  0
    1.3336    0.1160    2.2616 H   0  0  0  0  0  0  0  0  0  0  0  0
   -1.0617    0.2082    1.8401 H   0  0  0  0  0  0  0  0  0  0  0  0
    3.5904   -1.2278   -1.3506 H   0  0  0  0  0  0  0  0  0  0  0  0
    6.0365   -1.3656   -1.0057 H   0  0  0  0  0  0  0  0  0  0  0  0
    5.6976    0.9909    2.4848 H   0  0  0  0  0  0  0  0  0  0  0  0
    3.2521    1.1665    2.1956 H   0  0  0  0  0  0  0  0  0  0  0  0
  1  2  1  0
  2  3  1  0
  3  4  1  0
  4  5  1  0
  5  6  1  0
  6  7  1  0
  5  8  1  0
  8  9  2  0
  9 10  1  0
 10 11  2  0
 11 12  1  0
 12 13  2  0
 11 14  1  0
 14 15  2  0
 15 16  1  0
 16 17  2  0
 17 18  1  0
 18 19  2  0
 17 20  1  0
 20 21  1  0
 20 22  2  0
  7  2  1  0
 13  8  1  0
 19 14  1  0
  1 23  1  0
  1 24  1  0
  1 25  1  0
  3 26  1  0
  3 27  1  0
  4 28  1  0
  4 29  1  0
  6 30  1  0
  6 31  1  0
  7 32  1  0
  7 33  1  0
  9 34  1  0
 10 35  1  0
 12 36  1  0
 13 37  1  0
 15 38  1  0
 16 39  1  0
 18 40  1  0
 19 41  1  0
M  CHG  2  20   1  21  -1
M  END
$$$$
[H]c1c(C(=O)N([H])c2c([H])c([H])c(C(F)(F)F)c([H])c2[H])nc(C(F)(F)F)nc1N1C([H])([H])C([H])([H])N(S(=O)(=O)N2C([H])([H])C([H])([H])OC([H])([H])C2([H])[H])C([H])([H])[C@@]1([H])C([H])([H])[H]
     RDKit          3D

 63 66  0  0  0  0  0  0  0  0999 V2000
   -0.7380   -1.2842   -0.2019 C   0  0  0  0  0  0  0  0  0  0  0  0
   -1.5282   -0.1319    0.3007 C   0  0  2  0  0  0  0  0  0  0  0  0
   -2.8483    0.0466   -0.5047 C   0  0  0  0  0  0  0  0  0  0  0  0
   -3.6361    0.9688    0.1865 N   0  0  0  0  0  0  0  0  0  0  0  0
   -3.0125    1.6863    1.2410 C   0  0  0  0  0  0  0  0  0  0  0  0
   -1.6941    2.2545    0.8014 C   0  0  0  0  0  0  0  0  0  0  0  0
   -0.8900    1.1640    0.2044 N   0  0  0  0  0  0  0  0  0  0  0  0
    0.3630    1.4355   -0.3664 C   0  0  0  0  0  0  0  0  0  0  0  0
    1.4803    0.7404    0.0069 C   0  0  0  0  0  0  0  0  0  0  0  0
    2.7200    0.9710   -0.5616 C   0  0  0  0  0  0  0  0  0  0  0  0
    2.7914    1.9198   -1.5093 N   0  0  0  0  0  0  0  0  0  0  0  0
    1.7125    2.6248   -1.8999 C   0  0  0  0  0  0  0  0  0  0  0  0
    0.5319    2.3754   -1.3306 N   0  0  0  0  0  0  0  0  0  0  0  0
    1.8966    3.6664   -2.9426 C   0  0  0  0  0  0  0  0  0  0  0  0
    0.8909    3.6396   -3.8853 F   0  0  0  0  0  0  0  0  0  0  0  0
    3.1103    3.5465   -3.5834 F   0  0  0  0  0  0  0  0  0  0  0  0
    1.9148    4.9213   -2.3420 F   0  0  0  0  0  0  0  0  0  0  0  0
    3.8709    0.2387   -0.0985 C   0  0  0  0  0  0  0  0  0  0  0  0
    3.7385   -0.4755    0.9191 O   0  0  0  0  0  0  0  0  0  0  0  0
    5.0934    0.3577   -0.8046 N   0  0  0  0  0  0  0  0  0  0  0  0
    6.2281   -0.3390   -0.3328 C   0  0  0  0  0  0  0  0  0  0  0  0
    7.0814   -1.0311   -1.1709 C   0  0  0  0  0  0  0  0  0  0  0  0
    8.1949   -1.6576   -0.6291 C   0  0  0  0  0  0  0  0  0  0  0  0
    8.5039   -1.6315    0.7157 C   0  0  0  0  0  0  0  0  0  0  0  0
    7.6536   -0.9445    1.5419 C   0  0  0  0  0  0  0  0  0  0  0  0
    6.5250   -0.3040    1.0144 C   0  0  0  0  0  0  0  0  0  0  0  0
    9.7104   -2.3191    1.2435 C   0  0  0  0  0  0  0  0  0  0  0  0
    9.2295   -3.3652    2.0341 F   0  0  0  0  0  0  0  0  0  0  0  0
   10.3429   -1.4176    2.0787 F   0  0  0  0  0  0  0  0  0  0  0  0
   10.5045   -2.8097    0.2552 F   0  0  0  0  0  0  0  0  0  0  0  0
   -5.3076    0.8904    0.1558 S   0  0  0  0  0  0  0  0  0  0  0  0
   -5.7436    1.0713   -1.3132 O   0  0  0  0  0  0  0  0  0  0  0  0
   -5.8163    2.1916    0.8031 O   0  0  0  0  0  0  0  0  0  0  0  0
   -6.0831   -0.4445    0.7506 N   0  0  0  0  0  0  0  0  0  0  0  0
   -5.9297   -1.7258    0.2299 C   0  0  0  0  0  0  0  0  0  0  0  0
   -7.2754   -2.4166   -0.0311 C   0  0  0  0  0  0  0  0  0  0  0  0
   -8.1415   -2.3191    1.0291 O   0  0  0  0  0  0  0  0  0  0  0  0
   -8.3139   -1.0535    1.5399 C   0  0  0  0  0  0  0  0  0  0  0  0
   -7.0000   -0.3379    1.8201 C   0  0  0  0  0  0  0  0  0  0  0  0
   -0.1948   -1.7551    0.6712 H   0  0  0  0  0  0  0  0  0  0  0  0
   -1.4762   -2.0941   -0.5022 H   0  0  0  0  0  0  0  0  0  0  0  0
   -0.0890   -1.0934   -1.0576 H   0  0  0  0  0  0  0  0  0  0  0  0
   -1.8165   -0.2895    1.3709 H   0  0  0  0  0  0  0  0  0  0  0  0
   -3.2591   -0.9012   -0.8180 H   0  0  0  0  0  0  0  0  0  0  0  0
   -2.4802    0.5543   -1.4517 H   0  0  0  0  0  0  0  0  0  0  0  0
   -2.9701    1.1440    2.2022 H   0  0  0  0  0  0  0  0  0  0  0  0
   -3.6843    2.5772    1.4541 H   0  0  0  0  0  0  0  0  0  0  0  0
   -1.8331    3.0398    0.0615 H   0  0  0  0  0  0  0  0  0  0  0  0
   -1.0715    2.5625    1.6916 H   0  0  0  0  0  0  0  0  0  0  0  0
    1.4066   -0.0195    0.7797 H   0  0  0  0  0  0  0  0  0  0  0  0
    5.1211    0.9581   -1.6537 H   0  0  0  0  0  0  0  0  0  0  0  0
    6.8288   -1.0438   -2.2063 H   0  0  0  0  0  0  0  0  0  0  0  0
    8.8672   -2.2062   -1.3033 H   0  0  0  0  0  0  0  0  0  0  0  0
    7.8488   -0.8910    2.6157 H   0  0  0  0  0  0  0  0  0  0  0  0
    5.8720    0.2532    1.6855 H   0  0  0  0  0  0  0  0  0  0  0  0
   -5.4095   -2.3987    0.9587 H   0  0  0  0  0  0  0  0  0  0  0  0
   -5.4073   -1.7921   -0.7500 H   0  0  0  0  0  0  0  0  0  0  0  0
   -7.0411   -3.4899   -0.1992 H   0  0  0  0  0  0  0  0  0  0  0  0
   -7.7238   -2.0438   -0.9936 H   0  0  0  0  0  0  0  0  0  0  0  0
   -9.0153   -0.4166    0.9337 H   0  0  0  0  0  0  0  0  0  0  0  0
   -8.8173   -1.1596    2.5422 H   0  0  0  0  0  0  0  0  0  0  0  0
   -7.2402    0.6823    2.1535 H   0  0  0  0  0  0  0  0  0  0  0  0
   -6.5454   -0.8793    2.7120 H   0  0  0  0  0  0  0  0  0  0  0  0
  1  2  1  0
  2  3  1  0
  3  4  1  0
  4  5  1  0
  5  6  1  0
  6  7  1  0
  7  8  1  0
  8  9  2  0
  9 10  1  0
 10 11  2  0
 11 12  1  0
 12 13  2  0
 12 14  1  0
 14 15  1  0
 14 16  1  0
 14 17  1  0
 10 18  1  0
 18 19  2  0
 18 20  1  0
 20 21  1  0
 21 22  2  0
 22 23  1  0
 23 24  2  0
 24 25  1  0
 25 26  2  0
 24 27  1  0
 27 28  1  0
 27 29  1  0
 27 30  1  0
  4 31  1  0
 31 32  2  0
 31 33  2  0
 31 34  1  0
 34 35  1  0
 35 36  1  0
 36 37  1  0
 37 38  1  0
 38 39  1  0
  7  2  1  0
 13  8  1  0
 26 21  1  0
 39 34  1  0
  1 40  1  0
  1 41  1  0
  1 42  1  0
  2 43  1  1
  3 44  1  0
  3 45  1  0
  5 46  1  0
  5 47  1  0
  6 48  1  0
  6 49  1  0
  9 50  1  0
 20 51  1  0
 22 52  1  0
 23 53  1  0
 25 54  1  0
 26 55  1  0
 35 56  1  0
 35 57  1  0
 36 58  1  0
 36 59  1  0
 38 60  1  0
 38 61  1  0
 39 62  1  0
 39 63  1  0
M  END
$$$$
[H]c1c([H])c([H])c(C([H])([H])OC(=O)N([H])[C@]([H])(C(=O)N([H])[C@]([H])(C(=O)N([H])[H])C([H])([H])c2c([H])n([H])c3c([H])c([H])c([H])c([H])c23)C([H])([H])C([H])(C([H])([H])[H])C([H])([H])[H])c([H])c1[H]
     RDKit          3D

 63 65  0  0  0  0  0  0  0  0999 V2000
    1.2109   -3.1494    2.5516 C   0  0  0  0  0  0  0  0  0  0  0  0
    1.6376   -3.6829    1.2426 C   0  0  0  0  0  0  0  0  0  0  0  0
    1.7055   -5.2066    1.3421 C   0  0  0  0  0  0  0  0  0  0  0  0
    0.8786   -3.3667    0.0288 C   0  0  0  0  0  0  0  0  0  0  0  0
    0.7946   -1.8640   -0.3886 C   0  0  2  0  0  0  0  0  0  0  0  0
    2.0939   -1.4244   -0.5951 N   0  0  0  0  0  0  0  0  0  0  0  0
    2.6315   -0.2204   -1.1325 C   0  0  0  0  0  0  0  0  0  0  0  0
    2.0974    0.8257   -1.3620 O   0  0  0  0  0  0  0  0  0  0  0  0
    3.9982   -0.2829   -1.4903 O   0  0  0  0  0  0  0  0  0  0  0  0
    4.7654    0.7317   -2.0289 C   0  0  0  0  0  0  0  0  0  0  0  0
    5.4285    1.6671   -1.1081 C   0  0  0  0  0  0  0  0  0  0  0  0
    6.3936    1.0278   -0.3091 C   0  0  0  0  0  0  0  0  0  0  0  0
    7.1974    1.7249    0.5507 C   0  0  0  0  0  0  0  0  0  0  0  0
    7.0591    3.0723    0.6365 C   0  0  0  0  0  0  0  0  0  0  0  0
    6.0985    3.7098   -0.1409 C   0  0  0  0  0  0  0  0  0  0  0  0
    5.2974    2.9887   -1.0072 C   0  0  0  0  0  0  0  0  0  0  0  0
   -0.3881   -1.2728    0.2098 C   0  0  0  0  0  0  0  0  0  0  0  0
   -1.0962   -2.0795    0.9300 O   0  0  0  0  0  0  0  0  0  0  0  0
   -0.7556    0.0288   -0.0022 N   0  0  0  0  0  0  0  0  0  0  0  0
   -1.9822    0.8251    0.2705 C   0  0  1  0  0  0  0  0  0  0  0  0
   -2.9798    0.0923   -0.4839 C   0  0  0  0  0  0  0  0  0  0  0  0
   -4.3082    0.3270   -0.8226 C   0  0  0  0  0  0  0  0  0  0  0  0
   -4.9991   -0.6448   -1.6229 C   0  0  0  0  0  0  0  0  0  0  0  0
   -6.2235   -0.1858   -1.8988 N   0  0  0  0  0  0  0  0  0  0  0  0
   -6.4066    1.0267   -1.3341 C   0  0  0  0  0  0  0  0  0  0  0  0
   -7.4529    1.9182   -1.3243 C   0  0  0  0  0  0  0  0  0  0  0  0
   -7.3987    3.1113   -0.6937 C   0  0  0  0  0  0  0  0  0  0  0  0
   -6.2000    3.4044   -0.0295 C   0  0  0  0  0  0  0  0  0  0  0  0
   -5.1331    2.5333   -0.0169 C   0  0  0  0  0  0  0  0  0  0  0  0
   -5.2356    1.3319   -0.6849 C   0  0  0  0  0  0  0  0  0  0  0  0
   -2.0607    0.8732    1.7100 C   0  0  0  0  0  0  0  0  0  0  0  0
   -2.3391    2.0688    2.4889 N   0  0  0  0  0  0  0  0  0  0  0  0
   -1.8668   -0.1654    2.4459 O   0  0  0  0  0  0  0  0  0  0  0  0
    1.1440   -2.0694    2.6478 H   0  0  0  0  0  0  0  0  0  0  0  0
    2.0124   -3.4806    3.2939 H   0  0  0  0  0  0  0  0  0  0  0  0
    0.3253   -3.7231    2.9109 H   0  0  0  0  0  0  0  0  0  0  0  0
    2.7636   -3.4222    1.1066 H   0  0  0  0  0  0  0  0  0  0  0  0
    0.7922   -5.6006    1.7877 H   0  0  0  0  0  0  0  0  0  0  0  0
    1.7891   -5.6884    0.3291 H   0  0  0  0  0  0  0  0  0  0  0  0
    2.6053   -5.5019    1.9628 H   0  0  0  0  0  0  0  0  0  0  0  0
    1.2866   -3.9298   -0.8266 H   0  0  0  0  0  0  0  0  0  0  0  0
   -0.1848   -3.6543    0.2046 H   0  0  0  0  0  0  0  0  0  0  0  0
    0.4143   -2.0002   -1.5060 H   0  0  0  0  0  0  0  0  0  0  0  0
    2.9050   -2.1025   -0.3065 H   0  0  0  0  0  0  0  0  0  0  0  0
    5.3942    0.4045   -2.9104 H   0  0  0  0  0  0  0  0  0  0  0  0
    3.9645    1.3884   -2.6102 H   0  0  0  0  0  0  0  0  0  0  0  0
    6.5037   -0.0606   -0.3505 H   0  0  0  0  0  0  0  0  0  0  0  0
    7.9204    1.1389    1.1303 H   0  0  0  0  0  0  0  0  0  0  0  0
    7.6848    3.6507    1.3002 H   0  0  0  0  0  0  0  0  0  0  0  0
    6.0129    4.8020   -0.0345 H   0  0  0  0  0  0  0  0  0  0  0  0
    4.5775    3.5376   -1.5899 H   0  0  0  0  0  0  0  0  0  0  0  0
    0.0326    0.7221   -0.2942 H   0  0  0  0  0  0  0  0  0  0  0  0
   -1.7278    1.8150   -0.2179 H   0  0  0  0  0  0  0  0  0  0  0  0
   -3.0084   -0.9548    0.0918 H   0  0  0  0  0  0  0  0  0  0  0  0
   -2.4539   -0.3037   -1.4302 H   0  0  0  0  0  0  0  0  0  0  0  0
   -4.5815   -1.5794   -1.9662 H   0  0  0  0  0  0  0  0  0  0  0  0
   -6.9387   -0.6601   -2.4834 H   0  0  0  0  0  0  0  0  0  0  0  0
   -8.3483    1.6222   -1.8745 H   0  0  0  0  0  0  0  0  0  0  0  0
   -8.2505    3.8202   -0.6613 H   0  0  0  0  0  0  0  0  0  0  0  0
   -6.1164    4.3444    0.4700 H   0  0  0  0  0  0  0  0  0  0  0  0
   -4.2189    2.7364    0.4559 H   0  0  0  0  0  0  0  0  0  0  0  0
   -2.9137    2.0824    3.3124 H   0  0  0  0  0  0  0  0  0  0  0  0
   -1.8474    2.9237    2.1273 H   0  0  0  0  0  0  0  0  0  0  0  0
  1  2  1  0
  2  3  1  0
  2  4  1  0
  4  5  1  0
  5  6  1  0
  6  7  1  0
  7  8  2  0
  7  9  1  0
  9 10  1  0
 10 11  1  0
 11 12  2  0
 12 13  1  0
 13 14  2  0
 14 15  1  0
 15 16  2  0
  5 17  1  0
 17 18  2  0
 17 19  1  0
 19 20  1  0
 20 21  1  0
 21 22  1  0
 22 23  2  0
 23 24  1  0
 24 25  1  0
 25 26  2  0
 26 27  1  0
 27 28  2  0
 28 29  1  0
 29 30  2  0
 20 31  1  0
 31 32  1  0
 31 33  2  0
 16 11  1  0
 30 22  1  0
 30 25  1  0
  1 34  1  0
  1 35  1  0
  1 36  1  0
  2 37  1  0
  3 38  1  0
  3 39  1  0
  3 40  1  0
  4 41  1  0
  4 42  1  0
  5 43  1  6
  6 44  1  0
 10 45  1  0
 10 46  1  0
 12 47  1  0
 13 48  1  0
 14 49  1  0
 15 50  1  0
 16 51  1  0
 19 52  1  0
 20 53  1  6
 21 54  1  0
 21 55  1  0
 23 56  1  0
 24 57  1  0
 26 58  1  0
 27 59  1  0
 28 60  1  0
 29 61  1  0
 32 62  1  0
 32 63  1  0
M  END
$$$$
[H]N=C(N([H])[H])N([H])C([H])([H])C([H])([H])C([H])([H])[C@@]([H])(C(=O)N([H])[C@]([H])(C(=O)O[H])C([H])([H])c1c([H])c([H])c([H])c([H])c1[H])N([H])C(=O)[C@@]([H])(N([H])C(=O)[C@@]([H])(N([H])[H])C([H])([H])c1c([H])c([H])c([H])c([H])c1[H])C([H])(C([H])([H])[H])C([H])([H])[H]
     RDKit          3D

 82 83  0  0  0  0  0  0  0  0999 V2000
    1.9473   -1.0938   -2.1218 C   0  0  0  0  0  0  0  0  0  0  0  0
    2.3891    0.2635   -1.6456 C   0  0  0  0  0  0  0  0  0  0  0  0
    3.6790    0.6689   -2.3833 C   0  0  0  0  0  0  0  0  0  0  0  0
    2.5353    0.3947   -0.1885 C   0  0  2  0  0  0  0  0  0  0  0  0
    3.4885   -0.4851    0.4288 N   0  0  0  0  0  0  0  0  0  0  0  0
    4.5618   -0.1232    1.2484 C   0  0  0  0  0  0  0  0  0  0  0  0
    4.7397    1.0874    1.4993 O   0  0  0  0  0  0  0  0  0  0  0  0
    5.4852   -1.1151    1.8242 C   0  0  1  0  0  0  0  0  0  0  0  0
    5.1864   -2.4698    1.3565 N   0  0  0  0  0  0  0  0  0  0  0  0
    6.9349   -0.8672    1.6173 C   0  0  0  0  0  0  0  0  0  0  0  0
    7.3810   -0.8001    0.2136 C   0  0  0  0  0  0  0  0  0  0  0  0
    7.7304   -1.9136   -0.5173 C   0  0  0  0  0  0  0  0  0  0  0  0
    8.1818   -1.8091   -1.8408 C   0  0  0  0  0  0  0  0  0  0  0  0
    8.2780   -0.5718   -2.4237 C   0  0  0  0  0  0  0  0  0  0  0  0
    7.9379    0.5591   -1.7252 C   0  0  0  0  0  0  0  0  0  0  0  0
    7.4955    0.4257   -0.4192 C   0  0  0  0  0  0  0  0  0  0  0  0
    1.2194    0.3819    0.4837 C   0  0  0  0  0  0  0  0  0  0  0  0
    1.0824   -0.3453    1.5203 O   0  0  0  0  0  0  0  0  0  0  0  0
    0.1321    1.1239    0.0407 N   0  0  0  0  0  0  0  0  0  0  0  0
   -1.1824    1.1336    0.7096 C   0  0  1  0  0  0  0  0  0  0  0  0
   -1.5939    2.5402    0.9405 C   0  0  0  0  0  0  0  0  0  0  0  0
   -2.8787    2.8243    1.6054 C   0  0  0  0  0  0  0  0  0  0  0  0
   -2.9565    4.3729    1.7282 C   0  0  0  0  0  0  0  0  0  0  0  0
   -4.1837    4.7433    2.3771 N   0  0  0  0  0  0  0  0  0  0  0  0
   -4.4284    4.4529    3.7496 C   0  0  0  0  0  0  0  0  0  0  0  0
   -5.7294    4.0537    4.1252 N   0  0  0  0  0  0  0  0  0  0  0  0
   -3.4701    4.5615    4.5994 N   0  0  0  0  0  0  0  0  0  0  0  0
   -2.1367    0.4021   -0.1169 C   0  0  0  0  0  0  0  0  0  0  0  0
   -1.7250    0.0567   -1.2909 O   0  0  0  0  0  0  0  0  0  0  0  0
   -3.4440    0.0142    0.1919 N   0  0  0  0  0  0  0  0  0  0  0  0
   -4.2367   -0.7316   -0.7957 C   0  0  1  0  0  0  0  0  0  0  0  0
   -4.5557   -2.0735   -0.2317 C   0  0  0  0  0  0  0  0  0  0  0  0
   -5.3386   -2.9733   -1.0966 C   0  0  0  0  0  0  0  0  0  0  0  0
   -4.6885   -3.7857   -2.0489 C   0  0  0  0  0  0  0  0  0  0  0  0
   -5.3799   -4.6496   -2.8474 C   0  0  0  0  0  0  0  0  0  0  0  0
   -6.7496   -4.7660   -2.7563 C   0  0  0  0  0  0  0  0  0  0  0  0
   -7.4165   -3.9855   -1.8350 C   0  0  0  0  0  0  0  0  0  0  0  0
   -6.7055   -3.1202   -1.0385 C   0  0  0  0  0  0  0  0  0  0  0  0
   -5.4014    0.0491   -1.2340 C   0  0  0  0  0  0  0  0  0  0  0  0
   -6.2933   -0.3747   -2.1842 O   0  0  0  0  0  0  0  0  0  0  0  0
   -5.6407    1.2074   -0.7282 O   0  0  0  0  0  0  0  0  0  0  0  0
    2.8301   -1.7256   -2.3004 H   0  0  0  0  0  0  0  0  0  0  0  0
    1.4469   -0.9814   -3.1288 H   0  0  0  0  0  0  0  0  0  0  0  0
    1.1877   -1.5353   -1.4632 H   0  0  0  0  0  0  0  0  0  0  0  0
    1.6390    0.9954   -2.0017 H   0  0  0  0  0  0  0  0  0  0  0  0
    4.4379   -0.1226   -2.3028 H   0  0  0  0  0  0  0  0  0  0  0  0
    3.4706    1.0132   -3.3959 H   0  0  0  0  0  0  0  0  0  0  0  0
    4.0626    1.5518   -1.8060 H   0  0  0  0  0  0  0  0  0  0  0  0
    2.9403    1.4343    0.0232 H   0  0  0  0  0  0  0  0  0  0  0  0
    3.3477   -1.5036    0.2340 H   0  0  0  0  0  0  0  0  0  0  0  0
    5.2651   -1.0775    2.9437 H   0  0  0  0  0  0  0  0  0  0  0  0
    4.2907   -2.7635    1.8066 H   0  0  0  0  0  0  0  0  0  0  0  0
    5.1444   -2.4494    0.3145 H   0  0  0  0  0  0  0  0  0  0  0  0
    7.4987   -1.7457    2.0590 H   0  0  0  0  0  0  0  0  0  0  0  0
    7.3221    0.0026    2.1972 H   0  0  0  0  0  0  0  0  0  0  0  0
    7.6574   -2.8909   -0.0691 H   0  0  0  0  0  0  0  0  0  0  0  0
    8.4518   -2.7212   -2.3883 H   0  0  0  0  0  0  0  0  0  0  0  0
    8.6220   -0.4842   -3.4313 H   0  0  0  0  0  0  0  0  0  0  0  0
    8.0094    1.5559   -2.1756 H   0  0  0  0  0  0  0  0  0  0  0  0
    7.2306    1.3019    0.1463 H   0  0  0  0  0  0  0  0  0  0  0  0
    0.1943    1.7246   -0.8036 H   0  0  0  0  0  0  0  0  0  0  0  0
   -1.0634    0.5717    1.6550 H   0  0  0  0  0  0  0  0  0  0  0  0
   -0.8005    3.1089    1.5238 H   0  0  0  0  0  0  0  0  0  0  0  0
   -1.5880    3.0355   -0.0867 H   0  0  0  0  0  0  0  0  0  0  0  0
   -2.9553    2.4627    2.6457 H   0  0  0  0  0  0  0  0  0  0  0  0
   -3.7913    2.4841    1.0688 H   0  0  0  0  0  0  0  0  0  0  0  0
   -2.9156    4.8214    0.7248 H   0  0  0  0  0  0  0  0  0  0  0  0
   -2.0659    4.7334    2.2890 H   0  0  0  0  0  0  0  0  0  0  0  0
   -4.9255    5.2384    1.8438 H   0  0  0  0  0  0  0  0  0  0  0  0
   -6.4605    4.7612    4.2766 H   0  0  0  0  0  0  0  0  0  0  0  0
   -5.9405    3.0500    4.2468 H   0  0  0  0  0  0  0  0  0  0  0  0
   -2.5296    4.8559    4.2954 H   0  0  0  0  0  0  0  0  0  0  0  0
   -3.8765    0.2125    1.0963 H   0  0  0  0  0  0  0  0  0  0  0  0
   -3.6174   -0.9100   -1.7243 H   0  0  0  0  0  0  0  0  0  0  0  0
   -5.0488   -1.9359    0.7710 H   0  0  0  0  0  0  0  0  0  0  0  0
   -3.5993   -2.6094    0.0206 H   0  0  0  0  0  0  0  0  0  0  0  0
   -3.6214   -3.6822   -2.1056 H   0  0  0  0  0  0  0  0  0  0  0  0
   -4.8252   -5.2498   -3.5606 H   0  0  0  0  0  0  0  0  0  0  0  0
   -7.3120   -5.4392   -3.3746 H   0  0  0  0  0  0  0  0  0  0  0  0
   -8.4856   -4.0608   -1.7472 H   0  0  0  0  0  0  0  0  0  0  0  0
   -7.2496   -2.5102   -0.3134 H   0  0  0  0  0  0  0  0  0  0  0  0
   -6.6280    0.2200   -2.9353 H   0  0  0  0  0  0  0  0  0  0  0  0
  1  2  1  0
  2  3  1  0
  2  4  1  0
  4  5  1  0
  5  6  1  0
  6  7  2  0
  6  8  1  0
  8  9  1  0
  8 10  1  0
 10 11  1  0
 11 12  2  0
 12 13  1  0
 13 14  2  0
 14 15  1  0
 15 16  2  0
  4 17  1  0
 17 18  2  0
 17 19  1  0
 19 20  1  0
 20 21  1  0
 21 22  1  0
 22 23  1  0
 23 24  1  0
 24 25  1  0
 25 26  1  0
 25 27  2  3
 20 28  1  0
 28 29  2  0
 28 30  1  0
 30 31  1  0
 31 32  1  0
 32 33  1  0
 33 34  2  0
 34 35  1  0
 35 36  2  0
 36 37  1  0
 37 38  2  0
 31 39  1  0
 39 40  1  0
 39 41  2  0
 16 11  1  0
 38 33  1  0
  1 42  1  0
  1 43  1  0
  1 44  1  0
  2 45  1  0
  3 46  1  0
  3 47  1  0
  3 48  1  0
  4 49  1  6
  5 50  1  0
  8 51  1  1
  9 52  1  0
  9 53  1  0
 10 54  1  0
 10 55  1  0
 12 56  1  0
 13 57  1  0
 14 58  1  0
 15 59  1  0
 16 60  1  0
 19 61  1  0
 20 62  1  1
 21 63  1  0
 21 64  1  0
 22 65  1  0
 22 66  1  0
 23 67  1  0
 23 68  1  0
 24 69  1  0
 26 70  1  0
 26 71  1  0
 27 72  1  0
 30 73  1  0
 31 74  1  6
 32 75  1  0
 32 76  1  0
 34 77  1  0
 35 78  1  0
 36 79  1  0
 37 80  1  0
 38 81  1  0
 40 82  1  0
M  END
$$$$
[H]Oc1c([H])c(-c2c([H])nc3c(c(N([H])[H])nn3[H])c2[H])c([H])c(O[H])c1O[H]
     RDKit          3D

 29 31  0  0  0  0  0  0  0  0999 V2000
   -4.0006    1.7258   -1.0605 N   0  0  0  0  0  0  0  0  0  0  0  0
   -3.8764    0.7556   -0.0347 C   0  0  0  0  0  0  0  0  0  0  0  0
   -4.8535    0.2370    0.7483 N   0  0  0  0  0  0  0  0  0  0  0  0
   -4.3290   -0.6485    1.5953 N   0  0  0  0  0  0  0  0  0  0  0  0
   -3.0027   -0.7438    1.4027 C   0  0  0  0  0  0  0  0  0  0  0  0
   -2.0052   -1.4533    1.9537 N   0  0  0  0  0  0  0  0  0  0  0  0
   -0.7392   -1.3194    1.5271 C   0  0  0  0  0  0  0  0  0  0  0  0
   -0.3951   -0.4478    0.5015 C   0  0  0  0  0  0  0  0  0  0  0  0
   -1.4033    0.2745   -0.0620 C   0  0  0  0  0  0  0  0  0  0  0  0
   -2.7113    0.1329    0.3831 C   0  0  0  0  0  0  0  0  0  0  0  0
    0.9857   -0.2990    0.0349 C   0  0  0  0  0  0  0  0  0  0  0  0
    1.8606   -1.3921    0.0689 C   0  0  0  0  0  0  0  0  0  0  0  0
    3.1559   -1.3049   -0.3439 C   0  0  0  0  0  0  0  0  0  0  0  0
    3.9506   -2.4403   -0.2744 O   0  0  0  0  0  0  0  0  0  0  0  0
    3.6231   -0.0995   -0.8117 C   0  0  0  0  0  0  0  0  0  0  0  0
    4.9396   -0.0308   -1.2254 O   0  0  0  0  0  0  0  0  0  0  0  0
    2.7725    1.0101   -0.8576 C   0  0  0  0  0  0  0  0  0  0  0  0
    3.3175    2.1898   -1.3415 O   0  0  0  0  0  0  0  0  0  0  0  0
    1.4690    0.8812   -0.4312 C   0  0  0  0  0  0  0  0  0  0  0  0
   -3.9574    2.7275   -0.8026 H   0  0  0  0  0  0  0  0  0  0  0  0
   -4.1299    1.4364   -2.0342 H   0  0  0  0  0  0  0  0  0  0  0  0
   -4.8093   -1.2262    2.3319 H   0  0  0  0  0  0  0  0  0  0  0  0
    0.0911   -1.8840    1.9590 H   0  0  0  0  0  0  0  0  0  0  0  0
   -1.2198    0.9717   -0.8640 H   0  0  0  0  0  0  0  0  0  0  0  0
    1.4324   -2.3137    0.4478 H   0  0  0  0  0  0  0  0  0  0  0  0
    4.9286   -2.4271   -0.5715 H   0  0  0  0  0  0  0  0  0  0  0  0
    5.2712    0.8817   -1.5711 H   0  0  0  0  0  0  0  0  0  0  0  0
    2.8212    3.0592   -1.4275 H   0  0  0  0  0  0  0  0  0  0  0  0
    0.8137    1.7465   -0.4711 H   0  0  0  0  0  0  0  0  0  0  0  0
  1  2  1  0
  2  3  2  0
  3  4  1  0
  4  5  1  0
  5  6  2  0
  6  7  1  0
  7  8  2  0
  8  9  1  0
  9 10  2  0
  8 11  1  0
 11 12  2  0
 12 13  1  0
 13 14  1  0
 13 15  2  0
 15 16  1  0
 15 17  1  0
 17 18  1  0
 17 19  2  0
 10  2  1  0
 19 11  1  0
 10  5  1  0
  1 20  1  0
  1 21  1  0
  4 22  1  0
  7 23  1  0
  9 24  1  0
 12 25  1  0
 14 26  1  0
 16 27  1  0
 18 28  1  0
 19 29  1  0
M  END
$$$$
[H]c1c([H])c(C(F)(F)F)c([H])c([H])c1-c1nc(C2([H])C([H])([H])C([H])([H])N(C(=O)c3c(C([H])([H])[H])c([H])c(C(C([H])([H])[H])(C([H])([H])[H])C([H])([H])[H])c([H])c3C([H])([H])[H])C([H])([H])C2([H])[H])no1
     RDKit          3D

 65 68  0  0  0  0  0  0  0  0999 V2000
   -2.8753   -1.5222   -2.2446 C   0  0  0  0  0  0  0  0  0  0  0  0
   -3.5303   -0.9226   -1.0591 C   0  0  0  0  0  0  0  0  0  0  0  0
   -4.5507   -0.0068   -1.1769 C   0  0  0  0  0  0  0  0  0  0  0  0
   -5.1744    0.5684   -0.0759 C   0  0  0  0  0  0  0  0  0  0  0  0
   -4.7145    0.1727    1.1638 C   0  0  0  0  0  0  0  0  0  0  0  0
   -3.6893   -0.7480    1.3443 C   0  0  0  0  0  0  0  0  0  0  0  0
   -3.2259   -1.1655    2.6871 C   0  0  0  0  0  0  0  0  0  0  0  0
   -3.1173   -1.2767    0.2172 C   0  0  0  0  0  0  0  0  0  0  0  0
   -2.0436   -2.2552    0.2810 C   0  0  0  0  0  0  0  0  0  0  0  0
   -2.2978   -3.4979    0.3173 O   0  0  0  0  0  0  0  0  0  0  0  0
   -0.6992   -1.8152    0.3008 N   0  0  0  0  0  0  0  0  0  0  0  0
    0.3234   -2.8654    0.3589 C   0  0  0  0  0  0  0  0  0  0  0  0
    1.6572   -2.2456    0.1452 C   0  0  0  0  0  0  0  0  0  0  0  0
    1.6720   -1.1782   -0.9359 C   0  0  0  0  0  0  0  0  0  0  0  0
    0.7826   -0.0387   -0.5929 C   0  0  0  0  0  0  0  0  0  0  0  0
   -0.4004   -0.4170    0.2686 C   0  0  0  0  0  0  0  0  0  0  0  0
    3.0945   -0.8177   -1.1317 C   0  0  0  0  0  0  0  0  0  0  0  0
    3.8455   -1.0754   -2.2556 N   0  0  0  0  0  0  0  0  0  0  0  0
    5.0404   -0.6521   -2.0740 O   0  0  0  0  0  0  0  0  0  0  0  0
    5.1640   -0.0995   -0.8506 C   0  0  0  0  0  0  0  0  0  0  0  0
    3.9705   -0.2196   -0.3171 N   0  0  0  0  0  0  0  0  0  0  0  0
    6.4385    0.4460   -0.4086 C   0  0  0  0  0  0  0  0  0  0  0  0
    7.5868    0.3120   -1.1723 C   0  0  0  0  0  0  0  0  0  0  0  0
    8.8056    0.8113   -0.7794 C   0  0  0  0  0  0  0  0  0  0  0  0
    8.9539    1.4868    0.4278 C   0  0  0  0  0  0  0  0  0  0  0  0
    7.8156    1.6232    1.1902 C   0  0  0  0  0  0  0  0  0  0  0  0
    6.5777    1.1173    0.7904 C   0  0  0  0  0  0  0  0  0  0  0  0
   10.2833    2.0002    0.8624 C   0  0  0  0  0  0  0  0  0  0  0  0
   10.5759    1.4358    2.0876 F   0  0  0  0  0  0  0  0  0  0  0  0
   11.2675    1.6689   -0.0654 F   0  0  0  0  0  0  0  0  0  0  0  0
   10.3238    3.3617    1.0290 F   0  0  0  0  0  0  0  0  0  0  0  0
   -6.2735    1.5420   -0.2810 C   0  0  0  0  0  0  0  0  0  0  0  0
   -6.7101    2.1119    1.0431 C   0  0  0  0  0  0  0  0  0  0  0  0
   -5.8803    2.6329   -1.2471 C   0  0  0  0  0  0  0  0  0  0  0  0
   -7.4676    0.7520   -0.8217 C   0  0  0  0  0  0  0  0  0  0  0  0
   -2.6007   -2.5948   -2.0845 H   0  0  0  0  0  0  0  0  0  0  0  0
   -3.5775   -1.5085   -3.1014 H   0  0  0  0  0  0  0  0  0  0  0  0
   -1.9302   -0.9979   -2.5035 H   0  0  0  0  0  0  0  0  0  0  0  0
   -4.8937    0.2870   -2.1618 H   0  0  0  0  0  0  0  0  0  0  0  0
   -5.1462    0.5819    2.0511 H   0  0  0  0  0  0  0  0  0  0  0  0
   -3.6974   -2.1812    2.8559 H   0  0  0  0  0  0  0  0  0  0  0  0
   -3.7144   -0.5080    3.4651 H   0  0  0  0  0  0  0  0  0  0  0  0
   -2.1278   -1.1887    2.7796 H   0  0  0  0  0  0  0  0  0  0  0  0
    0.3362   -3.3282    1.3693 H   0  0  0  0  0  0  0  0  0  0  0  0
    0.1308   -3.6521   -0.4076 H   0  0  0  0  0  0  0  0  0  0  0  0
    1.9740   -1.7376    1.0891 H   0  0  0  0  0  0  0  0  0  0  0  0
    2.4504   -2.9815   -0.0979 H   0  0  0  0  0  0  0  0  0  0  0  0
    1.3148   -1.6160   -1.9027 H   0  0  0  0  0  0  0  0  0  0  0  0
    0.4216    0.4955   -1.5203 H   0  0  0  0  0  0  0  0  0  0  0  0
    1.3541    0.7169   -0.0188 H   0  0  0  0  0  0  0  0  0  0  0  0
   -1.2773    0.1359   -0.1265 H   0  0  0  0  0  0  0  0  0  0  0  0
   -0.2764   -0.0611    1.3201 H   0  0  0  0  0  0  0  0  0  0  0  0
    7.5113   -0.2120   -2.1199 H   0  0  0  0  0  0  0  0  0  0  0  0
    9.7160    0.6935   -1.3938 H   0  0  0  0  0  0  0  0  0  0  0  0
    7.9179    2.1517    2.1441 H   0  0  0  0  0  0  0  0  0  0  0  0
    5.7218    1.2619    1.4310 H   0  0  0  0  0  0  0  0  0  0  0  0
   -7.6004    2.7707    0.9022 H   0  0  0  0  0  0  0  0  0  0  0  0
   -5.8607    2.6530    1.4746 H   0  0  0  0  0  0  0  0  0  0  0  0
   -7.0322    1.2789    1.7039 H   0  0  0  0  0  0  0  0  0  0  0  0
   -5.5970    3.5444   -0.6736 H   0  0  0  0  0  0  0  0  0  0  0  0
   -5.1127    2.2931   -1.9614 H   0  0  0  0  0  0  0  0  0  0  0  0
   -6.7874    2.9050   -1.8307 H   0  0  0  0  0  0  0  0  0  0  0  0
   -7.1459    0.2734   -1.7687 H   0  0  0  0  0  0  0  0  0  0  0  0
   -8.3614    1.3801   -0.9602 H   0  0  0  0  0  0  0  0  0  0  0  0
   -7.6379   -0.0788   -0.1020 H   0  0  0  0  0  0  0  0  0  0  0  0
  1  2  1  0
  2  3  2  0
  3  4  1  0
  4  5  2  0
  5  6  1  0
  6  7  1  0
  6  8  2  0
  8  9  1  0
  9 10  2  0
  9 11  1  0
 11 12  1  0
 12 13  1  0
 13 14  1  0
 14 15  1  0
 15 16  1  0
 14 17  1  0
 17 18  2  0
 18 19  1  0
 19 20  1  0
 20 21  2  0
 20 22  1  0
 22 23  2  0
 23 24  1  0
 24 25  2  0
 25 26  1  0
 26 27  2  0
 25 28  1  0
 28 29  1  0
 28 30  1  0
 28 31  1  0
  4 32  1  0
 32 33  1  0
 32 34  1  0
 32 35  1  0
  8  2  1  0
 16 11  1  0
 21 17  1  0
 27 22  1  0
  1 36  1  0
  1 37  1  0
  1 38  1  0
  3 39  1  0
  5 40  1  0
  7 41  1  0
  7 42  1  0
  7 43  1  0
 12 44  1  0
 12 45  1  0
 13 46  1  0
 13 47  1  0
 14 48  1  0
 15 49  1  0
 15 50  1  0
 16 51  1  0
 16 52  1  0
 23 53  1  0
 24 54  1  0
 26 55  1  0
 27 56  1  0
 33 57  1  0
 33 58  1  0
 33 59  1  0
 34 60  1  0
 34 61  1  0
 34 62  1  0
 35 63  1  0
 35 64  1  0
 35 65  1  0
M  END
$$$$
[H]OC(=O)[C@@]1([H])O[C@@]([H])(n2c([H])nc3c(N([H])c4c([H])c([H])c(-c5c([H])c([H])c([H])c([H])c5[H])c([H])c4[H])nc(Cl)nc32)[C@]([H])(O[H])[C@]1([H])O[H]
     RDKit          3D

 51 55  0  0  0  0  0  0  0  0999 V2000
   -8.9409    1.1371   -0.8404 O   0  0  0  0  0  0  0  0  0  0  0  0
   -7.6357    0.9290   -1.2309 C   0  0  0  0  0  0  0  0  0  0  0  0
   -7.0867    1.7267   -2.0303 O   0  0  0  0  0  0  0  0  0  0  0  0
   -6.8762   -0.2144   -0.7243 C   0  0  1  0  0  0  0  0  0  0  0  0
   -5.5740   -0.2315   -1.2515 O   0  0  0  0  0  0  0  0  0  0  0  0
   -4.8427   -1.0352   -0.3491 C   0  0  2  0  0  0  0  0  0  0  0  0
   -5.2169   -0.4323    0.9599 C   0  0  2  0  0  0  0  0  0  0  0  0
   -5.0790   -1.3466    2.0198 O   0  0  0  0  0  0  0  0  0  0  0  0
   -6.7281   -0.2301    0.7787 C   0  0  2  0  0  0  0  0  0  0  0  0
   -7.3892   -1.3780    1.2385 O   0  0  0  0  0  0  0  0  0  0  0  0
   -3.4563   -0.9490   -0.6734 N   0  0  0  0  0  0  0  0  0  0  0  0
   -2.9737   -1.1646   -1.9099 C   0  0  0  0  0  0  0  0  0  0  0  0
   -1.6366   -1.0160   -1.9201 N   0  0  0  0  0  0  0  0  0  0  0  0
   -1.2424   -0.7028   -0.6895 C   0  0  0  0  0  0  0  0  0  0  0  0
    0.0420   -0.4436   -0.1653 C   0  0  0  0  0  0  0  0  0  0  0  0
    1.1594   -0.5236   -1.0078 N   0  0  0  0  0  0  0  0  0  0  0  0
    2.5092   -0.2809   -0.6809 C   0  0  0  0  0  0  0  0  0  0  0  0
    3.4924   -0.8552   -1.5088 C   0  0  0  0  0  0  0  0  0  0  0  0
    4.8087   -0.6208   -1.2323 C   0  0  0  0  0  0  0  0  0  0  0  0
    5.2160    0.1577   -0.1722 C   0  0  0  0  0  0  0  0  0  0  0  0
    4.2375    0.7002    0.6110 C   0  0  0  0  0  0  0  0  0  0  0  0
    2.8820    0.4998    0.3822 C   0  0  0  0  0  0  0  0  0  0  0  0
    6.6024    0.4108    0.1283 C   0  0  0  0  0  0  0  0  0  0  0  0
    7.5357   -0.5689   -0.1637 C   0  0  0  0  0  0  0  0  0  0  0  0
    8.8877   -0.4075    0.0919 C   0  0  0  0  0  0  0  0  0  0  0  0
    9.3484    0.7628    0.6579 C   0  0  0  0  0  0  0  0  0  0  0  0
    8.4182    1.7407    0.9494 C   0  0  0  0  0  0  0  0  0  0  0  0
    7.0668    1.5781    0.6934 C   0  0  0  0  0  0  0  0  0  0  0  0
    0.0372   -0.1598    1.1369 N   0  0  0  0  0  0  0  0  0  0  0  0
   -1.0644   -0.1170    1.9013 C   0  0  0  0  0  0  0  0  0  0  0  0
   -0.8575    0.2763    3.5990 Cl  0  0  0  0  0  0  0  0  0  0  0  0
   -2.2994   -0.3697    1.3811 N   0  0  0  0  0  0  0  0  0  0  0  0
   -2.3757   -0.6616    0.0842 C   0  0  0  0  0  0  0  0  0  0  0  0
   -9.5242    0.4677   -0.3900 H   0  0  0  0  0  0  0  0  0  0  0  0
   -7.3593   -1.1496   -1.1134 H   0  0  0  0  0  0  0  0  0  0  0  0
   -5.2651   -2.0574   -0.3916 H   0  0  0  0  0  0  0  0  0  0  0  0
   -4.7242    0.5242    1.1830 H   0  0  0  0  0  0  0  0  0  0  0  0
   -5.0478   -0.9127    2.8905 H   0  0  0  0  0  0  0  0  0  0  0  0
   -7.0872    0.6758    1.2721 H   0  0  0  0  0  0  0  0  0  0  0  0
   -7.1101   -2.1344    0.6353 H   0  0  0  0  0  0  0  0  0  0  0  0
   -3.5471   -1.4219   -2.7926 H   0  0  0  0  0  0  0  0  0  0  0  0
    0.9793   -0.7981   -2.0333 H   0  0  0  0  0  0  0  0  0  0  0  0
    3.1794   -1.4754   -2.3529 H   0  0  0  0  0  0  0  0  0  0  0  0
    5.5443   -1.0836   -1.8974 H   0  0  0  0  0  0  0  0  0  0  0  0
    4.4980    1.3243    1.4631 H   0  0  0  0  0  0  0  0  0  0  0  0
    2.1553    0.9670    1.0281 H   0  0  0  0  0  0  0  0  0  0  0  0
    7.1997   -1.5130   -0.6156 H   0  0  0  0  0  0  0  0  0  0  0  0
    9.6182   -1.1612   -0.1308 H   0  0  0  0  0  0  0  0  0  0  0  0
   10.4106    0.9083    0.8669 H   0  0  0  0  0  0  0  0  0  0  0  0
    8.7695    2.6660    1.3951 H   0  0  0  0  0  0  0  0  0  0  0  0
    6.3426    2.3408    0.9205 H   0  0  0  0  0  0  0  0  0  0  0  0
  1  2  1  0
  2  3  2  0
  2  4  1  0
  4  5  1  0
  5  6  1  0
  6  7  1  0
  7  8  1  0
  7  9  1  0
  9 10  1  0
  6 11  1  0
 11 12  1  0
 12 13  2  0
 13 14  1  0
 14 15  2  0
 15 16  1  0
 16 17  1  0
 17 18  2  0
 18 19  1  0
 19 20  2  0
 20 21  1  0
 21 22  2  0
 20 23  1  0
 23 24  2  0
 24 25  1  0
 25 26  2  0
 26 27  1  0
 27 28  2  0
 15 29  1  0
 29 30  2  0
 30 31  1  0
 30 32  1  0
 32 33  2  0
  9  4  1  0
 33 11  1  0
 33 14  1  0
 22 17  1  0
 28 23  1  0
  1 34  1  0
  4 35  1  6
  6 36  1  1
  7 37  1  1
  8 38  1  0
  9 39  1  1
 10 40  1  0
 12 41  1  0
 16 42  1  0
 18 43  1  0
 19 44  1  0
 21 45  1  0
 22 46  1  0
 24 47  1  0
 25 48  1  0
 26 49  1  0
 27 50  1  0
 28 51  1  0
M  END
$$$$
[H]c1c([H])c([H])c(C([H])([H])[C@@]([H])(C(=O)N([H])[C@]([H])(C(=O)N([H])[C@]([H])(C(=O)N([H])[C@]([H])(C(=O)N([H])[C@]([H])(C(=O)N([H])[C@]([H])(C(=O)N([H])C([H])(C([H])(C([H])([H])[H])C([H])([H])[H])C([H])(C([H])([H])[H])C([H])([H])[H])C([H])([H])c2c([H])c([H])c([H])c([H])c2[H])C([H])([H])C([H])(C([H])([H])[H])C([H])([H])[H])C([H])([H])C([H])(C([H])([H])[H])C([H])([H])[H])C([H])([H])C([H])(C([H])([H])[H])C([H])([H])[H])C([H])([H])C([H])(C([H])([H])[H])C([H])([H])[H])N([H])[H])c([H])c1[H]
     RDKit          3D

141142  0  0  0  0  0  0  0  0999 V2000
  -10.6461    3.0270    0.7933 C   0  0  0  0  0  0  0  0  0  0  0  0
  -10.7164    1.5440    0.7924 C   0  0  0  0  0  0  0  0  0  0  0  0
  -12.1768    1.0991    0.7757 C   0  0  0  0  0  0  0  0  0  0  0  0
   -9.9454    0.8115   -0.2447 C   0  0  0  0  0  0  0  0  0  0  0  0
   -8.5358    1.1533   -0.0671 N   0  0  0  0  0  0  0  0  0  0  0  0
   -7.4761    0.2237   -0.0520 C   0  0  0  0  0  0  0  0  0  0  0  0
   -7.8621   -0.9964   -0.2331 O   0  0  0  0  0  0  0  0  0  0  0  0
   -6.0677    0.4963    0.1244 C   0  0  2  0  0  0  0  0  0  0  0  0
   -5.5919    1.7256    0.7956 C   0  0  0  0  0  0  0  0  0  0  0  0
   -5.9787    1.8510    2.2240 C   0  0  0  0  0  0  0  0  0  0  0  0
   -5.2159    1.1158    3.1341 C   0  0  0  0  0  0  0  0  0  0  0  0
   -5.5040    1.2375    4.4666 C   0  0  0  0  0  0  0  0  0  0  0  0
   -6.5266    2.0661    4.9336 C   0  0  0  0  0  0  0  0  0  0  0  0
   -7.2464    2.7669    4.0004 C   0  0  0  0  0  0  0  0  0  0  0  0
   -6.9875    2.6734    2.6373 C   0  0  0  0  0  0  0  0  0  0  0  0
   -5.1679   -0.0302   -0.8851 N   0  0  0  0  0  0  0  0  0  0  0  0
   -4.1114   -0.9108   -0.5830 C   0  0  0  0  0  0  0  0  0  0  0  0
   -3.9312   -1.2943    0.5755 O   0  0  0  0  0  0  0  0  0  0  0  0
   -3.1848   -1.3828   -1.6483 C   0  0  2  0  0  0  0  0  0  0  0  0
   -3.7669   -1.9918   -2.8351 C   0  0  0  0  0  0  0  0  0  0  0  0
   -4.5736   -3.2057   -2.8216 C   0  0  0  0  0  0  0  0  0  0  0  0
   -3.8806   -4.4497   -2.2730 C   0  0  0  0  0  0  0  0  0  0  0  0
   -5.9598   -3.1831   -2.3197 C   0  0  0  0  0  0  0  0  0  0  0  0
   -2.0391   -2.0706   -1.0951 N   0  0  0  0  0  0  0  0  0  0  0  0
   -0.7789   -1.4478   -0.9005 C   0  0  0  0  0  0  0  0  0  0  0  0
   -0.7462   -0.2305   -1.2329 O   0  0  0  0  0  0  0  0  0  0  0  0
    0.4404   -2.0594   -0.3708 C   0  0  2  0  0  0  0  0  0  0  0  0
    0.2294   -2.8779    0.8448 C   0  0  0  0  0  0  0  0  0  0  0  0
    1.2893   -3.5942    1.5156 C   0  0  0  0  0  0  0  0  0  0  0  0
    2.4592   -2.8668    2.0577 C   0  0  0  0  0  0  0  0  0  0  0  0
    0.6271   -4.2308    2.7676 C   0  0  0  0  0  0  0  0  0  0  0  0
    1.4582   -1.0494   -0.2676 N   0  0  0  0  0  0  0  0  0  0  0  0
    2.7119   -0.9529   -0.8493 C   0  0  0  0  0  0  0  0  0  0  0  0
    3.0966   -1.8916   -1.6222 O   0  0  0  0  0  0  0  0  0  0  0  0
    3.6512    0.1547   -0.6419 C   0  0  2  0  0  0  0  0  0  0  0  0
    3.4648    1.3345   -1.5790 C   0  0  0  0  0  0  0  0  0  0  0  0
    2.1705    2.0279   -1.5377 C   0  0  0  0  0  0  0  0  0  0  0  0
    2.2617    3.1740   -2.5786 C   0  0  0  0  0  0  0  0  0  0  0  0
    1.8456    2.7221   -0.2366 C   0  0  0  0  0  0  0  0  0  0  0  0
    5.0493   -0.2709   -0.8711 N   0  0  0  0  0  0  0  0  0  0  0  0
    6.0501   -0.0127    0.0866 C   0  0  0  0  0  0  0  0  0  0  0  0
    5.7130    0.5857    1.1574 O   0  0  0  0  0  0  0  0  0  0  0  0
    7.4804   -0.3675   -0.0339 C   0  0  2  0  0  0  0  0  0  0  0  0
    7.6339   -1.7907   -0.4227 C   0  0  0  0  0  0  0  0  0  0  0  0
    7.0534   -2.8150    0.4914 C   0  0  0  0  0  0  0  0  0  0  0  0
    7.2832   -4.2306   -0.0832 C   0  0  0  0  0  0  0  0  0  0  0  0
    7.7392   -2.8504    1.8450 C   0  0  0  0  0  0  0  0  0  0  0  0
    8.2697    0.1116    1.0519 N   0  0  0  0  0  0  0  0  0  0  0  0
    9.2047    1.2105    0.8539 C   0  0  0  0  0  0  0  0  0  0  0  0
    9.2356    1.6588   -0.3196 O   0  0  0  0  0  0  0  0  0  0  0  0
   10.0370    1.7504    1.9339 C   0  0  1  0  0  0  0  0  0  0  0  0
    9.7383    1.1389    3.2190 N   0  0  0  0  0  0  0  0  0  0  0  0
   11.5152    1.7500    1.6609 C   0  0  0  0  0  0  0  0  0  0  0  0
   11.9536    2.5268    0.4972 C   0  0  0  0  0  0  0  0  0  0  0  0
   12.1581    1.9777   -0.7568 C   0  0  0  0  0  0  0  0  0  0  0  0
   12.5702    2.7088   -1.8562 C   0  0  0  0  0  0  0  0  0  0  0  0
   12.7946    4.0488   -1.7237 C   0  0  0  0  0  0  0  0  0  0  0  0
   12.6028    4.6293   -0.4964 C   0  0  0  0  0  0  0  0  0  0  0  0
   12.1939    3.8945    0.5857 C   0  0  0  0  0  0  0  0  0  0  0  0
  -10.3714    1.0590   -1.6718 C   0  0  0  0  0  0  0  0  0  0  0  0
  -10.2401    2.4512   -2.1619 C   0  0  0  0  0  0  0  0  0  0  0  0
   -9.7224    0.0341   -2.5917 C   0  0  0  0  0  0  0  0  0  0  0  0
   -9.6455    3.4315    0.7598 H   0  0  0  0  0  0  0  0  0  0  0  0
  -11.0557    3.3495    1.8067 H   0  0  0  0  0  0  0  0  0  0  0  0
  -11.3463    3.4382    0.0335 H   0  0  0  0  0  0  0  0  0  0  0  0
  -10.3262    1.2068    1.8002 H   0  0  0  0  0  0  0  0  0  0  0  0
  -12.2219   -0.0038    0.7321 H   0  0  0  0  0  0  0  0  0  0  0  0
  -12.6692    1.4097    1.7359 H   0  0  0  0  0  0  0  0  0  0  0  0
  -12.6539    1.5607   -0.0981 H   0  0  0  0  0  0  0  0  0  0  0  0
  -10.1047   -0.2897   -0.0944 H   0  0  0  0  0  0  0  0  0  0  0  0
   -8.3293    2.1597    0.0161 H   0  0  0  0  0  0  0  0  0  0  0  0
   -5.8042   -0.3026    1.0118 H   0  0  0  0  0  0  0  0  0  0  0  0
   -5.8489    2.6642    0.2433 H   0  0  0  0  0  0  0  0  0  0  0  0
   -4.4634    1.7272    0.7822 H   0  0  0  0  0  0  0  0  0  0  0  0
   -4.4251    0.4766    2.7718 H   0  0  0  0  0  0  0  0  0  0  0  0
   -4.9049    0.6607    5.1848 H   0  0  0  0  0  0  0  0  0  0  0  0
   -6.7475    2.1587    5.9886 H   0  0  0  0  0  0  0  0  0  0  0  0
   -8.0519    3.4286    4.3002 H   0  0  0  0  0  0  0  0  0  0  0  0
   -7.5795    3.2589    1.9258 H   0  0  0  0  0  0  0  0  0  0  0  0
   -5.3163    0.2653   -1.9105 H   0  0  0  0  0  0  0  0  0  0  0  0
   -2.7382   -0.3811   -1.9999 H   0  0  0  0  0  0  0  0  0  0  0  0
   -2.9287   -2.1392   -3.5898 H   0  0  0  0  0  0  0  0  0  0  0  0
   -4.3623   -1.1659   -3.3511 H   0  0  0  0  0  0  0  0  0  0  0  0
   -4.6844   -3.5019   -3.9359 H   0  0  0  0  0  0  0  0  0  0  0  0
   -4.0242   -4.4255   -1.1833 H   0  0  0  0  0  0  0  0  0  0  0  0
   -2.8365   -4.4261   -2.6129 H   0  0  0  0  0  0  0  0  0  0  0  0
   -4.4367   -5.3248   -2.6928 H   0  0  0  0  0  0  0  0  0  0  0  0
   -6.5579   -2.3098   -2.6602 H   0  0  0  0  0  0  0  0  0  0  0  0
   -6.5302   -4.0727   -2.7373 H   0  0  0  0  0  0  0  0  0  0  0  0
   -5.9821   -3.3473   -1.2232 H   0  0  0  0  0  0  0  0  0  0  0  0
   -2.1199   -3.0440   -0.8235 H   0  0  0  0  0  0  0  0  0  0  0  0
    0.7968   -2.7668   -1.1506 H   0  0  0  0  0  0  0  0  0  0  0  0
   -0.2730   -2.2029    1.6036 H   0  0  0  0  0  0  0  0  0  0  0  0
   -0.5904   -3.6128    0.5926 H   0  0  0  0  0  0  0  0  0  0  0  0
    1.6694   -4.5125    0.9919 H   0  0  0  0  0  0  0  0  0  0  0  0
    3.3202   -3.0474    1.3499 H   0  0  0  0  0  0  0  0  0  0  0  0
    2.8553   -3.3347    3.0110 H   0  0  0  0  0  0  0  0  0  0  0  0
    2.3591   -1.7881    2.1462 H   0  0  0  0  0  0  0  0  0  0  0  0
    1.3682   -4.8447    3.3068 H   0  0  0  0  0  0  0  0  0  0  0  0
   -0.2293   -4.8429    2.3670 H   0  0  0  0  0  0  0  0  0  0  0  0
    0.1669   -3.4367    3.3840 H   0  0  0  0  0  0  0  0  0  0  0  0
    1.1826   -0.2466    0.3802 H   0  0  0  0  0  0  0  0  0  0  0  0
    3.6001    0.4778    0.4186 H   0  0  0  0  0  0  0  0  0  0  0  0
    3.6462    0.9510   -2.6065 H   0  0  0  0  0  0  0  0  0  0  0  0
    4.2833    2.0652   -1.3746 H   0  0  0  0  0  0  0  0  0  0  0  0
    1.3166    1.4431   -1.8737 H   0  0  0  0  0  0  0  0  0  0  0  0
    2.5017    2.7286   -3.5739 H   0  0  0  0  0  0  0  0  0  0  0  0
    3.0960    3.8508   -2.3437 H   0  0  0  0  0  0  0  0  0  0  0  0
    1.2756    3.6525   -2.6329 H   0  0  0  0  0  0  0  0  0  0  0  0
    2.4517    3.6296   -0.0536 H   0  0  0  0  0  0  0  0  0  0  0  0
    0.7820    3.0892   -0.3688 H   0  0  0  0  0  0  0  0  0  0  0  0
    1.8227    2.0552    0.6311 H   0  0  0  0  0  0  0  0  0  0  0  0
    5.2598   -0.7551   -1.7448 H   0  0  0  0  0  0  0  0  0  0  0  0
    7.8285    0.2484   -0.9446 H   0  0  0  0  0  0  0  0  0  0  0  0
    8.7310   -2.0426   -0.5716 H   0  0  0  0  0  0  0  0  0  0  0  0
    7.1757   -1.9376   -1.4336 H   0  0  0  0  0  0  0  0  0  0  0  0
    5.9681   -2.7235    0.6451 H   0  0  0  0  0  0  0  0  0  0  0  0
    7.3164   -4.9406    0.7661 H   0  0  0  0  0  0  0  0  0  0  0  0
    8.3012   -4.2279   -0.5294 H   0  0  0  0  0  0  0  0  0  0  0  0
    6.5627   -4.4820   -0.8656 H   0  0  0  0  0  0  0  0  0  0  0  0
    7.6456   -3.8940    2.2367 H   0  0  0  0  0  0  0  0  0  0  0  0
    7.1140   -2.2326    2.5346 H   0  0  0  0  0  0  0  0  0  0  0  0
    8.7846   -2.5253    1.8046 H   0  0  0  0  0  0  0  0  0  0  0  0
    8.2534   -0.2420    2.0292 H   0  0  0  0  0  0  0  0  0  0  0  0
    9.7729    2.8456    2.0767 H   0  0  0  0  0  0  0  0  0  0  0  0
   10.3240    0.3306    3.4517 H   0  0  0  0  0  0  0  0  0  0  0  0
    9.5995    1.8387    3.9674 H   0  0  0  0  0  0  0  0  0  0  0  0
   11.8459    0.6731    1.5233 H   0  0  0  0  0  0  0  0  0  0  0  0
   12.0091    2.1520    2.5820 H   0  0  0  0  0  0  0  0  0  0  0  0
   11.9911    0.9162   -0.9106 H   0  0  0  0  0  0  0  0  0  0  0  0
   12.7168    2.2277   -2.8275 H   0  0  0  0  0  0  0  0  0  0  0  0
   13.1197    4.6427   -2.5871 H   0  0  0  0  0  0  0  0  0  0  0  0
   12.7765    5.7051   -0.3637 H   0  0  0  0  0  0  0  0  0  0  0  0
   12.0643    4.4306    1.5379 H   0  0  0  0  0  0  0  0  0  0  0  0
  -11.4726    0.7657   -1.6883 H   0  0  0  0  0  0  0  0  0  0  0  0
   -9.5874    3.1204   -1.6001 H   0  0  0  0  0  0  0  0  0  0  0  0
  -11.2352    2.9390   -2.2863 H   0  0  0  0  0  0  0  0  0  0  0  0
   -9.8440    2.3808   -3.2254 H   0  0  0  0  0  0  0  0  0  0  0  0
  -10.1836    0.1045   -3.6133 H   0  0  0  0  0  0  0  0  0  0  0  0
   -8.6553    0.2223   -2.7185 H   0  0  0  0  0  0  0  0  0  0  0  0
   -9.9196   -0.9949   -2.2464 H   0  0  0  0  0  0  0  0  0  0  0  0
  1  2  1  0
  2  3  1  0
  2  4  1  0
  4  5  1  0
  5  6  1  0
  6  7  2  0
  6  8  1  0
  8  9  1  0
  9 10  1  0
 10 11  2  0
 11 12  1  0
 12 13  2  0
 13 14  1  0
 14 15  2  0
  8 16  1  0
 16 17  1  0
 17 18  2  0
 17 19  1  0
 19 20  1  0
 20 21  1  0
 21 22  1  0
 21 23  1  0
 19 24  1  0
 24 25  1  0
 25 26  2  0
 25 27  1  0
 27 28  1  0
 28 29  1  0
 29 30  1  0
 29 31  1  0
 27 32  1  0
 32 33  1  0
 33 34  2  0
 33 35  1  0
 35 36  1  0
 36 37  1  0
 37 38  1  0
 37 39  1  0
 35 40  1  0
 40 41  1  0
 41 42  2  0
 41 43  1  0
 43 44  1  0
 44 45  1  0
 45 46  1  0
 45 47  1  0
 43 48  1  0
 48 49  1  0
 49 50  2  0
 49 51  1  0
 51 52  1  0
 51 53  1  0
 53 54  1  0
 54 55  2  0
 55 56  1  0
 56 57  2  0
 57 58  1  0
 58 59  2  0
  4 60  1  0
 60 61  1  0
 60 62  1  0
 15 10  1  0
 59 54  1  0
  1 63  1  0
  1 64  1  0
  1 65  1  0
  2 66  1  0
  3 67  1  0
  3 68  1  0
  3 69  1  0
  4 70  1  0
  5 71  1  0
  8 72  1  1
  9 73  1  0
  9 74  1  0
 11 75  1  0
 12 76  1  0
 13 77  1  0
 14 78  1  0
 15 79  1  0
 16 80  1  0
 19 81  1  6
 20 82  1  0
 20 83  1  0
 21 84  1  0
 22 85  1  0
 22 86  1  0
 22 87  1  0
 23 88  1  0
 23 89  1  0
 23 90  1  0
 24 91  1  0
 27 92  1  6
 28 93  1  0
 28 94  1  0
 29 95  1  0
 30 96  1  0
 30 97  1  0
 30 98  1  0
 31 99  1  0
 31100  1  0
 31101  1  0
 32102  1  0
 35103  1  1
 36104  1  0
 36105  1  0
 37106  1  0
 38107  1  0
 38108  1  0
 38109  1  0
 39110  1  0
 39111  1  0
 39112  1  0
 40113  1  0
 43114  1  6
 44115  1  0
 44116  1  0
 45117  1  0
 46118  1  0
 46119  1  0
 46120  1  0
 47121  1  0
 47122  1  0
 47123  1  0
 48124  1  0
 51125  1  1
 52126  1  0
 52127  1  0
 53128  1  0
 53129  1  0
 55130  1  0
 56131  1  0
 57132  1  0
 58133  1  0
 59134  1  0
 60135  1  0
 61136  1  0
 61137  1  0
 61138  1  0
 62139  1  0
 62140  1  0
 62141  1  0
M  END
$$$$
[H]c1nc(N([H])c2c([H])c([H])c(C(F)(F)F)c([H])c2[H])nc(N2C([H])([H])C([H])([H])N(c3c([H])c([H])nc(N4C([H])([H])C([H])([H])OC([H])([H])C4([H])[H])c3[H])C([H])([H])[C@@]2([H])C([H])([H])[H])c1[H]
     RDKit          3D

 64 68  0  0  0  0  0  0  0  0999 V2000
   -0.5163    0.7432    2.2670 C   0  0  0  0  0  0  0  0  0  0  0  0
   -0.4810    0.2631    0.8687 C   0  0  2  0  0  0  0  0  0  0  0  0
   -1.6252   -0.7841    0.7132 C   0  0  0  0  0  0  0  0  0  0  0  0
   -1.8939   -0.8224   -0.7008 N   0  0  0  0  0  0  0  0  0  0  0  0
   -0.7515   -1.0114   -1.5902 C   0  0  0  0  0  0  0  0  0  0  0  0
    0.4331   -1.3660   -0.7209 C   0  0  0  0  0  0  0  0  0  0  0  0
    0.6604   -0.3040    0.2970 N   0  0  0  0  0  0  0  0  0  0  0  0
    2.0297   -0.0365    0.5459 C   0  0  0  0  0  0  0  0  0  0  0  0
    2.5098    0.3426    1.7649 C   0  0  0  0  0  0  0  0  0  0  0  0
    3.8805    0.5616    1.8902 C   0  0  0  0  0  0  0  0  0  0  0  0
    4.6775    0.4019    0.8413 N   0  0  0  0  0  0  0  0  0  0  0  0
    4.2158    0.0225   -0.3886 C   0  0  0  0  0  0  0  0  0  0  0  0
    5.2255   -0.1568   -1.4174 N   0  0  0  0  0  0  0  0  0  0  0  0
    6.5642    0.0171   -0.9537 C   0  0  0  0  0  0  0  0  0  0  0  0
    6.9552   -0.8273    0.1034 C   0  0  0  0  0  0  0  0  0  0  0  0
    8.1624   -0.6570    0.7220 C   0  0  0  0  0  0  0  0  0  0  0  0
    9.0325    0.3321    0.3394 C   0  0  0  0  0  0  0  0  0  0  0  0
    8.6576    1.1627   -0.6989 C   0  0  0  0  0  0  0  0  0  0  0  0
    7.4109    0.9868   -1.3388 C   0  0  0  0  0  0  0  0  0  0  0  0
   10.3269    0.5385    1.0481 C   0  0  0  0  0  0  0  0  0  0  0  0
   11.2951    0.7959    0.1199 F   0  0  0  0  0  0  0  0  0  0  0  0
   10.5725   -0.6090    1.7995 F   0  0  0  0  0  0  0  0  0  0  0  0
   10.2302    1.5690    1.9894 F   0  0  0  0  0  0  0  0  0  0  0  0
    2.9210   -0.1852   -0.5092 N   0  0  0  0  0  0  0  0  0  0  0  0
   -3.1781   -0.6592   -1.2845 C   0  0  0  0  0  0  0  0  0  0  0  0
   -3.3996   -0.9576   -2.5989 C   0  0  0  0  0  0  0  0  0  0  0  0
   -4.6671   -0.7862   -3.1225 C   0  0  0  0  0  0  0  0  0  0  0  0
   -5.6728   -0.3320   -2.3471 N   0  0  0  0  0  0  0  0  0  0  0  0
   -5.5289   -0.0192   -1.0414 C   0  0  0  0  0  0  0  0  0  0  0  0
   -4.2466   -0.1961   -0.5238 C   0  0  0  0  0  0  0  0  0  0  0  0
   -6.5777    0.4594   -0.2442 N   0  0  0  0  0  0  0  0  0  0  0  0
   -7.7458    1.0712   -0.8324 C   0  0  0  0  0  0  0  0  0  0  0  0
   -8.8190    1.0270    0.2441 C   0  0  0  0  0  0  0  0  0  0  0  0
   -8.8770   -0.1956    0.8634 O   0  0  0  0  0  0  0  0  0  0  0  0
   -7.7435   -0.5925    1.5125 C   0  0  0  0  0  0  0  0  0  0  0  0
   -6.5620    0.3457    1.1862 C   0  0  0  0  0  0  0  0  0  0  0  0
   -0.2886   -0.0197    3.0412 H   0  0  0  0  0  0  0  0  0  0  0  0
   -0.0387    1.7136    2.4029 H   0  0  0  0  0  0  0  0  0  0  0  0
   -1.6194    0.9754    2.4728 H   0  0  0  0  0  0  0  0  0  0  0  0
   -0.8839    1.1235    0.2374 H   0  0  0  0  0  0  0  0  0  0  0  0
   -2.4659   -0.5070    1.3382 H   0  0  0  0  0  0  0  0  0  0  0  0
   -1.1426   -1.7393    1.0211 H   0  0  0  0  0  0  0  0  0  0  0  0
   -0.8838   -1.8335   -2.3113 H   0  0  0  0  0  0  0  0  0  0  0  0
   -0.5950   -0.0337   -2.0808 H   0  0  0  0  0  0  0  0  0  0  0  0
    1.3060   -1.4210   -1.4058 H   0  0  0  0  0  0  0  0  0  0  0  0
    0.2738   -2.3445   -0.2722 H   0  0  0  0  0  0  0  0  0  0  0  0
    1.8916    0.4629    2.6414 H   0  0  0  0  0  0  0  0  0  0  0  0
    4.3054    0.8627    2.8291 H   0  0  0  0  0  0  0  0  0  0  0  0
    4.9263   -0.3869   -2.3622 H   0  0  0  0  0  0  0  0  0  0  0  0
    6.2251   -1.5953    0.3649 H   0  0  0  0  0  0  0  0  0  0  0  0
    8.4416   -1.3054    1.5295 H   0  0  0  0  0  0  0  0  0  0  0  0
    9.3410    1.9488   -1.0005 H   0  0  0  0  0  0  0  0  0  0  0  0
    7.1251    1.6543   -2.1428 H   0  0  0  0  0  0  0  0  0  0  0  0
   -2.5981   -1.3279   -3.2556 H   0  0  0  0  0  0  0  0  0  0  0  0
   -4.8248   -1.0244   -4.1632 H   0  0  0  0  0  0  0  0  0  0  0  0
   -4.1054    0.0587    0.5051 H   0  0  0  0  0  0  0  0  0  0  0  0
   -8.0862    0.5324   -1.7211 H   0  0  0  0  0  0  0  0  0  0  0  0
   -7.5801    2.1668   -1.0174 H   0  0  0  0  0  0  0  0  0  0  0  0
   -8.6896    1.9012    0.9103 H   0  0  0  0  0  0  0  0  0  0  0  0
   -9.7988    1.1371   -0.3093 H   0  0  0  0  0  0  0  0  0  0  0  0
   -7.8300   -0.7554    2.5846 H   0  0  0  0  0  0  0  0  0  0  0  0
   -7.4227   -1.5622    1.0227 H   0  0  0  0  0  0  0  0  0  0  0  0
   -6.7668    1.3282    1.6685 H   0  0  0  0  0  0  0  0  0  0  0  0
   -5.6901   -0.1517    1.6226 H   0  0  0  0  0  0  0  0  0  0  0  0
  1  2  1  0
  2  3  1  0
  3  4  1  0
  4  5  1  0
  5  6  1  0
  6  7  1  0
  7  8  1  0
  8  9  2  0
  9 10  1  0
 10 11  2  0
 11 12  1  0
 12 13  1  0
 13 14  1  0
 14 15  2  0
 15 16  1  0
 16 17  2  0
 17 18  1  0
 18 19  2  0
 17 20  1  0
 20 21  1  0
 20 22  1  0
 20 23  1  0
 12 24  2  0
  4 25  1  0
 25 26  2  0
 26 27  1  0
 27 28  2  0
 28 29  1  0
 29 30  2  0
 29 31  1  0
 31 32  1  0
 32 33  1  0
 33 34  1  0
 34 35  1  0
 35 36  1  0
  7  2  1  0
 24  8  1  0
 30 25  1  0
 36 31  1  0
 19 14  1  0
  1 37  1  0
  1 38  1  0
  1 39  1  0
  2 40  1  6
  3 41  1  0
  3 42  1  0
  5 43  1  0
  5 44  1  0
  6 45  1  0
  6 46  1  0
  9 47  1  0
 10 48  1  0
 13 49  1  0
 15 50  1  0
 16 51  1  0
 18 52  1  0
 19 53  1  0
 26 54  1  0
 27 55  1  0
 30 56  1  0
 32 57  1  0
 32 58  1  0
 33 59  1  0
 33 60  1  0
 35 61  1  0
 35 62  1  0
 36 63  1  0
 36 64  1  0
M  END
$$$$
[H]c1c([H])c(N2C([H])([H])C([H])([H])N(c3c([H])c([H])c(Cl)c(Cl)c3[H])C([H])([H])[C@@]2([H])C([H])([H])[H])c([H])c([H])c1Cl
     RDKit          3D

 39 41  0  0  0  0  0  0  0  0999 V2000
    1.1172   -2.8443   -0.1629 C   0  0  0  0  0  0  0  0  0  0  0  0
    0.5555   -1.5032    0.2690 C   0  0  2  0  0  0  0  0  0  0  0  0
   -0.9224   -1.4165    0.0469 C   0  0  0  0  0  0  0  0  0  0  0  0
   -1.4096   -0.1591   -0.4274 N   0  0  0  0  0  0  0  0  0  0  0  0
   -0.6287    0.6949   -1.3379 C   0  0  0  0  0  0  0  0  0  0  0  0
    0.7026    0.0200   -1.6378 C   0  0  0  0  0  0  0  0  0  0  0  0
    1.3010   -0.4616   -0.4265 N   0  0  0  0  0  0  0  0  0  0  0  0
    2.5237    0.0498    0.0303 C   0  0  0  0  0  0  0  0  0  0  0  0
    3.0693    1.1740   -0.5031 C   0  0  0  0  0  0  0  0  0  0  0  0
    4.2804    1.6480   -0.0381 C   0  0  0  0  0  0  0  0  0  0  0  0
    4.9358    0.9912    0.9590 C   0  0  0  0  0  0  0  0  0  0  0  0
    6.4839    1.6097    1.5437 Cl  0  0  0  0  0  0  0  0  0  0  0  0
    4.4046   -0.1429    1.5109 C   0  0  0  0  0  0  0  0  0  0  0  0
    3.2042   -0.6169    1.0532 C   0  0  0  0  0  0  0  0  0  0  0  0
   -2.6956    0.3421   -0.0553 C   0  0  0  0  0  0  0  0  0  0  0  0
   -3.5995   -0.4052    0.6565 C   0  0  0  0  0  0  0  0  0  0  0  0
   -4.8504    0.1125    1.0131 C   0  0  0  0  0  0  0  0  0  0  0  0
   -5.2056    1.3764    0.6619 C   0  0  0  0  0  0  0  0  0  0  0  0
   -6.7648    2.0951    1.0765 Cl  0  0  0  0  0  0  0  0  0  0  0  0
   -4.3172    2.1574   -0.0566 C   0  0  0  0  0  0  0  0  0  0  0  0
   -4.7073    3.7889   -0.5407 Cl  0  0  0  0  0  0  0  0  0  0  0  0
   -3.0947    1.6301   -0.3964 C   0  0  0  0  0  0  0  0  0  0  0  0
    2.1325   -2.6769   -0.5462 H   0  0  0  0  0  0  0  0  0  0  0  0
    1.1765   -3.5119    0.7223 H   0  0  0  0  0  0  0  0  0  0  0  0
    0.4825   -3.3188   -0.9330 H   0  0  0  0  0  0  0  0  0  0  0  0
    0.7456   -1.3895    1.3438 H   0  0  0  0  0  0  0  0  0  0  0  0
   -1.4442   -1.7410    0.9910 H   0  0  0  0  0  0  0  0  0  0  0  0
   -1.1746   -2.2045   -0.7214 H   0  0  0  0  0  0  0  0  0  0  0  0
   -1.1667    0.7745   -2.3044 H   0  0  0  0  0  0  0  0  0  0  0  0
   -0.4659    1.6772   -0.8727 H   0  0  0  0  0  0  0  0  0  0  0  0
    1.3045    0.6571   -2.2653 H   0  0  0  0  0  0  0  0  0  0  0  0
    0.4372   -0.8906   -2.2571 H   0  0  0  0  0  0  0  0  0  0  0  0
    2.5988    1.7529   -1.2976 H   0  0  0  0  0  0  0  0  0  0  0  0
    4.7093    2.5481   -0.4707 H   0  0  0  0  0  0  0  0  0  0  0  0
    4.9154   -0.6804    2.3093 H   0  0  0  0  0  0  0  0  0  0  0  0
    2.7424   -1.5115    1.4568 H   0  0  0  0  0  0  0  0  0  0  0  0
   -3.3924   -1.4005    0.9611 H   0  0  0  0  0  0  0  0  0  0  0  0
   -5.5676   -0.4808    1.5782 H   0  0  0  0  0  0  0  0  0  0  0  0
   -2.4158    2.2563   -0.9578 H   0  0  0  0  0  0  0  0  0  0  0  0
  1  2  1  0
  2  3  1  0
  3  4  1  0
  4  5  1  0
  5  6  1  0
  6  7  1  0
  7  8  1  0
  8  9  2  0
  9 10  1  0
 10 11  2  0
 11 12  1  0
 11 13  1  0
 13 14  2  0
  4 15  1  0
 15 16  2  0
 16 17  1  0
 17 18  2  0
 18 19  1  0
 18 20  1  0
 20 21  1  0
 20 22  2  0
  7  2  1  0
 14  8  1  0
 22 15  1  0
  1 23  1  0
  1 24  1  0
  1 25  1  0
  2 26  1  1
  3 27  1  0
  3 28  1  0
  5 29  1  0
  5 30  1  0
  6 31  1  0
  6 32  1  0
  9 33  1  0
 10 34  1  0
 13 35  1  0
 14 36  1  0
 16 37  1  0
 17 38  1  0
 22 39  1  0
M  END
$$$$
[H]c1nc2c(c([H])c1C(=O)N1C([H])([H])C([H])([H])N(S(=O)(=O)c3c([H])c([H])c(C(F)(F)F)c([H])c3[H])C([H])([H])C1([H])[H])c([H])c([H])n2[H]
     RDKit          3D

 47 50  0  0  0  0  0  0  0  0999 V2000
    8.3094    0.6453   -0.9856 F   0  0  0  0  0  0  0  0  0  0  0  0
    7.8018    0.6148    0.3075 C   0  0  0  0  0  0  0  0  0  0  0  0
    8.6144   -0.0635    1.1648 F   0  0  0  0  0  0  0  0  0  0  0  0
    7.6171    1.9369    0.6710 F   0  0  0  0  0  0  0  0  0  0  0  0
    6.4387    0.0083    0.2137 C   0  0  0  0  0  0  0  0  0  0  0  0
    5.7262    0.2581   -0.9457 C   0  0  0  0  0  0  0  0  0  0  0  0
    4.4552   -0.2511   -1.1406 C   0  0  0  0  0  0  0  0  0  0  0  0
    3.9040   -1.0231   -0.1389 C   0  0  0  0  0  0  0  0  0  0  0  0
    4.6189   -1.2690    1.0180 C   0  0  0  0  0  0  0  0  0  0  0  0
    5.8854   -0.7569    1.1973 C   0  0  0  0  0  0  0  0  0  0  0  0
    2.2835   -1.6675   -0.4176 S   0  0  0  0  0  0  0  0  0  0  0  0
    2.2545   -2.9894    0.3221 O   0  0  0  0  0  0  0  0  0  0  0  0
    2.2449   -1.9985   -1.9170 O   0  0  0  0  0  0  0  0  0  0  0  0
    1.1515   -0.5810    0.0511 N   0  0  0  0  0  0  0  0  0  0  0  0
    0.2902   -0.8545    1.0990 C   0  0  0  0  0  0  0  0  0  0  0  0
   -0.9815   -0.0251    1.0834 C   0  0  0  0  0  0  0  0  0  0  0  0
   -1.2450    0.6365   -0.1387 N   0  0  0  0  0  0  0  0  0  0  0  0
   -0.1382    1.2108   -0.9296 C   0  0  0  0  0  0  0  0  0  0  0  0
    1.1731    0.7294   -0.4319 C   0  0  0  0  0  0  0  0  0  0  0  0
   -2.5205    0.8870   -0.7163 C   0  0  0  0  0  0  0  0  0  0  0  0
   -2.4804    1.4279   -1.8940 O   0  0  0  0  0  0  0  0  0  0  0  0
   -3.8046    0.6340   -0.1970 C   0  0  0  0  0  0  0  0  0  0  0  0
   -4.0877    0.3880    1.1140 C   0  0  0  0  0  0  0  0  0  0  0  0
   -5.3677    0.0844    1.4871 N   0  0  0  0  0  0  0  0  0  0  0  0
   -6.3759    0.0167    0.6173 C   0  0  0  0  0  0  0  0  0  0  0  0
   -7.6983   -0.2565    0.7312 N   0  0  0  0  0  0  0  0  0  0  0  0
   -8.2868   -0.1950   -0.4779 C   0  0  0  0  0  0  0  0  0  0  0  0
   -7.3297    0.1266   -1.4084 C   0  0  0  0  0  0  0  0  0  0  0  0
   -6.1305    0.2599   -0.7219 C   0  0  0  0  0  0  0  0  0  0  0  0
   -4.8587    0.5660   -1.1311 C   0  0  0  0  0  0  0  0  0  0  0  0
    6.1543    0.8636   -1.7397 H   0  0  0  0  0  0  0  0  0  0  0  0
    3.9123   -0.0439   -2.0783 H   0  0  0  0  0  0  0  0  0  0  0  0
    4.1672   -1.8850    1.8082 H   0  0  0  0  0  0  0  0  0  0  0  0
    6.4343   -0.9461    2.1032 H   0  0  0  0  0  0  0  0  0  0  0  0
    0.0545   -1.9253    1.2714 H   0  0  0  0  0  0  0  0  0  0  0  0
    0.8086   -0.5397    2.0642 H   0  0  0  0  0  0  0  0  0  0  0  0
   -1.7962   -0.8320    1.1576 H   0  0  0  0  0  0  0  0  0  0  0  0
   -1.0808    0.6177    1.9596 H   0  0  0  0  0  0  0  0  0  0  0  0
   -0.1698    2.3284   -0.8284 H   0  0  0  0  0  0  0  0  0  0  0  0
   -0.2874    0.9095   -1.9903 H   0  0  0  0  0  0  0  0  0  0  0  0
    1.4209    1.3947    0.4649 H   0  0  0  0  0  0  0  0  0  0  0  0
    1.9358    0.9538   -1.2008 H   0  0  0  0  0  0  0  0  0  0  0  0
   -3.3909    0.4455    1.9310 H   0  0  0  0  0  0  0  0  0  0  0  0
   -8.1800   -0.4833    1.6510 H   0  0  0  0  0  0  0  0  0  0  0  0
   -9.3254   -0.3691   -0.6742 H   0  0  0  0  0  0  0  0  0  0  0  0
   -7.4206    0.2617   -2.4697 H   0  0  0  0  0  0  0  0  0  0  0  0
   -4.7000    0.7504   -2.1896 H   0  0  0  0  0  0  0  0  0  0  0  0
  1  2  1  0
  2  3  1  0
  2  4  1  0
  2  5  1  0
  5  6  2  0
  6  7  1  0
  7  8  2  0
  8  9  1  0
  9 10  2  0
  8 11  1  0
 11 12  2  0
 11 13  2  0
 11 14  1  0
 14 15  1  0
 15 16  1  0
 16 17  1  0
 17 18  1  0
 18 19  1  0
 17 20  1  0
 20 21  2  0
 20 22  1  0
 22 23  2  0
 23 24  1  0
 24 25  2  0
 25 26  1  0
 26 27  1  0
 27 28  2  0
 28 29  1  0
 29 30  2  0
 10  5  1  0
 19 14  1  0
 30 22  1  0
 29 25  1  0
  6 31  1  0
  7 32  1  0
  9 33  1  0
 10 34  1  0
 15 35  1  0
 15 36  1  0
 16 37  1  0
 16 38  1  0
 18 39  1  0
 18 40  1  0
 19 41  1  0
 19 42  1  0
 23 43  1  0
 26 44  1  0
 27 45  1  0
 28 46  1  0
 30 47  1  0
M  END
$$$$
[H]c1nc(N([H])c2c([H])c([H])c(N3C([H])([H])C([H])([H])C([H])([H])[C@]([H])(N4C([H])([H])C([H])([H])C([H])([H])C4([H])[H])C3([H])[H])c([H])c2OC([H])([H])[H])nc(N([H])c2c([H])c([H])c([H])c([H])c2S(=O)(=O)C([H])(C([H])([H])[H])C([H])([H])[H])c1Cl
     RDKit          3D

 77 81  0  0  0  0  0  0  0  0999 V2000
   -0.7361   -4.4266   -1.7411 C   0  0  0  0  0  0  0  0  0  0  0  0
   -0.2088   -3.2785   -1.1182 O   0  0  0  0  0  0  0  0  0  0  0  0
   -1.0271   -2.2702   -0.6396 C   0  0  0  0  0  0  0  0  0  0  0  0
   -2.3810   -2.4104   -0.7841 C   0  0  0  0  0  0  0  0  0  0  0  0
   -3.2711   -1.4583   -0.3385 C   0  0  0  0  0  0  0  0  0  0  0  0
   -2.7270   -0.3516    0.2635 C   0  0  0  0  0  0  0  0  0  0  0  0
   -1.3441   -0.1943    0.4187 C   0  0  0  0  0  0  0  0  0  0  0  0
   -0.4594   -1.1401   -0.0241 C   0  0  0  0  0  0  0  0  0  0  0  0
    0.9354   -1.0564    0.0925 N   0  0  0  0  0  0  0  0  0  0  0  0
    1.7092   -0.0256    0.6616 C   0  0  0  0  0  0  0  0  0  0  0  0
    1.2531    1.0839    1.2078 N   0  0  0  0  0  0  0  0  0  0  0  0
    2.0182    2.0485    1.7391 C   0  0  0  0  0  0  0  0  0  0  0  0
    3.3890    1.9090    1.7343 C   0  0  0  0  0  0  0  0  0  0  0  0
    4.4656    3.0995    2.3972 Cl  0  0  0  0  0  0  0  0  0  0  0  0
    3.9209    0.7409    1.1619 C   0  0  0  0  0  0  0  0  0  0  0  0
    5.3198    0.6032    1.1424 N   0  0  0  0  0  0  0  0  0  0  0  0
    6.1417   -0.4254    0.6672 C   0  0  0  0  0  0  0  0  0  0  0  0
    5.6460   -1.6234    0.2495 C   0  0  0  0  0  0  0  0  0  0  0  0
    6.4354   -2.6905   -0.1956 C   0  0  0  0  0  0  0  0  0  0  0  0
    7.7920   -2.4850   -0.1992 C   0  0  0  0  0  0  0  0  0  0  0  0
    8.3120   -1.2860    0.2172 C   0  0  0  0  0  0  0  0  0  0  0  0
    7.5286   -0.2410    0.6530 C   0  0  0  0  0  0  0  0  0  0  0  0
    8.2875    1.2620    1.1311 S   0  0  0  0  0  0  0  0  0  0  0  0
    8.0562    1.6115    2.5623 O   0  0  0  0  0  0  0  0  0  0  0  0
    9.7979    1.0822    0.9987 O   0  0  0  0  0  0  0  0  0  0  0  0
    7.8629    2.6250    0.1166 C   0  0  0  0  0  0  0  0  0  0  0  0
    8.3447    2.4063   -1.3051 C   0  0  0  0  0  0  0  0  0  0  0  0
    8.5747    3.8501    0.7086 C   0  0  0  0  0  0  0  0  0  0  0  0
    3.0678   -0.1602    0.6589 N   0  0  0  0  0  0  0  0  0  0  0  0
   -4.6774   -1.5540   -0.4826 N   0  0  0  0  0  0  0  0  0  0  0  0
   -5.2803   -2.3901   -1.5144 C   0  0  0  0  0  0  0  0  0  0  0  0
   -6.3597   -1.6472   -2.2788 C   0  0  0  0  0  0  0  0  0  0  0  0
   -6.4493   -0.1906   -1.8703 C   0  0  0  0  0  0  0  0  0  0  0  0
   -6.6422   -0.0579   -0.3692 C   0  0  1  0  0  0  0  0  0  0  0  0
   -5.6131   -0.8588    0.3829 C   0  0  0  0  0  0  0  0  0  0  0  0
   -6.4548    1.3412   -0.0336 N   0  0  0  0  0  0  0  0  0  0  0  0
   -7.4537    2.1710   -0.7161 C   0  0  0  0  0  0  0  0  0  0  0  0
   -8.7618    1.7310   -0.1446 C   0  0  0  0  0  0  0  0  0  0  0  0
   -8.3936    1.4191    1.3036 C   0  0  0  0  0  0  0  0  0  0  0  0
   -6.8712    1.6050    1.3559 C   0  0  0  0  0  0  0  0  0  0  0  0
    0.0861   -5.0727   -2.1047 H   0  0  0  0  0  0  0  0  0  0  0  0
   -1.4517   -4.1933   -2.5544 H   0  0  0  0  0  0  0  0  0  0  0  0
   -1.2623   -5.0107   -0.9465 H   0  0  0  0  0  0  0  0  0  0  0  0
   -2.8180   -3.3024   -1.2628 H   0  0  0  0  0  0  0  0  0  0  0  0
   -3.3824    0.4342    0.6278 H   0  0  0  0  0  0  0  0  0  0  0  0
   -1.0409    0.7168    0.9069 H   0  0  0  0  0  0  0  0  0  0  0  0
    1.4787   -1.8949   -0.3082 H   0  0  0  0  0  0  0  0  0  0  0  0
    1.6085    2.9596    2.1859 H   0  0  0  0  0  0  0  0  0  0  0  0
    5.8576    1.4226    1.5790 H   0  0  0  0  0  0  0  0  0  0  0  0
    4.5791   -1.8719    0.2280 H   0  0  0  0  0  0  0  0  0  0  0  0
    6.0075   -3.6261   -0.5193 H   0  0  0  0  0  0  0  0  0  0  0  0
    8.4665   -3.2825   -0.5365 H   0  0  0  0  0  0  0  0  0  0  0  0
    9.4098   -1.1532    0.2018 H   0  0  0  0  0  0  0  0  0  0  0  0
    6.8135    2.8929    0.0595 H   0  0  0  0  0  0  0  0  0  0  0  0
    9.3570    1.9287   -1.2629 H   0  0  0  0  0  0  0  0  0  0  0  0
    8.3645    3.3759   -1.8408 H   0  0  0  0  0  0  0  0  0  0  0  0
    7.6780    1.6647   -1.7677 H   0  0  0  0  0  0  0  0  0  0  0  0
    8.6652    4.6443   -0.0436 H   0  0  0  0  0  0  0  0  0  0  0  0
    9.5525    3.4871    1.0845 H   0  0  0  0  0  0  0  0  0  0  0  0
    7.9742    4.1521    1.5904 H   0  0  0  0  0  0  0  0  0  0  0  0
   -4.4889   -2.7550   -2.1953 H   0  0  0  0  0  0  0  0  0  0  0  0
   -5.7739   -3.2477   -1.0148 H   0  0  0  0  0  0  0  0  0  0  0  0
   -7.3445   -2.1546   -2.2208 H   0  0  0  0  0  0  0  0  0  0  0  0
   -6.0716   -1.6608   -3.3493 H   0  0  0  0  0  0  0  0  0  0  0  0
   -5.5829    0.3571   -2.2368 H   0  0  0  0  0  0  0  0  0  0  0  0
   -7.3696    0.2025   -2.3513 H   0  0  0  0  0  0  0  0  0  0  0  0
   -7.6807   -0.3419   -0.1125 H   0  0  0  0  0  0  0  0  0  0  0  0
   -5.1219   -0.3098    1.1994 H   0  0  0  0  0  0  0  0  0  0  0  0
   -6.1905   -1.6787    0.9121 H   0  0  0  0  0  0  0  0  0  0  0  0
   -7.2654    3.2116   -0.3337 H   0  0  0  0  0  0  0  0  0  0  0  0
   -7.3695    2.1599   -1.7996 H   0  0  0  0  0  0  0  0  0  0  0  0
   -9.2211    0.8796   -0.6580 H   0  0  0  0  0  0  0  0  0  0  0  0
   -9.5364    2.5447   -0.1361 H   0  0  0  0  0  0  0  0  0  0  0  0
   -8.6703    0.3826    1.5197 H   0  0  0  0  0  0  0  0  0  0  0  0
   -8.8990    2.1404    1.9893 H   0  0  0  0  0  0  0  0  0  0  0  0
   -6.4005    0.9463    2.0738 H   0  0  0  0  0  0  0  0  0  0  0  0
   -6.7033    2.6851    1.5141 H   0  0  0  0  0  0  0  0  0  0  0  0
  1  2  1  0
  2  3  1  0
  3  4  2  0
  4  5  1  0
  5  6  2  0
  6  7  1  0
  7  8  2  0
  8  9  1  0
  9 10  1  0
 10 11  2  0
 11 12  1  0
 12 13  2  0
 13 14  1  0
 13 15  1  0
 15 16  1  0
 16 17  1  0
 17 18  2  0
 18 19  1  0
 19 20  2  0
 20 21  1  0
 21 22  2  0
 22 23  1  0
 23 24  2  0
 23 25  2  0
 23 26  1  0
 26 27  1  0
 26 28  1  0
 15 29  2  0
  5 30  1  0
 30 31  1  0
 31 32  1  0
 32 33  1  0
 33 34  1  0
 34 35  1  0
 34 36  1  0
 36 37  1  0
 37 38  1  0
 38 39  1  0
 39 40  1  0
  8  3  1  0
 29 10  1  0
 35 30  1  0
 40 36  1  0
 22 17  1  0
  1 41  1  0
  1 42  1  0
  1 43  1  0
  4 44  1  0
  6 45  1  0
  7 46  1  0
  9 47  1  0
 12 48  1  0
 16 49  1  0
 18 50  1  0
 19 51  1  0
 20 52  1  0
 21 53  1  0
 26 54  1  0
 27 55  1  0
 27 56  1  0
 27 57  1  0
 28 58  1  0
 28 59  1  0
 28 60  1  0
 31 61  1  0
 31 62  1  0
 32 63  1  0
 32 64  1  0
 33 65  1  0
 33 66  1  0
 34 67  1  6
 35 68  1  0
 35 69  1  0
 37 70  1  0
 37 71  1  0
 38 72  1  0
 38 73  1  0
 39 74  1  0
 39 75  1  0
 40 76  1  0
 40 77  1  0
M  END
$$$$
[H]N(C(=O)[C@]([H])(C(=O)C([H])([H])[H])C([H])([H])[H])[C@]([H])(C(=O)N([H])[C@]([H])(C(=O)N([H])[C@]([H])(C(=O)N([H])[C@]([H])(C(=O)N([H])[C@]([H])(C(=O)N([H])[C@]([H])(C(=O)N([H])[C@]([H])(C(=O)N1C([H])([H])C([H])([H])C([H])([H])[C@]1([H])C(=O)N(C([H])([H])[H])C([H])([H])[H])C([H])([H])C([H])(C([H])([H])[H])C([H])([H])[H])C([H])([H])[H])C([H])([H])[H])C([H])([H])[H])C([H])([H])[H])C([H])([H])[H])C([H])([H])[H]
     RDKit          3D

116116  0  0  0  0  0  0  0  0999 V2000
   -5.3405   -3.4307    0.6723 C   0  0  0  0  0  0  0  0  0  0  0  0
   -5.8459   -2.3775   -0.3440 C   0  0  0  0  0  0  0  0  0  0  0  0
   -7.0265   -3.0935   -1.0263 C   0  0  0  0  0  0  0  0  0  0  0  0
   -6.2779   -1.1676    0.3694 C   0  0  0  0  0  0  0  0  0  0  0  0
   -6.7843    0.0019   -0.4032 C   0  0  2  0  0  0  0  0  0  0  0  0
   -5.8536    0.6900   -1.2511 N   0  0  0  0  0  0  0  0  0  0  0  0
   -4.5054    0.6087   -1.4609 C   0  0  0  0  0  0  0  0  0  0  0  0
   -3.7330   -0.1644   -0.8601 O   0  0  0  0  0  0  0  0  0  0  0  0
   -3.7826    1.4727   -2.4858 C   0  0  2  0  0  0  0  0  0  0  0  0
   -4.7032    2.2421   -3.3539 C   0  0  0  0  0  0  0  0  0  0  0  0
   -2.8151    0.6617   -3.1770 N   0  0  0  0  0  0  0  0  0  0  0  0
   -1.4020    0.6958   -2.9132 C   0  0  0  0  0  0  0  0  0  0  0  0
   -0.8785    1.4301   -2.0842 O   0  0  0  0  0  0  0  0  0  0  0  0
   -0.5843   -0.2556   -3.7349 C   0  0  2  0  0  0  0  0  0  0  0  0
   -1.2331   -1.5951   -3.9007 C   0  0  0  0  0  0  0  0  0  0  0  0
    0.7303   -0.3971   -3.2125 N   0  0  0  0  0  0  0  0  0  0  0  0
    0.9733   -0.6643   -1.8425 C   0  0  0  0  0  0  0  0  0  0  0  0
    0.1043   -0.8064   -0.9553 O   0  0  0  0  0  0  0  0  0  0  0  0
    2.3998   -0.7856   -1.3932 C   0  0  2  0  0  0  0  0  0  0  0  0
    2.8364   -2.2417   -1.6618 C   0  0  0  0  0  0  0  0  0  0  0  0
    2.4562   -0.5298    0.0295 N   0  0  0  0  0  0  0  0  0  0  0  0
    3.3885    0.4430    0.4546 C   0  0  0  0  0  0  0  0  0  0  0  0
    4.1032    1.0267   -0.3902 O   0  0  0  0  0  0  0  0  0  0  0  0
    3.4790    0.7276    1.9395 C   0  0  2  0  0  0  0  0  0  0  0  0
    2.1968    1.1364    2.5310 C   0  0  0  0  0  0  0  0  0  0  0  0
    4.5566    1.7082    2.0576 N   0  0  0  0  0  0  0  0  0  0  0  0
    5.8989    1.3414    2.0757 C   0  0  0  0  0  0  0  0  0  0  0  0
    6.2131    0.0948    1.9777 O   0  0  0  0  0  0  0  0  0  0  0  0
    7.0707    2.2527    2.1947 C   0  0  2  0  0  0  0  0  0  0  0  0
    6.7592    3.6894    1.9771 C   0  0  0  0  0  0  0  0  0  0  0  0
    8.0498    1.7263    1.2626 N   0  0  0  0  0  0  0  0  0  0  0  0
    9.0038    0.7206    1.5359 C   0  0  0  0  0  0  0  0  0  0  0  0
    9.0307    0.2194    2.6918 O   0  0  0  0  0  0  0  0  0  0  0  0
    9.9427    0.2681    0.4672 C   0  0  2  0  0  0  0  0  0  0  0  0
    9.1067   -0.2322   -0.7133 C   0  0  0  0  0  0  0  0  0  0  0  0
   10.7350   -0.8294    0.9270 N   0  0  0  0  0  0  0  0  0  0  0  0
   12.1477   -0.9209    0.8772 C   0  0  0  0  0  0  0  0  0  0  0  0
   12.7809    0.0431    0.4016 O   0  0  0  0  0  0  0  0  0  0  0  0
   12.8212   -2.1495    1.3870 C   0  0  1  0  0  0  0  0  0  0  0  0
   12.2147   -3.3432    0.6523 C   0  0  0  0  0  0  0  0  0  0  0  0
   14.2517   -2.0797    0.9775 C   0  0  0  0  0  0  0  0  0  0  0  0
   15.1116   -0.9309    1.3887 C   0  0  0  0  0  0  0  0  0  0  0  0
   14.7407   -2.9435    0.3135 O   0  0  0  0  0  0  0  0  0  0  0  0
   -7.4958    0.9302    0.4726 C   0  0  0  0  0  0  0  0  0  0  0  0
   -6.9277    2.0548    0.6907 O   0  0  0  0  0  0  0  0  0  0  0  0
   -8.7433    0.6834    1.0791 N   0  0  0  0  0  0  0  0  0  0  0  0
   -9.5994   -0.4968    0.9544 C   0  0  0  0  0  0  0  0  0  0  0  0
   -9.8329   -0.8116    2.4248 C   0  0  0  0  0  0  0  0  0  0  0  0
   -9.6872    0.5216    3.1493 C   0  0  0  0  0  0  0  0  0  0  0  0
   -9.4554    1.5127    2.0112 C   0  0  2  0  0  0  0  0  0  0  0  0
  -10.7627    1.9392    1.5365 C   0  0  0  0  0  0  0  0  0  0  0  0
  -11.7611    1.9473    2.3733 O   0  0  0  0  0  0  0  0  0  0  0  0
  -11.0506    2.3545    0.2301 N   0  0  0  0  0  0  0  0  0  0  0  0
  -10.1665    2.4907   -0.8787 C   0  0  0  0  0  0  0  0  0  0  0  0
  -12.4782    2.6953   -0.0408 C   0  0  0  0  0  0  0  0  0  0  0  0
   -4.5519   -2.9719    1.3204 H   0  0  0  0  0  0  0  0  0  0  0  0
   -4.8593   -4.2723    0.1372 H   0  0  0  0  0  0  0  0  0  0  0  0
   -6.2083   -3.8145    1.2153 H   0  0  0  0  0  0  0  0  0  0  0  0
   -5.1075   -2.2766   -1.0971 H   0  0  0  0  0  0  0  0  0  0  0  0
   -7.9071   -3.1647   -0.3790 H   0  0  0  0  0  0  0  0  0  0  0  0
   -6.6665   -4.1386   -1.1973 H   0  0  0  0  0  0  0  0  0  0  0  0
   -7.1992   -2.6741   -2.0306 H   0  0  0  0  0  0  0  0  0  0  0  0
   -5.3823   -0.7683    0.9735 H   0  0  0  0  0  0  0  0  0  0  0  0
   -7.0007   -1.4536    1.1687 H   0  0  0  0  0  0  0  0  0  0  0  0
   -7.5352   -0.4334   -1.1853 H   0  0  0  0  0  0  0  0  0  0  0  0
   -6.3591    1.4564   -1.8739 H   0  0  0  0  0  0  0  0  0  0  0  0
   -3.1682    2.2123   -1.8837 H   0  0  0  0  0  0  0  0  0  0  0  0
   -5.4536    1.5806   -3.8782 H   0  0  0  0  0  0  0  0  0  0  0  0
   -5.2875    2.9502   -2.7150 H   0  0  0  0  0  0  0  0  0  0  0  0
   -4.1502    2.8855   -4.0904 H   0  0  0  0  0  0  0  0  0  0  0  0
   -3.1999    0.0210   -3.9167 H   0  0  0  0  0  0  0  0  0  0  0  0
   -0.5083    0.2563   -4.7557 H   0  0  0  0  0  0  0  0  0  0  0  0
   -0.5830   -2.4502   -3.6070 H   0  0  0  0  0  0  0  0  0  0  0  0
   -2.1460   -1.6965   -3.2547 H   0  0  0  0  0  0  0  0  0  0  0  0
   -1.5076   -1.7683   -4.9813 H   0  0  0  0  0  0  0  0  0  0  0  0
    1.5400   -0.2999   -3.8572 H   0  0  0  0  0  0  0  0  0  0  0  0
    3.0004   -0.0916   -1.9991 H   0  0  0  0  0  0  0  0  0  0  0  0
    3.1268   -2.2776   -2.7264 H   0  0  0  0  0  0  0  0  0  0  0  0
    2.0091   -2.9479   -1.4434 H   0  0  0  0  0  0  0  0  0  0  0  0
    3.7033   -2.4535   -1.0451 H   0  0  0  0  0  0  0  0  0  0  0  0
    1.8634   -1.0149    0.7159 H   0  0  0  0  0  0  0  0  0  0  0  0
    3.8641   -0.2110    2.4342 H   0  0  0  0  0  0  0  0  0  0  0  0
    1.9699    0.4859    3.4162 H   0  0  0  0  0  0  0  0  0  0  0  0
    2.1205    2.2026    2.8308 H   0  0  0  0  0  0  0  0  0  0  0  0
    1.3418    0.9782    1.8220 H   0  0  0  0  0  0  0  0  0  0  0  0
    4.2653    2.7050    2.1306 H   0  0  0  0  0  0  0  0  0  0  0  0
    7.4575    2.0422    3.2375 H   0  0  0  0  0  0  0  0  0  0  0  0
    6.6795    3.8647    0.8596 H   0  0  0  0  0  0  0  0  0  0  0  0
    7.6086    4.3389    2.3326 H   0  0  0  0  0  0  0  0  0  0  0  0
    5.8077    4.0122    2.3980 H   0  0  0  0  0  0  0  0  0  0  0  0
    8.0673    2.1352    0.2744 H   0  0  0  0  0  0  0  0  0  0  0  0
   10.5551    1.1371    0.1637 H   0  0  0  0  0  0  0  0  0  0  0  0
    8.2465    0.4718   -0.8823 H   0  0  0  0  0  0  0  0  0  0  0  0
    9.7213   -0.2727   -1.6408 H   0  0  0  0  0  0  0  0  0  0  0  0
    8.6803   -1.2237   -0.4946 H   0  0  0  0  0  0  0  0  0  0  0  0
   10.2078   -1.6463    1.3452 H   0  0  0  0  0  0  0  0  0  0  0  0
   12.7191   -2.2994    2.4699 H   0  0  0  0  0  0  0  0  0  0  0  0
   11.1399   -3.3885    0.9155 H   0  0  0  0  0  0  0  0  0  0  0  0
   12.3062   -3.1884   -0.4593 H   0  0  0  0  0  0  0  0  0  0  0  0
   12.6777   -4.2894    0.9941 H   0  0  0  0  0  0  0  0  0  0  0  0
   16.1139   -1.2526    1.7204 H   0  0  0  0  0  0  0  0  0  0  0  0
   14.5990   -0.3712    2.2075 H   0  0  0  0  0  0  0  0  0  0  0  0
   15.2755   -0.2354    0.5136 H   0  0  0  0  0  0  0  0  0  0  0  0
  -10.6148   -0.1755    0.5879 H   0  0  0  0  0  0  0  0  0  0  0  0
   -9.1873   -1.2991    0.3644 H   0  0  0  0  0  0  0  0  0  0  0  0
   -9.0674   -1.4964    2.8276 H   0  0  0  0  0  0  0  0  0  0  0  0
  -10.8603   -1.1917    2.6223 H   0  0  0  0  0  0  0  0  0  0  0  0
  -10.6104    0.7879    3.6782 H   0  0  0  0  0  0  0  0  0  0  0  0
   -8.8304    0.5268    3.8391 H   0  0  0  0  0  0  0  0  0  0  0  0
   -8.8263    2.3674    2.3763 H   0  0  0  0  0  0  0  0  0  0  0  0
  -10.6990    3.0948   -1.6870 H   0  0  0  0  0  0  0  0  0  0  0  0
   -9.2638    3.1072   -0.6515 H   0  0  0  0  0  0  0  0  0  0  0  0
   -9.8926    1.5549   -1.3877 H   0  0  0  0  0  0  0  0  0  0  0  0
  -12.9930    1.7279   -0.2001 H   0  0  0  0  0  0  0  0  0  0  0  0
  -12.5622    3.3840   -0.8951 H   0  0  0  0  0  0  0  0  0  0  0  0
  -12.8553    3.1397    0.8922 H   0  0  0  0  0  0  0  0  0  0  0  0
  1  2  1  0
  2  3  1  0
  2  4  1  0
  4  5  1  0
  5  6  1  0
  6  7  1  0
  7  8  2  0
  7  9  1  0
  9 10  1  0
  9 11  1  0
 11 12  1  0
 12 13  2  0
 12 14  1  0
 14 15  1  0
 14 16  1  0
 16 17  1  0
 17 18  2  0
 17 19  1  0
 19 20  1  0
 19 21  1  0
 21 22  1  0
 22 23  2  0
 22 24  1  0
 24 25  1  0
 24 26  1  0
 26 27  1  0
 27 28  2  0
 27 29  1  0
 29 30  1  0
 29 31  1  0
 31 32  1  0
 32 33  2  0
 32 34  1  0
 34 35  1  0
 34 36  1  0
 36 37  1  0
 37 38  2  0
 37 39  1  0
 39 40  1  0
 39 41  1  0
 41 42  1  0
 41 43  2  0
  5 44  1  0
 44 45  2  0
 44 46  1  0
 46 47  1  0
 47 48  1  0
 48 49  1  0
 49 50  1  0
 50 51  1  0
 51 52  2  0
 51 53  1  0
 53 54  1  0
 53 55  1  0
 50 46  1  0
  1 56  1  0
  1 57  1  0
  1 58  1  0
  2 59  1  0
  3 60  1  0
  3 61  1  0
  3 62  1  0
  4 63  1  0
  4 64  1  0
  5 65  1  6
  6 66  1  0
  9 67  1  1
 10 68  1  0
 10 69  1  0
 10 70  1  0
 11 71  1  0
 14 72  1  6
 15 73  1  0
 15 74  1  0
 15 75  1  0
 16 76  1  0
 19 77  1  6
 20 78  1  0
 20 79  1  0
 20 80  1  0
 21 81  1  0
 24 82  1  1
 25 83  1  0
 25 84  1  0
 25 85  1  0
 26 86  1  0
 29 87  1  1
 30 88  1  0
 30 89  1  0
 30 90  1  0
 31 91  1  0
 34 92  1  6
 35 93  1  0
 35 94  1  0
 35 95  1  0
 36 96  1  0
 39 97  1  1
 40 98  1  0
 40 99  1  0
 40100  1  0
 42101  1  0
 42102  1  0
 42103  1  0
 47104  1  0
 47105  1  0
 48106  1  0
 48107  1  0
 49108  1  0
 49109  1  0
 50110  1  1
 54111  1  0
 54112  1  0
 54113  1  0
 55114  1  0
 55115  1  0
 55116  1  0
M  END
$$$$
[H]c1c([H])c(C(=O)N2C([H])([H])C([H])([H])N(S(=O)(=O)c3c([H])c([H])c(-c4c([H])c([H])c(OC([H])([H])[H])c([H])c4[H])c([H])c3[H])C([H])([H])C2([H])[H])c([H])c([H])c1C#N
     RDKit          3D

 56 59  0  0  0  0  0  0  0  0999 V2000
   10.3319   -0.8429    1.1352 C   0  0  0  0  0  0  0  0  0  0  0  0
    9.3678   -1.5536    0.3988 O   0  0  0  0  0  0  0  0  0  0  0  0
    8.0628   -1.1421    0.2121 C   0  0  0  0  0  0  0  0  0  0  0  0
    7.5107    0.0052    0.7084 C   0  0  0  0  0  0  0  0  0  0  0  0
    6.1907    0.3459    0.4749 C   0  0  0  0  0  0  0  0  0  0  0  0
    5.3983   -0.4895   -0.2800 C   0  0  0  0  0  0  0  0  0  0  0  0
    5.9457   -1.6449   -0.7826 C   0  0  0  0  0  0  0  0  0  0  0  0
    7.2438   -1.9624   -0.5425 C   0  0  0  0  0  0  0  0  0  0  0  0
    3.9951   -0.1342   -0.5335 C   0  0  0  0  0  0  0  0  0  0  0  0
    3.6025    1.1840   -0.6360 C   0  0  0  0  0  0  0  0  0  0  0  0
    2.2848    1.5157   -0.8759 C   0  0  0  0  0  0  0  0  0  0  0  0
    1.2952    0.5542   -1.0252 C   0  0  0  0  0  0  0  0  0  0  0  0
    1.6907   -0.7622   -0.9220 C   0  0  0  0  0  0  0  0  0  0  0  0
    3.0244   -1.1015   -0.6792 C   0  0  0  0  0  0  0  0  0  0  0  0
   -0.3653    1.0195   -1.3318 S   0  0  0  0  0  0  0  0  0  0  0  0
   -1.0817   -0.0427   -2.1420 O   0  0  0  0  0  0  0  0  0  0  0  0
   -0.4378    2.2884   -2.1550 O   0  0  0  0  0  0  0  0  0  0  0  0
   -1.2571    1.2655    0.0912 N   0  0  0  0  0  0  0  0  0  0  0  0
   -1.4050    0.1447    0.9496 C   0  0  0  0  0  0  0  0  0  0  0  0
   -2.6256    0.3678    1.8197 C   0  0  0  0  0  0  0  0  0  0  0  0
   -3.8286    0.5007    0.9518 N   0  0  0  0  0  0  0  0  0  0  0  0
   -3.7114    1.2780   -0.2360 C   0  0  0  0  0  0  0  0  0  0  0  0
   -2.3979    2.0724   -0.1342 C   0  0  0  0  0  0  0  0  0  0  0  0
   -4.9862   -0.1313    1.4020 C   0  0  0  0  0  0  0  0  0  0  0  0
   -4.8215   -0.7281    2.5646 O   0  0  0  0  0  0  0  0  0  0  0  0
   -6.3055   -0.2400    0.8277 C   0  0  0  0  0  0  0  0  0  0  0  0
   -7.3046   -0.8285    1.6182 C   0  0  0  0  0  0  0  0  0  0  0  0
   -8.5661   -0.9905    1.1368 C   0  0  0  0  0  0  0  0  0  0  0  0
   -8.9441   -0.6000   -0.1252 C   0  0  0  0  0  0  0  0  0  0  0  0
   -7.9636   -0.0249   -0.8961 C   0  0  0  0  0  0  0  0  0  0  0  0
   -6.6453    0.1558   -0.4234 C   0  0  0  0  0  0  0  0  0  0  0  0
  -10.2879   -0.7952   -0.5793 C   0  0  0  0  0  0  0  0  0  0  0  0
  -11.3645   -0.9718   -0.9523 N   0  0  0  0  0  0  0  0  0  0  0  0
   11.1518   -1.5481    1.3726 H   0  0  0  0  0  0  0  0  0  0  0  0
    9.9438   -0.4271    2.0848 H   0  0  0  0  0  0  0  0  0  0  0  0
   10.7850   -0.0834    0.4616 H   0  0  0  0  0  0  0  0  0  0  0  0
    8.1461    0.6451    1.2960 H   0  0  0  0  0  0  0  0  0  0  0  0
    5.7848    1.2811    0.8938 H   0  0  0  0  0  0  0  0  0  0  0  0
    5.2920   -2.2871   -1.3777 H   0  0  0  0  0  0  0  0  0  0  0  0
    7.6392   -2.9026   -0.9673 H   0  0  0  0  0  0  0  0  0  0  0  0
    4.3507    1.9753   -0.5244 H   0  0  0  0  0  0  0  0  0  0  0  0
    1.9649    2.5540   -0.9587 H   0  0  0  0  0  0  0  0  0  0  0  0
    0.9424   -1.5451   -1.0339 H   0  0  0  0  0  0  0  0  0  0  0  0
    3.3162   -2.1481   -0.6010 H   0  0  0  0  0  0  0  0  0  0  0  0
   -0.5361    0.0039    1.5964 H   0  0  0  0  0  0  0  0  0  0  0  0
   -1.6275   -0.7423    0.3177 H   0  0  0  0  0  0  0  0  0  0  0  0
   -2.5269    1.3258    2.3493 H   0  0  0  0  0  0  0  0  0  0  0  0
   -2.8174   -0.4264    2.5416 H   0  0  0  0  0  0  0  0  0  0  0  0
   -3.6549    0.7396   -1.1809 H   0  0  0  0  0  0  0  0  0  0  0  0
   -4.4875    2.0887   -0.2308 H   0  0  0  0  0  0  0  0  0  0  0  0
   -2.5065    2.8816    0.6259 H   0  0  0  0  0  0  0  0  0  0  0  0
   -2.2978    2.5910   -1.1089 H   0  0  0  0  0  0  0  0  0  0  0  0
   -7.0458   -1.1414    2.6058 H   0  0  0  0  0  0  0  0  0  0  0  0
   -9.3291   -1.4466    1.7566 H   0  0  0  0  0  0  0  0  0  0  0  0
   -8.1873    0.3024   -1.8889 H   0  0  0  0  0  0  0  0  0  0  0  0
   -5.9448    0.5983   -1.1072 H   0  0  0  0  0  0  0  0  0  0  0  0
  1  2  1  0
  2  3  1  0
  3  4  2  0
  4  5  1  0
  5  6  2  0
  6  7  1  0
  7  8  2  0
  6  9  1  0
  9 10  2  0
 10 11  1  0
 11 12  2  0
 12 13  1  0
 13 14  2  0
 12 15  1  0
 15 16  2  0
 15 17  2  0
 15 18  1  0
 18 19  1  0
 19 20  1  0
 20 21  1  0
 21 22  1  0
 22 23  1  0
 21 24  1  0
 24 25  2  0
 24 26  1  0
 26 27  2  0
 27 28  1  0
 28 29  2  0
 29 30  1  0
 30 31  2  0
 29 32  1  0
 32 33  3  0
  8  3  1  0
 14  9  1  0
 23 18  1  0
 31 26  1  0
  1 34  1  0
  1 35  1  0
  1 36  1  0
  4 37  1  0
  5 38  1  0
  7 39  1  0
  8 40  1  0
 10 41  1  0
 11 42  1  0
 13 43  1  0
 14 44  1  0
 19 45  1  0
 19 46  1  0
 20 47  1  0
 20 48  1  0
 22 49  1  0
 22 50  1  0
 23 51  1  0
 23 52  1  0
 27 53  1  0
 28 54  1  0
 30 55  1  0
 31 56  1  0
M  END
$$$$
[H]c1nc([H])n([H])c1C([H])([H])[C@@]([H])(C(=O)N([H])[C@]([H])(C(=O)N([H])[C@]([H])(C(=O)N([H])[H])C([H])([H])c1c([H])c([H])c([H])c([H])c1[H])C([H])([H])c1c([H])c([H])c([H])c([H])c1[H])N([H])C(=O)OC(C([H])([H])[H])(C([H])([H])[H])C([H])([H])[H]
     RDKit          3D

 76 78  0  0  0  0  0  0  0  0999 V2000
   -7.4533   -1.1591   -1.2375 C   0  0  0  0  0  0  0  0  0  0  0  0
   -6.2488   -1.6833   -0.4356 C   0  0  0  0  0  0  0  0  0  0  0  0
   -6.7045   -2.1580    0.9158 C   0  0  0  0  0  0  0  0  0  0  0  0
   -5.6315   -2.8012   -1.2461 C   0  0  0  0  0  0  0  0  0  0  0  0
   -5.3370   -0.6309   -0.3966 O   0  0  0  0  0  0  0  0  0  0  0  0
   -4.0888   -0.6966    0.2727 C   0  0  0  0  0  0  0  0  0  0  0  0
   -3.9244   -1.8095    0.8245 O   0  0  0  0  0  0  0  0  0  0  0  0
   -3.2296    0.4023    0.2509 N   0  0  0  0  0  0  0  0  0  0  0  0
   -1.9650    0.6508    0.8175 C   0  0  1  0  0  0  0  0  0  0  0  0
   -1.4654   -0.3961    1.8148 C   0  0  0  0  0  0  0  0  0  0  0  0
   -2.3864   -0.4081    3.0169 C   0  0  0  0  0  0  0  0  0  0  0  0
   -2.3437   -1.2906    4.0736 C   0  0  0  0  0  0  0  0  0  0  0  0
   -3.2981   -0.9262    4.9454 N   0  0  0  0  0  0  0  0  0  0  0  0
   -3.9472    0.1656    4.4722 C   0  0  0  0  0  0  0  0  0  0  0  0
   -3.3728    0.4551    3.3021 N   0  0  0  0  0  0  0  0  0  0  0  0
   -0.9421    0.8499   -0.1882 C   0  0  0  0  0  0  0  0  0  0  0  0
   -1.2900    0.7147   -1.4174 O   0  0  0  0  0  0  0  0  0  0  0  0
    0.4253    1.1839   -0.0028 N   0  0  0  0  0  0  0  0  0  0  0  0
    1.3196    1.3536   -1.1289 C   0  0  1  0  0  0  0  0  0  0  0  0
    1.4116    2.9006   -1.3359 C   0  0  0  0  0  0  0  0  0  0  0  0
    1.9540    3.5088   -0.0956 C   0  0  0  0  0  0  0  0  0  0  0  0
    1.1420    3.9164    0.9429 C   0  0  0  0  0  0  0  0  0  0  0  0
    1.6571    4.4614    2.1027 C   0  0  0  0  0  0  0  0  0  0  0  0
    3.0288    4.6232    2.2716 C   0  0  0  0  0  0  0  0  0  0  0  0
    3.8375    4.2176    1.2351 C   0  0  0  0  0  0  0  0  0  0  0  0
    3.3120    3.6724    0.0766 C   0  0  0  0  0  0  0  0  0  0  0  0
    2.6828    0.8286   -0.9221 C   0  0  0  0  0  0  0  0  0  0  0  0
    3.0481    0.5289    0.2357 O   0  0  0  0  0  0  0  0  0  0  0  0
    3.5840    0.6522   -1.9971 N   0  0  0  0  0  0  0  0  0  0  0  0
    4.9346    0.1522   -1.8733 C   0  0  1  0  0  0  0  0  0  0  0  0
    4.9115   -1.3012   -2.3633 C   0  0  0  0  0  0  0  0  0  0  0  0
    4.0239   -2.1542   -1.5557 C   0  0  0  0  0  0  0  0  0  0  0  0
    4.5242   -2.7880   -0.4343 C   0  0  0  0  0  0  0  0  0  0  0  0
    3.7262   -3.6089    0.3622 C   0  0  0  0  0  0  0  0  0  0  0  0
    2.4109   -3.7968    0.0314 C   0  0  0  0  0  0  0  0  0  0  0  0
    1.8916   -3.1692   -1.0901 C   0  0  0  0  0  0  0  0  0  0  0  0
    2.7093   -2.3491   -1.8774 C   0  0  0  0  0  0  0  0  0  0  0  0
    5.8167    0.9039   -2.7729 C   0  0  0  0  0  0  0  0  0  0  0  0
    7.1915    0.5947   -2.8545 N   0  0  0  0  0  0  0  0  0  0  0  0
    5.3621    1.8267   -3.4796 O   0  0  0  0  0  0  0  0  0  0  0  0
   -8.0484   -1.9943   -1.6486 H   0  0  0  0  0  0  0  0  0  0  0  0
   -8.0423   -0.5261   -0.5060 H   0  0  0  0  0  0  0  0  0  0  0  0
   -7.0485   -0.4640   -1.9955 H   0  0  0  0  0  0  0  0  0  0  0  0
   -7.8202   -2.3120    0.8580 H   0  0  0  0  0  0  0  0  0  0  0  0
   -6.2923   -3.1475    1.1709 H   0  0  0  0  0  0  0  0  0  0  0  0
   -6.5859   -1.3876    1.7065 H   0  0  0  0  0  0  0  0  0  0  0  0
   -6.3007   -3.0393   -2.1034 H   0  0  0  0  0  0  0  0  0  0  0  0
   -4.6622   -2.4864   -1.6869 H   0  0  0  0  0  0  0  0  0  0  0  0
   -5.4070   -3.7082   -0.6471 H   0  0  0  0  0  0  0  0  0  0  0  0
   -3.6037    1.2478   -0.3182 H   0  0  0  0  0  0  0  0  0  0  0  0
   -2.0857    1.5836    1.5101 H   0  0  0  0  0  0  0  0  0  0  0  0
   -0.4658   -0.1331    2.2111 H   0  0  0  0  0  0  0  0  0  0  0  0
   -1.4060   -1.4027    1.4039 H   0  0  0  0  0  0  0  0  0  0  0  0
   -1.6537   -2.1230    4.1643 H   0  0  0  0  0  0  0  0  0  0  0  0
   -4.7796    0.6966    4.9639 H   0  0  0  0  0  0  0  0  0  0  0  0
   -3.6785    1.2528    2.7159 H   0  0  0  0  0  0  0  0  0  0  0  0
    0.7877    1.3008    0.9547 H   0  0  0  0  0  0  0  0  0  0  0  0
    0.9017    0.9541   -2.0628 H   0  0  0  0  0  0  0  0  0  0  0  0
    0.3742    3.2059   -1.5685 H   0  0  0  0  0  0  0  0  0  0  0  0
    2.0341    3.0386   -2.2177 H   0  0  0  0  0  0  0  0  0  0  0  0
    0.0599    3.8049    0.8406 H   0  0  0  0  0  0  0  0  0  0  0  0
    1.0330    4.7768    2.9130 H   0  0  0  0  0  0  0  0  0  0  0  0
    3.4654    5.0408    3.1672 H   0  0  0  0  0  0  0  0  0  0  0  0
    4.9175    4.3357    1.3457 H   0  0  0  0  0  0  0  0  0  0  0  0
    3.9665    3.3630   -0.7304 H   0  0  0  0  0  0  0  0  0  0  0  0
    3.2208    0.9133   -2.9639 H   0  0  0  0  0  0  0  0  0  0  0  0
    5.2545    0.1673   -0.8046 H   0  0  0  0  0  0  0  0  0  0  0  0
    5.9600   -1.6740   -2.4382 H   0  0  0  0  0  0  0  0  0  0  0  0
    4.5487   -1.2427   -3.4380 H   0  0  0  0  0  0  0  0  0  0  0  0
    5.5615   -2.6655   -0.1344 H   0  0  0  0  0  0  0  0  0  0  0  0
    4.1775   -4.0723    1.2252 H   0  0  0  0  0  0  0  0  0  0  0  0
    1.7765   -4.4440    0.6588 H   0  0  0  0  0  0  0  0  0  0  0  0
    0.8618   -3.3463   -1.3090 H   0  0  0  0  0  0  0  0  0  0  0  0
    2.2451   -1.8971   -2.7246 H   0  0  0  0  0  0  0  0  0  0  0  0
    7.8879    0.9763   -2.1704 H   0  0  0  0  0  0  0  0  0  0  0  0
    7.5696   -0.0289   -3.6016 H   0  0  0  0  0  0  0  0  0  0  0  0
  1  2  1  0
  2  3  1  0
  2  4  1  0
  2  5  1  0
  5  6  1  0
  6  7  2  0
  6  8  1  0
  8  9  1  0
  9 10  1  0
 10 11  1  0
 11 12  2  0
 12 13  1  0
 13 14  2  0
 14 15  1  0
  9 16  1  0
 16 17  2  0
 16 18  1  0
 18 19  1  0
 19 20  1  0
 20 21  1  0
 21 22  2  0
 22 23  1  0
 23 24  2  0
 24 25  1  0
 25 26  2  0
 19 27  1  0
 27 28  2  0
 27 29  1  0
 29 30  1  0
 30 31  1  0
 31 32  1  0
 32 33  2  0
 33 34  1  0
 34 35  2  0
 35 36  1  0
 36 37  2  0
 30 38  1  0
 38 39  1  0
 38 40  2  0
 15 11  1  0
 26 21  1  0
 37 32  1  0
  1 41  1  0
  1 42  1  0
  1 43  1  0
  3 44  1  0
  3 45  1  0
  3 46  1  0
  4 47  1  0
  4 48  1  0
  4 49  1  0
  8 50  1  0
  9 51  1  1
 10 52  1  0
 10 53  1  0
 12 54  1  0
 14 55  1  0
 15 56  1  0
 18 57  1  0
 19 58  1  6
 20 59  1  0
 20 60  1  0
 22 61  1  0
 23 62  1  0
 24 63  1  0
 25 64  1  0
 26 65  1  0
 29 66  1  0
 30 67  1  1
 31 68  1  0
 31 69  1  0
 33 70  1  0
 34 71  1  0
 35 72  1  0
 36 73  1  0
 37 74  1  0
 39 75  1  0
 39 76  1  0
M  END
$$$$
[H]c1c([H])c(C(=O)N2C([H])([H])C([H])([H])N(S(=O)(=O)c3c([H])c([H])c(F)c([H])c3F)C([H])([H])[C@@]2([H])C([H])([H])[H])c([H])c(C(F)(F)F)c1[H]
     RDKit          3D

 47 49  0  0  0  0  0  0  0  0999 V2000
    0.5540   -3.3244   -0.8722 C   0  0  0  0  0  0  0  0  0  0  0  0
    0.0763   -2.0618   -0.3129 C   0  0  2  0  0  0  0  0  0  0  0  0
   -1.0059   -1.3212   -1.0394 C   0  0  0  0  0  0  0  0  0  0  0  0
   -1.6233   -0.4928   -0.0534 N   0  0  0  0  0  0  0  0  0  0  0  0
   -0.9058   -0.0241    1.0389 C   0  0  0  0  0  0  0  0  0  0  0  0
    0.6202   -0.0037    0.9303 C   0  0  0  0  0  0  0  0  0  0  0  0
    1.0872   -1.0701    0.0743 N   0  0  0  0  0  0  0  0  0  0  0  0
    2.3552   -1.0163   -0.4966 C   0  0  0  0  0  0  0  0  0  0  0  0
    2.6464   -1.7465   -1.5125 O   0  0  0  0  0  0  0  0  0  0  0  0
    3.4013   -0.1596   -0.0005 C   0  0  0  0  0  0  0  0  0  0  0  0
    3.5477   -0.1108    1.3879 C   0  0  0  0  0  0  0  0  0  0  0  0
    4.4570    0.7222    1.9726 C   0  0  0  0  0  0  0  0  0  0  0  0
    5.2605    1.5435    1.2227 C   0  0  0  0  0  0  0  0  0  0  0  0
    5.1272    1.5088   -0.1842 C   0  0  0  0  0  0  0  0  0  0  0  0
    4.2113    0.6614   -0.7385 C   0  0  0  0  0  0  0  0  0  0  0  0
    5.9853    2.4565   -0.9220 C   0  0  0  0  0  0  0  0  0  0  0  0
    5.6442    2.5473   -2.2385 F   0  0  0  0  0  0  0  0  0  0  0  0
    5.8464    3.7506   -0.3960 F   0  0  0  0  0  0  0  0  0  0  0  0
    7.3352    2.1757   -0.8238 F   0  0  0  0  0  0  0  0  0  0  0  0
   -3.1531   -1.1367    0.3437 S   0  0  0  0  0  0  0  0  0  0  0  0
   -3.2298   -1.4757    1.8294 O   0  0  0  0  0  0  0  0  0  0  0  0
   -3.4362   -2.3667   -0.4401 O   0  0  0  0  0  0  0  0  0  0  0  0
   -4.4012    0.0220   -0.0010 C   0  0  0  0  0  0  0  0  0  0  0  0
   -4.8154    0.2886   -1.2694 C   0  0  0  0  0  0  0  0  0  0  0  0
   -5.7823    1.2420   -1.6085 C   0  0  0  0  0  0  0  0  0  0  0  0
   -6.3337    1.9415   -0.5535 C   0  0  0  0  0  0  0  0  0  0  0  0
   -7.2826    2.8536   -0.8702 F   0  0  0  0  0  0  0  0  0  0  0  0
   -5.9451    1.7067    0.7360 C   0  0  0  0  0  0  0  0  0  0  0  0
   -4.9828    0.7553    1.0405 C   0  0  0  0  0  0  0  0  0  0  0  0
   -4.6029    0.5238    2.3320 F   0  0  0  0  0  0  0  0  0  0  0  0
    1.2993   -3.7587   -0.1249 H   0  0  0  0  0  0  0  0  0  0  0  0
    0.8848   -3.3993   -1.9029 H   0  0  0  0  0  0  0  0  0  0  0  0
   -0.3126   -4.0741   -0.7526 H   0  0  0  0  0  0  0  0  0  0  0  0
   -0.3952   -2.3445    0.7043 H   0  0  0  0  0  0  0  0  0  0  0  0
   -1.7581   -1.9753   -1.5333 H   0  0  0  0  0  0  0  0  0  0  0  0
   -0.6319   -0.6615   -1.8435 H   0  0  0  0  0  0  0  0  0  0  0  0
   -1.1947   -0.4357    2.0575 H   0  0  0  0  0  0  0  0  0  0  0  0
   -1.1929    1.0857    1.1709 H   0  0  0  0  0  0  0  0  0  0  0  0
    0.9675   -0.0998    1.9620 H   0  0  0  0  0  0  0  0  0  0  0  0
    0.8891    1.0051    0.4710 H   0  0  0  0  0  0  0  0  0  0  0  0
    2.9898   -0.7568    2.0431 H   0  0  0  0  0  0  0  0  0  0  0  0
    4.5607    0.7549    3.0592 H   0  0  0  0  0  0  0  0  0  0  0  0
    5.9697    2.1964    1.6965 H   0  0  0  0  0  0  0  0  0  0  0  0
    4.1345    0.6420   -1.8221 H   0  0  0  0  0  0  0  0  0  0  0  0
   -4.3941   -0.2441   -2.1075 H   0  0  0  0  0  0  0  0  0  0  0  0
   -6.0684    1.4047   -2.6173 H   0  0  0  0  0  0  0  0  0  0  0  0
   -6.4031    2.2722    1.5559 H   0  0  0  0  0  0  0  0  0  0  0  0
  1  2  1  0
  2  3  1  0
  3  4  1  0
  4  5  1  0
  5  6  1  0
  6  7  1  0
  7  8  1  0
  8  9  2  0
  8 10  1  0
 10 11  2  0
 11 12  1  0
 12 13  2  0
 13 14  1  0
 14 15  2  0
 14 16  1  0
 16 17  1  0
 16 18  1  0
 16 19  1  0
  4 20  1  0
 20 21  2  0
 20 22  2  0
 20 23  1  0
 23 24  2  0
 24 25  1  0
 25 26  2  0
 26 27  1  0
 26 28  1  0
 28 29  2  0
 29 30  1  0
  7  2  1  0
 15 10  1  0
 29 23  1  0
  1 31  1  0
  1 32  1  0
  1 33  1  0
  2 34  1  1
  3 35  1  0
  3 36  1  0
  5 37  1  0
  5 38  1  0
  6 39  1  0
  6 40  1  0
 11 41  1  0
 12 42  1  0
 13 43  1  0
 15 44  1  0
 24 45  1  0
 25 46  1  0
 28 47  1  0
M  END
$$$$
[H]c1c([H])c(S(=O)(=O)N2C([H])([H])C([H])([H])N(c3c([H])c([H])c(C(F)(F)F)c([H])c3[H])C([H])([H])C2([H])[H])c([H])c([H])c1OC([H])([H])[H]
     RDKit          3D

 46 48  0  0  0  0  0  0  0  0999 V2000
    8.0242    1.5571    0.4412 C   0  0  0  0  0  0  0  0  0  0  0  0
    7.1144    0.8968   -0.3742 O   0  0  0  0  0  0  0  0  0  0  0  0
    5.7654    0.7229   -0.1540 C   0  0  0  0  0  0  0  0  0  0  0  0
    4.9993    0.0339   -1.0679 C   0  0  0  0  0  0  0  0  0  0  0  0
    3.6210   -0.1567   -0.8859 C   0  0  0  0  0  0  0  0  0  0  0  0
    2.9580    0.3211    0.1849 C   0  0  0  0  0  0  0  0  0  0  0  0
    3.7629    1.0263    1.1138 C   0  0  0  0  0  0  0  0  0  0  0  0
    5.1043    1.2150    0.9515 C   0  0  0  0  0  0  0  0  0  0  0  0
    1.2571    0.1818    0.5710 S   0  0  0  0  0  0  0  0  0  0  0  0
    1.1486    0.2822    2.0976 O   0  0  0  0  0  0  0  0  0  0  0  0
    0.6283    1.5684    0.1530 O   0  0  0  0  0  0  0  0  0  0  0  0
    0.3972   -1.0595    0.0082 N   0  0  0  0  0  0  0  0  0  0  0  0
    0.1757   -1.2742   -1.3588 C   0  0  0  0  0  0  0  0  0  0  0  0
   -1.2539   -0.7062   -1.6709 C   0  0  0  0  0  0  0  0  0  0  0  0
   -2.1213   -1.2097   -0.6295 N   0  0  0  0  0  0  0  0  0  0  0  0
   -1.6709   -2.3243    0.1786 C   0  0  0  0  0  0  0  0  0  0  0  0
   -0.3657   -1.8873    0.8503 C   0  0  0  0  0  0  0  0  0  0  0  0
   -3.3987   -0.5992   -0.3725 C   0  0  0  0  0  0  0  0  0  0  0  0
   -3.4506    0.7371   -0.0671 C   0  0  0  0  0  0  0  0  0  0  0  0
   -4.6477    1.3797    0.1348 C   0  0  0  0  0  0  0  0  0  0  0  0
   -5.8481    0.7336    0.0424 C   0  0  0  0  0  0  0  0  0  0  0  0
   -5.8303   -0.6285   -0.2630 C   0  0  0  0  0  0  0  0  0  0  0  0
   -4.6042   -1.2823   -0.4690 C   0  0  0  0  0  0  0  0  0  0  0  0
   -7.1332    1.4576    0.2480 C   0  0  0  0  0  0  0  0  0  0  0  0
   -6.8467    2.6940    0.8260 F   0  0  0  0  0  0  0  0  0  0  0  0
   -8.0057    0.7962    1.0830 F   0  0  0  0  0  0  0  0  0  0  0  0
   -7.6747    1.6921   -0.9982 F   0  0  0  0  0  0  0  0  0  0  0  0
    7.6119    2.1766    1.2487 H   0  0  0  0  0  0  0  0  0  0  0  0
    8.7462    0.7830    0.8262 H   0  0  0  0  0  0  0  0  0  0  0  0
    8.6548    2.2620   -0.1888 H   0  0  0  0  0  0  0  0  0  0  0  0
    5.4855   -0.3760   -1.9530 H   0  0  0  0  0  0  0  0  0  0  0  0
    3.0719   -0.7384   -1.6389 H   0  0  0  0  0  0  0  0  0  0  0  0
    3.2519    1.4155    1.9957 H   0  0  0  0  0  0  0  0  0  0  0  0
    5.6940    1.7757    1.6893 H   0  0  0  0  0  0  0  0  0  0  0  0
    0.1095   -2.3701   -1.5917 H   0  0  0  0  0  0  0  0  0  0  0  0
    0.8806   -0.8474   -2.0615 H   0  0  0  0  0  0  0  0  0  0  0  0
   -1.5223   -0.9614   -2.6839 H   0  0  0  0  0  0  0  0  0  0  0  0
   -1.2286    0.4214   -1.5412 H   0  0  0  0  0  0  0  0  0  0  0  0
   -2.3606   -2.5685    0.9862 H   0  0  0  0  0  0  0  0  0  0  0  0
   -1.5033   -3.2231   -0.4101 H   0  0  0  0  0  0  0  0  0  0  0  0
    0.2305   -2.8044    1.1367 H   0  0  0  0  0  0  0  0  0  0  0  0
   -0.6546   -1.4206    1.8158 H   0  0  0  0  0  0  0  0  0  0  0  0
   -2.5515    1.3483    0.0289 H   0  0  0  0  0  0  0  0  0  0  0  0
   -4.6622    2.4575    0.3790 H   0  0  0  0  0  0  0  0  0  0  0  0
   -6.7503   -1.1796   -0.3436 H   0  0  0  0  0  0  0  0  0  0  0  0
   -4.6080   -2.3182   -0.6877 H   0  0  0  0  0  0  0  0  0  0  0  0
  1  2  1  0
  2  3  1  0
  3  4  2  0
  4  5  1  0
  5  6  2  0
  6  7  1  0
  7  8  2  0
  6  9  1  0
  9 10  2  0
  9 11  2  0
  9 12  1  0
 12 13  1  0
 13 14  1  0
 14 15  1  0
 15 16  1  0
 16 17  1  0
 15 18  1  0
 18 19  2  0
 19 20  1  0
 20 21  2  0
 21 22  1  0
 22 23  2  0
 21 24  1  0
 24 25  1  0
 24 26  1  0
 24 27  1  0
  8  3  1  0
 17 12  1  0
 23 18  1  0
  1 28  1  0
  1 29  1  0
  1 30  1  0
  4 31  1  0
  5 32  1  0
  7 33  1  0
  8 34  1  0
 13 35  1  0
 13 36  1  0
 14 37  1  0
 14 38  1  0
 16 39  1  0
 16 40  1  0
 17 41  1  0
 17 42  1  0
 19 43  1  0
 20 44  1  0
 22 45  1  0
 23 46  1  0
M  END
$$$$
[H]N=C(N([H])[H])N([H])C([H])([H])C([H])([H])C([H])([H])[C@@]([H])(C(=O)N([H])[C@]([H])(C(=O)N([H])[C@]([H])(C(=O)N([H])[H])C([H])([H])c1c([H])c([H])c([H])c([H])c1[H])C([H])([H])c1c([H])c([H])c([H])c([H])c1[H])N([H])C(=O)[C@@]([H])(N([H])C(=O)OC(C([H])([H])[H])(C([H])([H])[H])C([H])([H])[H])C([H])([H])c1c([H])c([H])c([H])c([H])c1[H]
     RDKit          3D

102104  0  0  0  0  0  0  0  0999 V2000
   -8.6322    1.0332    3.0399 C   0  0  0  0  0  0  0  0  0  0  0  0
   -7.9392    0.4381    1.8267 C   0  0  0  0  0  0  0  0  0  0  0  0
   -8.6143    0.9322    0.5954 C   0  0  0  0  0  0  0  0  0  0  0  0
   -8.1369   -1.0693    1.9440 C   0  0  0  0  0  0  0  0  0  0  0  0
   -6.5736    0.7405    1.8888 O   0  0  0  0  0  0  0  0  0  0  0  0
   -5.6280    0.3785    0.9599 C   0  0  0  0  0  0  0  0  0  0  0  0
   -6.0299   -0.2855   -0.0412 O   0  0  0  0  0  0  0  0  0  0  0  0
   -4.2656    0.6900    1.0406 N   0  0  0  0  0  0  0  0  0  0  0  0
   -3.2290    0.3616    0.1288 C   0  0  1  0  0  0  0  0  0  0  0  0
   -2.3289    1.4687   -0.2772 C   0  0  0  0  0  0  0  0  0  0  0  0
   -2.9616    2.6173   -0.9461 C   0  0  0  0  0  0  0  0  0  0  0  0
   -3.1415    2.6731   -2.3107 C   0  0  0  0  0  0  0  0  0  0  0  0
   -3.7193    3.7769   -2.8687 C   0  0  0  0  0  0  0  0  0  0  0  0
   -4.1469    4.8731   -2.1201 C   0  0  0  0  0  0  0  0  0  0  0  0
   -3.9528    4.7869   -0.7494 C   0  0  0  0  0  0  0  0  0  0  0  0
   -3.3708    3.6792   -0.1731 C   0  0  0  0  0  0  0  0  0  0  0  0
   -2.3692   -0.6955    0.7689 C   0  0  0  0  0  0  0  0  0  0  0  0
   -2.6496   -1.1505    1.8963 O   0  0  0  0  0  0  0  0  0  0  0  0
   -1.2152   -1.2001    0.1053 N   0  0  0  0  0  0  0  0  0  0  0  0
   -0.3257   -2.1943    0.6089 C   0  0  1  0  0  0  0  0  0  0  0  0
   -0.2150   -3.4810   -0.0743 C   0  0  0  0  0  0  0  0  0  0  0  0
    0.2188   -3.6045   -1.4669 C   0  0  0  0  0  0  0  0  0  0  0  0
   -0.5726   -2.9723   -2.5488 C   0  0  0  0  0  0  0  0  0  0  0  0
   -1.9396   -3.4010   -2.6360 N   0  0  0  0  0  0  0  0  0  0  0  0
   -2.7847   -2.8419   -3.6177 C   0  0  0  0  0  0  0  0  0  0  0  0
   -3.6601   -3.6591   -4.3536 N   0  0  0  0  0  0  0  0  0  0  0  0
   -2.7448   -1.5803   -3.8354 N   0  0  0  0  0  0  0  0  0  0  0  0
    0.9502   -1.5230    0.9851 C   0  0  0  0  0  0  0  0  0  0  0  0
    0.8581   -0.3454    1.4955 O   0  0  0  0  0  0  0  0  0  0  0  0
    2.2384   -2.0500    0.8319 N   0  0  0  0  0  0  0  0  0  0  0  0
    3.4331   -1.3289    1.2326 C   0  0  1  0  0  0  0  0  0  0  0  0
    4.5304   -2.2527    1.5589 C   0  0  0  0  0  0  0  0  0  0  0  0
    4.3036   -3.2046    2.6465 C   0  0  0  0  0  0  0  0  0  0  0  0
    3.7913   -4.4775    2.4381 C   0  0  0  0  0  0  0  0  0  0  0  0
    3.5872   -5.3698    3.4989 C   0  0  0  0  0  0  0  0  0  0  0  0
    3.8907   -5.0037    4.7780 C   0  0  0  0  0  0  0  0  0  0  0  0
    4.3975   -3.7503    5.0033 C   0  0  0  0  0  0  0  0  0  0  0  0
    4.5958   -2.8782    3.9550 C   0  0  0  0  0  0  0  0  0  0  0  0
    3.8436   -0.3698    0.1485 C   0  0  0  0  0  0  0  0  0  0  0  0
    3.1199   -0.2887   -0.8629 O   0  0  0  0  0  0  0  0  0  0  0  0
    4.9970    0.4195    0.2530 N   0  0  0  0  0  0  0  0  0  0  0  0
    5.3848    1.3737   -0.7946 C   0  0  1  0  0  0  0  0  0  0  0  0
    5.6380    2.6800   -0.1356 C   0  0  0  0  0  0  0  0  0  0  0  0
    6.0294    3.8104   -0.9776 C   0  0  0  0  0  0  0  0  0  0  0  0
    7.3246    4.1633   -1.2524 C   0  0  0  0  0  0  0  0  0  0  0  0
    7.6504    5.2555   -2.0508 C   0  0  0  0  0  0  0  0  0  0  0  0
    6.6236    6.0204   -2.5914 C   0  0  0  0  0  0  0  0  0  0  0  0
    5.3024    5.6930   -2.3342 C   0  0  0  0  0  0  0  0  0  0  0  0
    5.0305    4.6089   -1.5432 C   0  0  0  0  0  0  0  0  0  0  0  0
    6.4852    0.8348   -1.6062 C   0  0  0  0  0  0  0  0  0  0  0  0
    7.0667    1.4389   -2.7329 N   0  0  0  0  0  0  0  0  0  0  0  0
    6.9547   -0.3007   -1.2487 O   0  0  0  0  0  0  0  0  0  0  0  0
   -7.9887    1.8666    3.4109 H   0  0  0  0  0  0  0  0  0  0  0  0
   -8.7265    0.3048    3.8480 H   0  0  0  0  0  0  0  0  0  0  0  0
   -9.5946    1.5081    2.7547 H   0  0  0  0  0  0  0  0  0  0  0  0
   -9.6252    1.2993    0.8601 H   0  0  0  0  0  0  0  0  0  0  0  0
   -8.7524    0.0715   -0.1086 H   0  0  0  0  0  0  0  0  0  0  0  0
   -8.0934    1.7778    0.1047 H   0  0  0  0  0  0  0  0  0  0  0  0
   -9.1504   -1.2605    2.2938 H   0  0  0  0  0  0  0  0  0  0  0  0
   -7.9216   -1.5719    0.9911 H   0  0  0  0  0  0  0  0  0  0  0  0
   -7.4189   -1.4597    2.7080 H   0  0  0  0  0  0  0  0  0  0  0  0
   -3.9806    1.2492    1.9050 H   0  0  0  0  0  0  0  0  0  0  0  0
   -3.6650   -0.1614   -0.7533 H   0  0  0  0  0  0  0  0  0  0  0  0
   -1.5578    1.1032   -0.9912 H   0  0  0  0  0  0  0  0  0  0  0  0
   -1.7338    1.8541    0.5852 H   0  0  0  0  0  0  0  0  0  0  0  0
   -2.8055    1.8133   -2.8756 H   0  0  0  0  0  0  0  0  0  0  0  0
   -3.8542    3.8043   -3.9574 H   0  0  0  0  0  0  0  0  0  0  0  0
   -4.6014    5.7331   -2.5985 H   0  0  0  0  0  0  0  0  0  0  0  0
   -4.2704    5.6204   -0.1299 H   0  0  0  0  0  0  0  0  0  0  0  0
   -3.2512    3.6857    0.9164 H   0  0  0  0  0  0  0  0  0  0  0  0
   -1.0019   -0.7879   -0.8311 H   0  0  0  0  0  0  0  0  0  0  0  0
   -0.7996   -2.4656    1.6434 H   0  0  0  0  0  0  0  0  0  0  0  0
   -1.2146   -4.0059    0.0417 H   0  0  0  0  0  0  0  0  0  0  0  0
    0.4835   -4.1248    0.5501 H   0  0  0  0  0  0  0  0  0  0  0  0
    0.2231   -4.7242   -1.7028 H   0  0  0  0  0  0  0  0  0  0  0  0
    1.2884   -3.3249   -1.6468 H   0  0  0  0  0  0  0  0  0  0  0  0
   -0.4152   -1.8916   -2.6857 H   0  0  0  0  0  0  0  0  0  0  0  0
   -0.0766   -3.3863   -3.5228 H   0  0  0  0  0  0  0  0  0  0  0  0
   -2.3210   -4.1147   -1.9932 H   0  0  0  0  0  0  0  0  0  0  0  0
   -3.2578   -4.3372   -5.0355 H   0  0  0  0  0  0  0  0  0  0  0  0
   -4.6930   -3.6157   -4.2438 H   0  0  0  0  0  0  0  0  0  0  0  0
   -2.1008   -0.9506   -3.3039 H   0  0  0  0  0  0  0  0  0  0  0  0
    2.3825   -2.9916    0.4220 H   0  0  0  0  0  0  0  0  0  0  0  0
    3.1034   -0.6395    2.0549 H   0  0  0  0  0  0  0  0  0  0  0  0
    4.8580   -2.8672    0.6701 H   0  0  0  0  0  0  0  0  0  0  0  0
    5.4671   -1.6582    1.7971 H   0  0  0  0  0  0  0  0  0  0  0  0
    3.5401   -4.8108    1.4521 H   0  0  0  0  0  0  0  0  0  0  0  0
    3.1823   -6.3779    3.3277 H   0  0  0  0  0  0  0  0  0  0  0  0
    3.7565   -5.6447    5.6421 H   0  0  0  0  0  0  0  0  0  0  0  0
    4.6538   -3.4106    5.9916 H   0  0  0  0  0  0  0  0  0  0  0  0
    4.9930   -1.9082    4.1584 H   0  0  0  0  0  0  0  0  0  0  0  0
    5.6190    0.3569    1.0753 H   0  0  0  0  0  0  0  0  0  0  0  0
    4.5053    1.4454   -1.4761 H   0  0  0  0  0  0  0  0  0  0  0  0
    4.6705    2.9648    0.3944 H   0  0  0  0  0  0  0  0  0  0  0  0
    6.3437    2.5584    0.7480 H   0  0  0  0  0  0  0  0  0  0  0  0
    8.0991    3.5450   -0.8079 H   0  0  0  0  0  0  0  0  0  0  0  0
    8.6787    5.5198   -2.2590 H   0  0  0  0  0  0  0  0  0  0  0  0
    6.9260    6.8605   -3.2041 H   0  0  0  0  0  0  0  0  0  0  0  0
    4.5510    6.3216   -2.7782 H   0  0  0  0  0  0  0  0  0  0  0  0
    3.9877    4.3600   -1.3466 H   0  0  0  0  0  0  0  0  0  0  0  0
    6.4067    1.9889   -3.3573 H   0  0  0  0  0  0  0  0  0  0  0  0
    8.0535    1.4095   -3.0188 H   0  0  0  0  0  0  0  0  0  0  0  0
  1  2  1  0
  2  3  1  0
  2  4  1  0
  2  5  1  0
  5  6  1  0
  6  7  2  0
  6  8  1  0
  8  9  1  0
  9 10  1  0
 10 11  1  0
 11 12  2  0
 12 13  1  0
 13 14  2  0
 14 15  1  0
 15 16  2  0
  9 17  1  0
 17 18  2  0
 17 19  1  0
 19 20  1  0
 20 21  1  0
 21 22  1  0
 22 23  1  0
 23 24  1  0
 24 25  1  0
 25 26  1  0
 25 27  2  3
 20 28  1  0
 28 29  2  0
 28 30  1  0
 30 31  1  0
 31 32  1  0
 32 33  1  0
 33 34  2  0
 34 35  1  0
 35 36  2  0
 36 37  1  0
 37 38  2  0
 31 39  1  0
 39 40  2  0
 39 41  1  0
 41 42  1  0
 42 43  1  0
 43 44  1  0
 44 45  2  0
 45 46  1  0
 46 47  2  0
 47 48  1  0
 48 49  2  0
 42 50  1  0
 50 51  1  0
 50 52  2  0
 16 11  1  0
 38 33  1  0
 49 44  1  0
  1 53  1  0
  1 54  1  0
  1 55  1  0
  3 56  1  0
  3 57  1  0
  3 58  1  0
  4 59  1  0
  4 60  1  0
  4 61  1  0
  8 62  1  0
  9 63  1  6
 10 64  1  0
 10 65  1  0
 12 66  1  0
 13 67  1  0
 14 68  1  0
 15 69  1  0
 16 70  1  0
 19 71  1  0
 20 72  1  1
 21 73  1  0
 21 74  1  0
 22 75  1  0
 22 76  1  0
 23 77  1  0
 23 78  1  0
 24 79  1  0
 26 80  1  0
 26 81  1  0
 27 82  1  0
 30 83  1  0
 31 84  1  1
 32 85  1  0
 32 86  1  0
 34 87  1  0
 35 88  1  0
 36 89  1  0
 37 90  1  0
 38 91  1  0
 41 92  1  0
 42 93  1  6
 43 94  1  0
 43 95  1  0
 45 96  1  0
 46 97  1  0
 47 98  1  0
 48 99  1  0
 49100  1  0
 51101  1  0
 51102  1  0
M  END
$$$$
[H]c1c([H])c(Cl)c(C(=O)N(C([H])([H])[H])[C@]2([H])C([H])([H])[C@@]3([H])C([H])([H])N(S(=O)(=O)c4c([H])c([H])c(OC([H])([H])[H])c([H])c4[H])C([H])([H])[C@@]23[H])c([H])c1Cl
     RDKit          3D

 52 55  0  0  0  0  0  0  0  0999 V2000
    6.2974    3.5966   -0.6508 C   0  0  0  0  0  0  0  0  0  0  0  0
    6.5798    2.2315   -0.8858 O   0  0  0  0  0  0  0  0  0  0  0  0
    5.6388    1.2317   -0.5972 C   0  0  0  0  0  0  0  0  0  0  0  0
    5.9161   -0.0979   -0.8270 C   0  0  0  0  0  0  0  0  0  0  0  0
    4.9920   -1.0818   -0.5438 C   0  0  0  0  0  0  0  0  0  0  0  0
    3.7461   -0.7905   -0.0178 C   0  0  0  0  0  0  0  0  0  0  0  0
    3.4765    0.5477    0.2097 C   0  0  0  0  0  0  0  0  0  0  0  0
    4.4002    1.5341   -0.0731 C   0  0  0  0  0  0  0  0  0  0  0  0
    2.5967   -2.0612    0.3315 S   0  0  0  0  0  0  0  0  0  0  0  0
    1.7738   -1.5846    1.5195 O   0  0  0  0  0  0  0  0  0  0  0  0
    3.3005   -3.3117    0.8053 O   0  0  0  0  0  0  0  0  0  0  0  0
    1.6273   -2.3564   -1.0422 N   0  0  0  0  0  0  0  0  0  0  0  0
    0.8906   -1.1770   -1.3778 C   0  0  0  0  0  0  0  0  0  0  0  0
   -0.2865   -1.2303   -0.4370 C   0  0  1  0  0  0  0  0  0  0  0  0
   -1.6131   -1.0337   -1.1282 C   0  0  1  0  0  0  0  0  0  0  0  0
   -1.7344   -2.5414   -1.2255 C   0  0  0  0  0  0  0  0  0  0  0  0
   -0.5902   -2.6898   -0.2737 C   0  0  1  0  0  0  0  0  0  0  0  0
    0.6373   -3.3688   -0.8414 C   0  0  0  0  0  0  0  0  0  0  0  0
   -2.6333   -0.3823   -0.3726 N   0  0  0  0  0  0  0  0  0  0  0  0
   -2.9649   -0.8027    0.9628 C   0  0  0  0  0  0  0  0  0  0  0  0
   -3.3450    0.7063   -0.9387 C   0  0  0  0  0  0  0  0  0  0  0  0
   -3.0671    1.0832   -2.0998 O   0  0  0  0  0  0  0  0  0  0  0  0
   -4.3949    1.3948   -0.1927 C   0  0  0  0  0  0  0  0  0  0  0  0
   -5.6758    0.9261   -0.3133 C   0  0  0  0  0  0  0  0  0  0  0  0
   -6.6559    1.6044    0.4110 C   0  0  0  0  0  0  0  0  0  0  0  0
   -8.3244    1.0574    0.3040 Cl  0  0  0  0  0  0  0  0  0  0  0  0
   -6.3272    2.6739    1.1894 C   0  0  0  0  0  0  0  0  0  0  0  0
   -5.0285    3.1258    1.2933 C   0  0  0  0  0  0  0  0  0  0  0  0
   -4.0434    2.4746    0.5894 C   0  0  0  0  0  0  0  0  0  0  0  0
   -2.3669    2.9737    0.6571 Cl  0  0  0  0  0  0  0  0  0  0  0  0
    6.1437    3.7067    0.4622 H   0  0  0  0  0  0  0  0  0  0  0  0
    7.1728    4.2066   -0.8940 H   0  0  0  0  0  0  0  0  0  0  0  0
    5.3543    3.9290   -1.1096 H   0  0  0  0  0  0  0  0  0  0  0  0
    6.8936   -0.3659   -1.2433 H   0  0  0  0  0  0  0  0  0  0  0  0
    5.2190   -2.1397   -0.7292 H   0  0  0  0  0  0  0  0  0  0  0  0
    2.4919    0.7770    0.6252 H   0  0  0  0  0  0  0  0  0  0  0  0
    4.1783    2.5754    0.1087 H   0  0  0  0  0  0  0  0  0  0  0  0
    0.5107   -1.3022   -2.4334 H   0  0  0  0  0  0  0  0  0  0  0  0
    1.4539   -0.2472   -1.3478 H   0  0  0  0  0  0  0  0  0  0  0  0
   -0.2314   -0.6187    0.4608 H   0  0  0  0  0  0  0  0  0  0  0  0
   -1.4524   -0.6193   -2.1382 H   0  0  0  0  0  0  0  0  0  0  0  0
   -1.4648   -2.9638   -2.2151 H   0  0  0  0  0  0  0  0  0  0  0  0
   -2.7053   -2.9488   -0.8930 H   0  0  0  0  0  0  0  0  0  0  0  0
   -0.8297   -3.0322    0.7449 H   0  0  0  0  0  0  0  0  0  0  0  0
    1.0472   -4.0806   -0.0744 H   0  0  0  0  0  0  0  0  0  0  0  0
    0.4230   -3.9704   -1.7366 H   0  0  0  0  0  0  0  0  0  0  0  0
   -2.0754   -0.9901    1.5985 H   0  0  0  0  0  0  0  0  0  0  0  0
   -3.5721   -1.7471    0.9613 H   0  0  0  0  0  0  0  0  0  0  0  0
   -3.5846   -0.0556    1.5044 H   0  0  0  0  0  0  0  0  0  0  0  0
   -5.9612    0.0757   -0.9275 H   0  0  0  0  0  0  0  0  0  0  0  0
   -7.0846    3.1980    1.7491 H   0  0  0  0  0  0  0  0  0  0  0  0
   -4.7483    3.9615    1.8970 H   0  0  0  0  0  0  0  0  0  0  0  0
  1  2  1  0
  2  3  1  0
  3  4  2  0
  4  5  1  0
  5  6  2  0
  6  7  1  0
  7  8  2  0
  6  9  1  0
  9 10  2  0
  9 11  2  0
  9 12  1  0
 12 13  1  0
 13 14  1  0
 14 15  1  0
 15 16  1  0
 16 17  1  0
 17 18  1  0
 15 19  1  0
 19 20  1  0
 19 21  1  0
 21 22  2  0
 21 23  1  0
 23 24  2  0
 24 25  1  0
 25 26  1  0
 25 27  2  0
 27 28  1  0
 28 29  2  0
 29 30  1  0
  8  3  1  0
 18 12  1  0
 29 23  1  0
 17 14  1  0
  1 31  1  0
  1 32  1  0
  1 33  1  0
  4 34  1  0
  5 35  1  0
  7 36  1  0
  8 37  1  0
 13 38  1  0
 13 39  1  0
 14 40  1  1
 15 41  1  6
 16 42  1  0
 16 43  1  0
 17 44  1  1
 18 45  1  0
 18 46  1  0
 20 47  1  0
 20 48  1  0
 20 49  1  0
 24 50  1  0
 27 51  1  0
 28 52  1  0
M  END
$$$$
[H]OC(=O)[C@@]([H])(N([H])C(=O)[C@@]([H])(N([H])C(=O)[C@@]([H])(N([H])C(=O)[C@@]([H])(N([H])C(=O)[C@@]([H])(N([H])C(=O)C([H])([H])[H])C([H])([H])C([H])(C([H])([H])[H])C([H])([H])[H])C([H])([H])c1c([H])c([H])c([H])c([H])c1[H])C([H])([H])C([H])(C([H])([H])[H])C([H])([H])[H])C([H])([H])C([H])(C([H])([H])[H])C([H])([H])[H])C([H])([H])C([H])(C([H])([H])[H])C([H])([H])[H]
     RDKit          3D

104104  0  0  0  0  0  0  0  0999 V2000
   -8.8634    2.5641    2.4600 C   0  0  0  0  0  0  0  0  0  0  0  0
   -8.1721    1.2983    2.1494 C   0  0  0  0  0  0  0  0  0  0  0  0
   -8.4540    0.2735    2.8061 O   0  0  0  0  0  0  0  0  0  0  0  0
   -7.1942    1.2053    1.1263 N   0  0  0  0  0  0  0  0  0  0  0  0
   -6.5045   -0.0220    0.8034 C   0  0  1  0  0  0  0  0  0  0  0  0
   -6.5848   -0.4997   -0.5846 C   0  0  0  0  0  0  0  0  0  0  0  0
   -7.9760   -0.7924   -1.0810 C   0  0  0  0  0  0  0  0  0  0  0  0
   -7.8904   -1.3266   -2.5355 C   0  0  0  0  0  0  0  0  0  0  0  0
   -8.8794    0.4024   -1.1645 C   0  0  0  0  0  0  0  0  0  0  0  0
   -5.1308    0.1021    1.3624 C   0  0  0  0  0  0  0  0  0  0  0  0
   -4.9862    0.8142    2.3878 O   0  0  0  0  0  0  0  0  0  0  0  0
   -4.0056   -0.5248    0.8106 N   0  0  0  0  0  0  0  0  0  0  0  0
   -2.6699   -0.4101    1.3627 C   0  0  1  0  0  0  0  0  0  0  0  0
   -2.1540   -1.7222    1.7913 C   0  0  0  0  0  0  0  0  0  0  0  0
   -2.0778   -2.7820    0.7776 C   0  0  0  0  0  0  0  0  0  0  0  0
   -0.9588   -3.0792    0.0509 C   0  0  0  0  0  0  0  0  0  0  0  0
   -0.9051   -4.0800   -0.9114 C   0  0  0  0  0  0  0  0  0  0  0  0
   -2.0644   -4.7832   -1.1082 C   0  0  0  0  0  0  0  0  0  0  0  0
   -3.2082   -4.5096   -0.3925 C   0  0  0  0  0  0  0  0  0  0  0  0
   -3.2371   -3.5179    0.5516 C   0  0  0  0  0  0  0  0  0  0  0  0
   -1.8561    0.4366    0.4743 C   0  0  0  0  0  0  0  0  0  0  0  0
   -2.3796    0.8822   -0.6265 O   0  0  0  0  0  0  0  0  0  0  0  0
   -0.5498    0.8241    0.7159 N   0  0  0  0  0  0  0  0  0  0  0  0
    0.1250    1.7600   -0.2903 C   0  0  1  0  0  0  0  0  0  0  0  0
   -0.0826    3.0989    0.2340 C   0  0  0  0  0  0  0  0  0  0  0  0
    0.2549    4.3611   -0.3847 C   0  0  0  0  0  0  0  0  0  0  0  0
   -0.1986    5.5399    0.5484 C   0  0  0  0  0  0  0  0  0  0  0  0
    1.6620    4.6913   -0.6932 C   0  0  0  0  0  0  0  0  0  0  0  0
    1.3497    1.0936   -0.5864 C   0  0  0  0  0  0  0  0  0  0  0  0
    1.1518   -0.2250   -0.7640 O   0  0  0  0  0  0  0  0  0  0  0  0
    2.6937    1.3880   -0.7456 N   0  0  0  0  0  0  0  0  0  0  0  0
    3.6830    0.3389   -1.0664 C   0  0  1  0  0  0  0  0  0  0  0  0
    4.5393    0.6469   -2.2222 C   0  0  0  0  0  0  0  0  0  0  0  0
    3.9136    0.8521   -3.5460 C   0  0  0  0  0  0  0  0  0  0  0  0
    3.1261   -0.3330   -4.0432 C   0  0  0  0  0  0  0  0  0  0  0  0
    3.0657    2.0850   -3.6758 C   0  0  0  0  0  0  0  0  0  0  0  0
    4.5682    0.1463    0.1169 C   0  0  0  0  0  0  0  0  0  0  0  0
    4.3137    0.7908    1.1686 O   0  0  0  0  0  0  0  0  0  0  0  0
    5.6695   -0.7143    0.1160 N   0  0  0  0  0  0  0  0  0  0  0  0
    6.5476   -0.9220    1.2934 C   0  0  1  0  0  0  0  0  0  0  0  0
    7.0489   -2.3217    1.2570 C   0  0  0  0  0  0  0  0  0  0  0  0
    7.9193   -2.8173    2.3247 C   0  0  0  0  0  0  0  0  0  0  0  0
    9.2362   -2.1801    2.5613 C   0  0  0  0  0  0  0  0  0  0  0  0
    8.2293   -4.3040    1.9951 C   0  0  0  0  0  0  0  0  0  0  0  0
    7.6836    0.0451    1.1773 C   0  0  0  0  0  0  0  0  0  0  0  0
    8.1911    0.7193    2.2546 O   0  0  0  0  0  0  0  0  0  0  0  0
    8.1672    0.2290    0.0302 O   0  0  0  0  0  0  0  0  0  0  0  0
   -9.9662    2.4708    2.4263 H   0  0  0  0  0  0  0  0  0  0  0  0
   -8.5536    2.9221    3.4762 H   0  0  0  0  0  0  0  0  0  0  0  0
   -8.4843    3.3374    1.7485 H   0  0  0  0  0  0  0  0  0  0  0  0
   -6.9789    2.1080    0.5967 H   0  0  0  0  0  0  0  0  0  0  0  0
   -6.9789   -0.8243    1.4746 H   0  0  0  0  0  0  0  0  0  0  0  0
   -5.9031   -1.3517   -0.8162 H   0  0  0  0  0  0  0  0  0  0  0  0
   -6.1972    0.3291   -1.2520 H   0  0  0  0  0  0  0  0  0  0  0  0
   -8.4099   -1.6069   -0.4566 H   0  0  0  0  0  0  0  0  0  0  0  0
   -8.9156   -1.4331   -2.9359 H   0  0  0  0  0  0  0  0  0  0  0  0
   -7.3752   -2.3148   -2.4373 H   0  0  0  0  0  0  0  0  0  0  0  0
   -7.2399   -0.6710   -3.1312 H   0  0  0  0  0  0  0  0  0  0  0  0
   -9.6544    0.2661   -0.3494 H   0  0  0  0  0  0  0  0  0  0  0  0
   -8.3898    1.3743   -1.1484 H   0  0  0  0  0  0  0  0  0  0  0  0
   -9.5115    0.2828   -2.1021 H   0  0  0  0  0  0  0  0  0  0  0  0
   -4.1029   -1.0992   -0.0459 H   0  0  0  0  0  0  0  0  0  0  0  0
   -2.8500    0.1749    2.3426 H   0  0  0  0  0  0  0  0  0  0  0  0
   -1.1639   -1.6144    2.3342 H   0  0  0  0  0  0  0  0  0  0  0  0
   -2.8296   -2.1063    2.6160 H   0  0  0  0  0  0  0  0  0  0  0  0
   -0.0185   -2.5418    0.2049 H   0  0  0  0  0  0  0  0  0  0  0  0
    0.0124   -4.2893   -1.4747 H   0  0  0  0  0  0  0  0  0  0  0  0
   -2.1157   -5.5832   -1.8376 H   0  0  0  0  0  0  0  0  0  0  0  0
   -4.1312   -5.0906   -0.5662 H   0  0  0  0  0  0  0  0  0  0  0  0
   -4.1425   -3.2953    1.1249 H   0  0  0  0  0  0  0  0  0  0  0  0
    0.0206    0.5542    1.4935 H   0  0  0  0  0  0  0  0  0  0  0  0
   -0.5760    1.6552   -1.1851 H   0  0  0  0  0  0  0  0  0  0  0  0
   -1.2276    3.1684    0.4916 H   0  0  0  0  0  0  0  0  0  0  0  0
    0.2887    3.1117    1.3590 H   0  0  0  0  0  0  0  0  0  0  0  0
   -0.4131    4.4977   -1.3026 H   0  0  0  0  0  0  0  0  0  0  0  0
    0.1599    5.3619    1.5769 H   0  0  0  0  0  0  0  0  0  0  0  0
    0.2810    6.4644    0.1814 H   0  0  0  0  0  0  0  0  0  0  0  0
   -1.2920    5.6692    0.4548 H   0  0  0  0  0  0  0  0  0  0  0  0
    1.8288    5.8044   -0.7830 H   0  0  0  0  0  0  0  0  0  0  0  0
    1.9571    4.1733   -1.6129 H   0  0  0  0  0  0  0  0  0  0  0  0
    2.3021    4.3757    0.1678 H   0  0  0  0  0  0  0  0  0  0  0  0
    3.0892    2.3264   -0.6356 H   0  0  0  0  0  0  0  0  0  0  0  0
    3.1206   -0.6227   -1.1560 H   0  0  0  0  0  0  0  0  0  0  0  0
    5.0776    1.6192   -1.9772 H   0  0  0  0  0  0  0  0  0  0  0  0
    5.3896   -0.0723   -2.3512 H   0  0  0  0  0  0  0  0  0  0  0  0
    4.7326    0.9879   -4.3305 H   0  0  0  0  0  0  0  0  0  0  0  0
    3.7758   -1.2353   -4.1764 H   0  0  0  0  0  0  0  0  0  0  0  0
    2.7579   -0.0848   -5.0598 H   0  0  0  0  0  0  0  0  0  0  0  0
    2.2400   -0.5388   -3.4172 H   0  0  0  0  0  0  0  0  0  0  0  0
    3.1507    2.5216   -4.7168 H   0  0  0  0  0  0  0  0  0  0  0  0
    1.9988    1.9276   -3.5201 H   0  0  0  0  0  0  0  0  0  0  0  0
    3.4296    2.8555   -2.9379 H   0  0  0  0  0  0  0  0  0  0  0  0
    5.9156   -1.2536   -0.7290 H   0  0  0  0  0  0  0  0  0  0  0  0
    6.0456   -0.6605    2.2328 H   0  0  0  0  0  0  0  0  0  0  0  0
    7.6300   -2.4134    0.2793 H   0  0  0  0  0  0  0  0  0  0  0  0
    6.1298   -2.9887    1.1573 H   0  0  0  0  0  0  0  0  0  0  0  0
    7.3629   -2.9221    3.3186 H   0  0  0  0  0  0  0  0  0  0  0  0
    9.6695   -1.6081    1.7479 H   0  0  0  0  0  0  0  0  0  0  0  0
    9.2329   -1.5431    3.4947 H   0  0  0  0  0  0  0  0  0  0  0  0
   10.0268   -2.9827    2.8116 H   0  0  0  0  0  0  0  0  0  0  0  0
    9.0462   -4.6646    2.6697 H   0  0  0  0  0  0  0  0  0  0  0  0
    8.5946   -4.3622    0.9527 H   0  0  0  0  0  0  0  0  0  0  0  0
    7.3100   -4.8881    2.1210 H   0  0  0  0  0  0  0  0  0  0  0  0
    8.6883    1.6013    2.1426 H   0  0  0  0  0  0  0  0  0  0  0  0
  1  2  1  0
  2  3  2  0
  2  4  1  0
  4  5  1  0
  5  6  1  0
  6  7  1  0
  7  8  1  0
  7  9  1  0
  5 10  1  0
 10 11  2  0
 10 12  1  0
 12 13  1  0
 13 14  1  0
 14 15  1  0
 15 16  2  0
 16 17  1  0
 17 18  2  0
 18 19  1  0
 19 20  2  0
 13 21  1  0
 21 22  2  0
 21 23  1  0
 23 24  1  0
 24 25  1  0
 25 26  1  0
 26 27  1  0
 26 28  1  0
 24 29  1  0
 29 30  2  0
 29 31  1  0
 31 32  1  0
 32 33  1  0
 33 34  1  0
 34 35  1  0
 34 36  1  0
 32 37  1  0
 37 38  2  0
 37 39  1  0
 39 40  1  0
 40 41  1  0
 41 42  1  0
 42 43  1  0
 42 44  1  0
 40 45  1  0
 45 46  1  0
 45 47  2  0
 20 15  1  0
  1 48  1  0
  1 49  1  0
  1 50  1  0
  4 51  1  0
  5 52  1  1
  6 53  1  0
  6 54  1  0
  7 55  1  0
  8 56  1  0
  8 57  1  0
  8 58  1  0
  9 59  1  0
  9 60  1  0
  9 61  1  0
 12 62  1  0
 13 63  1  1
 14 64  1  0
 14 65  1  0
 16 66  1  0
 17 67  1  0
 18 68  1  0
 19 69  1  0
 20 70  1  0
 23 71  1  0
 24 72  1  6
 25 73  1  0
 25 74  1  0
 26 75  1  0
 27 76  1  0
 27 77  1  0
 27 78  1  0
 28 79  1  0
 28 80  1  0
 28 81  1  0
 31 82  1  0
 32 83  1  6
 33 84  1  0
 33 85  1  0
 34 86  1  0
 35 87  1  0
 35 88  1  0
 35 89  1  0
 36 90  1  0
 36 91  1  0
 36 92  1  0
 39 93  1  0
 40 94  1  1
 41 95  1  0
 41 96  1  0
 42 97  1  0
 43 98  1  0
 43 99  1  0
 43100  1  0
 44101  1  0
 44102  1  0
 44103  1  0
 46104  1  0
M  END
$$$$
[H]OC(=O)[C@@]1([H])O[C@@]([H])(n2c([H])nc3c(N([H])c4c([H])c([H])c(-c5c([H])c([H])c([H])c([H])c5Cl)c([H])c4[H])nc(Cl)nc32)[C@]([H])(O[H])[C@]1([H])O[H]
     RDKit          3D

 51 55  0  0  0  0  0  0  0  0999 V2000
   -8.8940    1.0567    1.6580 O   0  0  0  0  0  0  0  0  0  0  0  0
   -7.5570    0.7025    1.7570 C   0  0  0  0  0  0  0  0  0  0  0  0
   -7.1982    0.0611    2.7764 O   0  0  0  0  0  0  0  0  0  0  0  0
   -6.6067    1.0903    0.6653 C   0  0  1  0  0  0  0  0  0  0  0  0
   -5.3260    0.6570    0.9309 O   0  0  0  0  0  0  0  0  0  0  0  0
   -4.7549    0.4486   -0.3253 C   0  0  2  0  0  0  0  0  0  0  0  0
   -5.8431   -0.4260   -0.9615 C   0  0  2  0  0  0  0  0  0  0  0  0
   -5.6748   -0.5539   -2.3215 O   0  0  0  0  0  0  0  0  0  0  0  0
   -7.0649    0.4139   -0.6039 C   0  0  2  0  0  0  0  0  0  0  0  0
   -7.2747    1.4259   -1.5582 O   0  0  0  0  0  0  0  0  0  0  0  0
   -3.4942   -0.2112   -0.2814 N   0  0  0  0  0  0  0  0  0  0  0  0
   -3.1756   -1.5160   -0.3090 C   0  0  0  0  0  0  0  0  0  0  0  0
   -1.8398   -1.6658   -0.2439 N   0  0  0  0  0  0  0  0  0  0  0  0
   -1.2767   -0.4485   -0.1730 C   0  0  0  0  0  0  0  0  0  0  0  0
    0.0528   -0.0235   -0.0887 C   0  0  0  0  0  0  0  0  0  0  0  0
    1.0850   -0.9804   -0.0522 N   0  0  0  0  0  0  0  0  0  0  0  0
    2.4551   -0.7941    0.0139 C   0  0  0  0  0  0  0  0  0  0  0  0
    3.2730   -1.8773    0.3458 C   0  0  0  0  0  0  0  0  0  0  0  0
    4.6343   -1.7304    0.4035 C   0  0  0  0  0  0  0  0  0  0  0  0
    5.2509   -0.5267    0.1411 C   0  0  0  0  0  0  0  0  0  0  0  0
    4.4747    0.5463   -0.1852 C   0  0  0  0  0  0  0  0  0  0  0  0
    3.0881    0.3810   -0.2404 C   0  0  0  0  0  0  0  0  0  0  0  0
    6.7100   -0.3914    0.2195 C   0  0  0  0  0  0  0  0  0  0  0  0
    7.4022   -0.8482    1.3289 C   0  0  0  0  0  0  0  0  0  0  0  0
    8.7556   -0.7351    1.4485 C   0  0  0  0  0  0  0  0  0  0  0  0
    9.4781   -0.1454    0.4344 C   0  0  0  0  0  0  0  0  0  0  0  0
    8.8234    0.3192   -0.6813 C   0  0  0  0  0  0  0  0  0  0  0  0
    7.4340    0.1972   -0.7927 C   0  0  0  0  0  0  0  0  0  0  0  0
    6.6712    0.8025   -2.2522 Cl  0  0  0  0  0  0  0  0  0  0  0  0
    0.2118    1.2992   -0.0354 N   0  0  0  0  0  0  0  0  0  0  0  0
   -0.7668    2.2127   -0.0559 C   0  0  0  0  0  0  0  0  0  0  0  0
   -0.4741    3.9294    0.0178 Cl  0  0  0  0  0  0  0  0  0  0  0  0
   -2.0302    1.7724   -0.1372 N   0  0  0  0  0  0  0  0  0  0  0  0
   -2.3035    0.4450   -0.1966 C   0  0  0  0  0  0  0  0  0  0  0  0
   -9.2581    1.4117    0.7833 H   0  0  0  0  0  0  0  0  0  0  0  0
   -6.5650    2.2022    0.5640 H   0  0  0  0  0  0  0  0  0  0  0  0
   -4.7360    1.4265   -0.8407 H   0  0  0  0  0  0  0  0  0  0  0  0
   -5.8936   -1.3795   -0.4148 H   0  0  0  0  0  0  0  0  0  0  0  0
   -5.8642   -1.5027   -2.5655 H   0  0  0  0  0  0  0  0  0  0  0  0
   -7.9695   -0.2036   -0.4672 H   0  0  0  0  0  0  0  0  0  0  0  0
   -6.4252    1.7162   -1.9496 H   0  0  0  0  0  0  0  0  0  0  0  0
   -3.9362   -2.2964   -0.3755 H   0  0  0  0  0  0  0  0  0  0  0  0
    0.7598   -2.0134   -0.0848 H   0  0  0  0  0  0  0  0  0  0  0  0
    2.8333   -2.8553    0.5637 H   0  0  0  0  0  0  0  0  0  0  0  0
    5.2673   -2.5812    0.6635 H   0  0  0  0  0  0  0  0  0  0  0  0
    4.9156    1.5318   -0.3979 H   0  0  0  0  0  0  0  0  0  0  0  0
    2.5612    1.2899   -0.5201 H   0  0  0  0  0  0  0  0  0  0  0  0
    6.8535   -1.3120    2.1314 H   0  0  0  0  0  0  0  0  0  0  0  0
    9.2955   -1.0862    2.3030 H   0  0  0  0  0  0  0  0  0  0  0  0
   10.5518   -0.0224    0.4620 H   0  0  0  0  0  0  0  0  0  0  0  0
    9.3645    0.7875   -1.4950 H   0  0  0  0  0  0  0  0  0  0  0  0
  1  2  1  0
  2  3  2  0
  2  4  1  0
  4  5  1  0
  5  6  1  0
  6  7  1  0
  7  8  1  0
  7  9  1  0
  9 10  1  0
  6 11  1  0
 11 12  1  0
 12 13  2  0
 13 14  1  0
 14 15  2  0
 15 16  1  0
 16 17  1  0
 17 18  2  0
 18 19  1  0
 19 20  2  0
 20 21  1  0
 21 22  2  0
 20 23  1  0
 23 24  2  0
 24 25  1  0
 25 26  2  0
 26 27  1  0
 27 28  2  0
 28 29  1  0
 15 30  1  0
 30 31  2  0
 31 32  1  0
 31 33  1  0
 33 34  2  0
  9  4  1  0
 34 11  1  0
 34 14  1  0
 22 17  1  0
 28 23  1  0
  1 35  1  0
  4 36  1  6
  6 37  1  6
  7 38  1  1
  8 39  1  0
  9 40  1  1
 10 41  1  0
 12 42  1  0
 16 43  1  0
 18 44  1  0
 19 45  1  0
 21 46  1  0
 22 47  1  0
 24 48  1  0
 25 49  1  0
 26 50  1  0
 27 51  1  0
M  END
$$$$
[H]c1nc2c([H])c(OC([H])([H])C([H])([H])C([H])([H])N3C([H])([H])C([H])([H])OC([H])([H])C3([H])[H])c(OC([H])([H])[H])c([H])c2c(Oc2c([H])c([H])c(N([H])C(=O)c3c([H])n(C([H])([H])[H])c(=O)n(C([H])([H])[H])c3=O)c([H])c2F)c1[H]
     RDKit          3D

 75 79  0  0  0  0  0  0  0  0999 V2000
   -2.7754    3.0945    2.2291 C   0  0  0  0  0  0  0  0  0  0  0  0
   -3.7086    2.1591    1.7465 O   0  0  0  0  0  0  0  0  0  0  0  0
   -3.2624    1.0347    1.0774 C   0  0  0  0  0  0  0  0  0  0  0  0
   -1.9047    0.8388    0.8864 C   0  0  0  0  0  0  0  0  0  0  0  0
   -1.4247   -0.2671    0.2257 C   0  0  0  0  0  0  0  0  0  0  0  0
   -0.0527   -0.4612    0.0355 C   0  0  0  0  0  0  0  0  0  0  0  0
    0.7665    0.5223    0.5478 O   0  0  0  0  0  0  0  0  0  0  0  0
    2.1460    0.5645    0.4380 C   0  0  0  0  0  0  0  0  0  0  0  0
    2.9725    0.5001    1.5369 C   0  0  0  0  0  0  0  0  0  0  0  0
    4.3676    0.5449    1.3928 C   0  0  0  0  0  0  0  0  0  0  0  0
    4.9837    0.6524    0.1767 C   0  0  0  0  0  0  0  0  0  0  0  0
    6.3815    0.6626   -0.0624 N   0  0  0  0  0  0  0  0  0  0  0  0
    7.3630    0.1823    0.7871 C   0  0  0  0  0  0  0  0  0  0  0  0
    7.0374   -0.3394    1.8983 O   0  0  0  0  0  0  0  0  0  0  0  0
    8.7859    0.2163    0.5166 C   0  0  0  0  0  0  0  0  0  0  0  0
    9.6495   -0.6171    1.2703 C   0  0  0  0  0  0  0  0  0  0  0  0
   10.9542   -0.6690    1.0729 N   0  0  0  0  0  0  0  0  0  0  0  0
   11.8307   -1.5407    1.8636 C   0  0  0  0  0  0  0  0  0  0  0  0
   11.5132    0.0961    0.1168 C   0  0  0  0  0  0  0  0  0  0  0  0
   12.7451    0.0701   -0.0955 O   0  0  0  0  0  0  0  0  0  0  0  0
   10.7344    0.8951   -0.6144 N   0  0  0  0  0  0  0  0  0  0  0  0
   11.3693    1.7199   -1.6535 C   0  0  0  0  0  0  0  0  0  0  0  0
    9.3954    0.9649   -0.4296 C   0  0  0  0  0  0  0  0  0  0  0  0
    8.7870    1.7558   -1.1816 O   0  0  0  0  0  0  0  0  0  0  0  0
    4.1152    0.7173   -0.9217 C   0  0  0  0  0  0  0  0  0  0  0  0
    2.7447    0.6755   -0.7982 C   0  0  0  0  0  0  0  0  0  0  0  0
    1.9593    0.7658   -1.9113 F   0  0  0  0  0  0  0  0  0  0  0  0
    0.3376   -1.5794   -0.6253 C   0  0  0  0  0  0  0  0  0  0  0  0
   -0.6108   -2.4739   -1.0819 C   0  0  0  0  0  0  0  0  0  0  0  0
   -1.9270   -2.2800   -0.8951 N   0  0  0  0  0  0  0  0  0  0  0  0
   -2.3493   -1.1746   -0.2391 C   0  0  0  0  0  0  0  0  0  0  0  0
   -3.7218   -0.9715   -0.0422 C   0  0  0  0  0  0  0  0  0  0  0  0
   -4.1935    0.1199    0.6082 C   0  0  0  0  0  0  0  0  0  0  0  0
   -5.5032    0.3691    0.8207 O   0  0  0  0  0  0  0  0  0  0  0  0
   -6.5549   -0.4085    0.3691 C   0  0  0  0  0  0  0  0  0  0  0  0
   -6.7048   -0.4447   -1.1140 C   0  0  0  0  0  0  0  0  0  0  0  0
   -7.8452   -1.3496   -1.5522 C   0  0  0  0  0  0  0  0  0  0  0  0
   -9.0760   -0.9281   -1.0357 N   0  0  0  0  0  0  0  0  0  0  0  0
   -9.6712    0.2591   -1.4840 C   0  0  0  0  0  0  0  0  0  0  0  0
  -10.2816    0.9765   -0.2862 C   0  0  0  0  0  0  0  0  0  0  0  0
  -10.4612    0.1477    0.8044 O   0  0  0  0  0  0  0  0  0  0  0  0
  -10.9151   -1.1158    0.5039 C   0  0  0  0  0  0  0  0  0  0  0  0
   -9.8490   -1.8454   -0.3022 C   0  0  0  0  0  0  0  0  0  0  0  0
   -2.1703    3.5705    1.4079 H   0  0  0  0  0  0  0  0  0  0  0  0
   -3.2719    3.8838    2.8277 H   0  0  0  0  0  0  0  0  0  0  0  0
   -2.0219    2.6232    2.9011 H   0  0  0  0  0  0  0  0  0  0  0  0
   -1.1988    1.5657    1.2610 H   0  0  0  0  0  0  0  0  0  0  0  0
    2.5565    0.4143    2.5322 H   0  0  0  0  0  0  0  0  0  0  0  0
    4.9732    0.5083    2.2919 H   0  0  0  0  0  0  0  0  0  0  0  0
    6.6598    1.0772   -0.9900 H   0  0  0  0  0  0  0  0  0  0  0  0
    9.2109   -1.2354    2.0395 H   0  0  0  0  0  0  0  0  0  0  0  0
   11.6388   -2.6182    1.6358 H   0  0  0  0  0  0  0  0  0  0  0  0
   11.6387   -1.4138    2.9598 H   0  0  0  0  0  0  0  0  0  0  0  0
   12.8936   -1.3106    1.6448 H   0  0  0  0  0  0  0  0  0  0  0  0
   10.7251    2.5558   -1.9369 H   0  0  0  0  0  0  0  0  0  0  0  0
   11.6031    1.0658   -2.5256 H   0  0  0  0  0  0  0  0  0  0  0  0
   12.2872    2.1208   -1.1862 H   0  0  0  0  0  0  0  0  0  0  0  0
    4.5730    0.8045   -1.9139 H   0  0  0  0  0  0  0  0  0  0  0  0
    1.3783   -1.7942   -0.7940 H   0  0  0  0  0  0  0  0  0  0  0  0
   -0.3055   -3.3813   -1.6182 H   0  0  0  0  0  0  0  0  0  0  0  0
   -4.3935   -1.7299   -0.4003 H   0  0  0  0  0  0  0  0  0  0  0  0
   -7.4806   -0.0417    0.8811 H   0  0  0  0  0  0  0  0  0  0  0  0
   -6.4822   -1.4827    0.7135 H   0  0  0  0  0  0  0  0  0  0  0  0
   -6.9914    0.6175   -1.4445 H   0  0  0  0  0  0  0  0  0  0  0  0
   -5.8198   -0.6614   -1.7055 H   0  0  0  0  0  0  0  0  0  0  0  0
   -7.5759   -2.3937   -1.2315 H   0  0  0  0  0  0  0  0  0  0  0  0
   -7.8742   -1.2813   -2.6684 H   0  0  0  0  0  0  0  0  0  0  0  0
  -10.4866    0.0810   -2.2417 H   0  0  0  0  0  0  0  0  0  0  0  0
   -8.9239    0.9532   -1.9156 H   0  0  0  0  0  0  0  0  0  0  0  0
   -9.5917    1.8042    0.0546 H   0  0  0  0  0  0  0  0  0  0  0  0
  -11.2152    1.4467   -0.6237 H   0  0  0  0  0  0  0  0  0  0  0  0
  -11.8718   -1.1081   -0.0710 H   0  0  0  0  0  0  0  0  0  0  0  0
  -11.1019   -1.6471    1.4443 H   0  0  0  0  0  0  0  0  0  0  0  0
  -10.2968   -2.6324   -0.9486 H   0  0  0  0  0  0  0  0  0  0  0  0
   -9.2108   -2.4000    0.4458 H   0  0  0  0  0  0  0  0  0  0  0  0
  1  2  1  0
  2  3  1  0
  3  4  2  0
  4  5  1  0
  5  6  2  0
  6  7  1  0
  7  8  1  0
  8  9  2  0
  9 10  1  0
 10 11  2  0
 11 12  1  0
 12 13  1  0
 13 14  2  0
 13 15  1  0
 15 16  2  0
 16 17  1  0
 17 18  1  0
 17 19  1  0
 19 20  2  0
 19 21  1  0
 21 22  1  0
 21 23  1  0
 23 24  2  0
 11 25  1  0
 25 26  2  0
 26 27  1  0
  6 28  1  0
 28 29  2  0
 29 30  1  0
 30 31  2  0
 31 32  1  0
 32 33  2  0
 33 34  1  0
 34 35  1  0
 35 36  1  0
 36 37  1  0
 37 38  1  0
 38 39  1  0
 39 40  1  0
 40 41  1  0
 41 42  1  0
 42 43  1  0
 33  3  1  0
 43 38  1  0
 31  5  1  0
 26  8  1  0
 23 15  1  0
  1 44  1  0
  1 45  1  0
  1 46  1  0
  4 47  1  0
  9 48  1  0
 10 49  1  0
 12 50  1  0
 16 51  1  0
 18 52  1  0
 18 53  1  0
 18 54  1  0
 22 55  1  0
 22 56  1  0
 22 57  1  0
 25 58  1  0
 28 59  1  0
 29 60  1  0
 32 61  1  0
 35 62  1  0
 35 63  1  0
 36 64  1  0
 36 65  1  0
 37 66  1  0
 37 67  1  0
 39 68  1  0
 39 69  1  0
 40 70  1  0
 40 71  1  0
 42 72  1  0
 42 73  1  0
 43 74  1  0
 43 75  1  0
M  END
$$$$
[H]c1c([H])c([H])c(C([H])([H])[C@@]([H])(C(=O)N([H])C([H])([H])[H])N([H])C(=O)[C@@]([H])(N([H])C(=O)[C@@]([H])(N([H])C(=O)[C@@]([H])(N([H])C(=O)[C@@]([H])(N([H])C(=O)[C@@]([H])(N([H])C(=O)[C@]([H])(N([H])C(=O)[C@@]([H])(N([H])C(=O)[C@]([H])(N([H])C([H])([H])[H])C([H])([H])C([H])(C([H])([H])[H])C([H])([H])[H])C([H])([H])C([H])(C([H])([H])[H])C([H])([H])[H])C([H])([H])C([H])(C([H])([H])[H])C([H])([H])[H])C([H])([H])C([H])(C([H])([H])[H])C([H])([H])[H])C([H])([H])C([H])(C([H])([H])[H])C([H])([H])[H])C([H])([H])C([H])(C([H])([H])[H])C([H])([H])[H])C([H])([H])C([H])(C([H])([H])[H])C([H])([H])[H])C([H])([H])c2c([H])c([H])c([H])c([H])c2[H])c([H])c1[H]
     RDKit          3D

183184  0  0  0  0  0  0  0  0999 V2000
   16.7706    0.2440    0.7375 C   0  0  0  0  0  0  0  0  0  0  0  0
   15.4950    0.5018    1.1114 N   0  0  0  0  0  0  0  0  0  0  0  0
   14.1968    0.7628    1.4947 C   0  0  0  0  0  0  0  0  0  0  0  0
   13.6417    0.3944    2.5453 O   0  0  0  0  0  0  0  0  0  0  0  0
   13.2788    1.5835    0.5379 C   0  0  2  0  0  0  0  0  0  0  0  0
   13.1104    2.9240    1.1771 C   0  0  0  0  0  0  0  0  0  0  0  0
   12.4037    3.9496    0.3875 C   0  0  0  0  0  0  0  0  0  0  0  0
   11.1071    4.2956    0.5105 C   0  0  0  0  0  0  0  0  0  0  0  0
   10.5706    5.2775   -0.3285 C   0  0  0  0  0  0  0  0  0  0  0  0
   11.3563    5.8855   -1.2710 C   0  0  0  0  0  0  0  0  0  0  0  0
   12.6861    5.5266   -1.3914 C   0  0  0  0  0  0  0  0  0  0  0  0
   13.2210    4.5836   -0.5945 C   0  0  0  0  0  0  0  0  0  0  0  0
   12.0672    0.8294    0.4752 N   0  0  0  0  0  0  0  0  0  0  0  0
   10.9203    0.6565   -0.2486 C   0  0  0  0  0  0  0  0  0  0  0  0
   10.5803    1.2854   -1.2328 O   0  0  0  0  0  0  0  0  0  0  0  0
   10.0319   -0.4551    0.2780 C   0  0  2  0  0  0  0  0  0  0  0  0
   10.9806   -1.6552    0.3383 C   0  0  0  0  0  0  0  0  0  0  0  0
   10.3578   -2.9274    0.7457 C   0  0  0  0  0  0  0  0  0  0  0  0
    9.9380   -3.8417   -0.2262 C   0  0  0  0  0  0  0  0  0  0  0  0
    9.3074   -4.9941    0.1743 C   0  0  0  0  0  0  0  0  0  0  0  0
    9.0860   -5.2629    1.4853 C   0  0  0  0  0  0  0  0  0  0  0  0
    9.5029   -4.3567    2.4865 C   0  0  0  0  0  0  0  0  0  0  0  0
   10.1312   -3.2093    2.0670 C   0  0  0  0  0  0  0  0  0  0  0  0
    8.7491   -0.6974   -0.0317 N   0  0  0  0  0  0  0  0  0  0  0  0
    7.6269   -0.2244   -0.7788 C   0  0  0  0  0  0  0  0  0  0  0  0
    7.7163    0.7912   -1.5176 O   0  0  0  0  0  0  0  0  0  0  0  0
    6.3273   -0.9273   -0.6845 C   0  0  2  0  0  0  0  0  0  0  0  0
    6.4978   -2.3979   -0.8402 C   0  0  0  0  0  0  0  0  0  0  0  0
    5.1682   -3.1590   -0.7241 C   0  0  0  0  0  0  0  0  0  0  0  0
    5.4864   -4.6525   -0.9315 C   0  0  0  0  0  0  0  0  0  0  0  0
    4.6787   -3.0719    0.7103 C   0  0  0  0  0  0  0  0  0  0  0  0
    5.2306   -0.4710   -1.4925 N   0  0  0  0  0  0  0  0  0  0  0  0
    4.1233    0.2264   -0.9620 C   0  0  0  0  0  0  0  0  0  0  0  0
    4.2486    0.4713    0.3345 O   0  0  0  0  0  0  0  0  0  0  0  0
    2.8925    0.6977   -1.5179 C   0  0  2  0  0  0  0  0  0  0  0  0
    2.7296    1.8725   -2.3573 C   0  0  0  0  0  0  0  0  0  0  0  0
    3.3749    1.9981   -3.6710 C   0  0  0  0  0  0  0  0  0  0  0  0
    4.8497    2.0425   -3.7134 C   0  0  0  0  0  0  0  0  0  0  0  0
    2.9543    0.8489   -4.6116 C   0  0  0  0  0  0  0  0  0  0  0  0
    1.9289    0.7710   -0.3688 N   0  0  0  0  0  0  0  0  0  0  0  0
    0.5960    0.3417   -0.4412 C   0  0  0  0  0  0  0  0  0  0  0  0
    0.1562   -0.0686   -1.5574 O   0  0  0  0  0  0  0  0  0  0  0  0
   -0.2729    0.3616    0.7575 C   0  0  2  0  0  0  0  0  0  0  0  0
   -0.3716   -1.1462    1.2212 C   0  0  0  0  0  0  0  0  0  0  0  0
    1.0246   -1.6161    1.5617 C   0  0  0  0  0  0  0  0  0  0  0  0
    0.9902   -3.0954    1.9751 C   0  0  0  0  0  0  0  0  0  0  0  0
    1.5940   -0.8949    2.7437 C   0  0  0  0  0  0  0  0  0  0  0  0
   -1.5847    0.8708    0.6084 N   0  0  0  0  0  0  0  0  0  0  0  0
   -2.8338    0.2521    0.7673 C   0  0  0  0  0  0  0  0  0  0  0  0
   -2.9518   -0.9493    1.0594 O   0  0  0  0  0  0  0  0  0  0  0  0
   -4.1119    1.0287    0.5836 C   0  0  2  0  0  0  0  0  0  0  0  0
   -4.5973    1.6576    1.7898 C   0  0  0  0  0  0  0  0  0  0  0  0
   -4.9616    0.9877    3.0341 C   0  0  0  0  0  0  0  0  0  0  0  0
   -3.9634    0.2189    3.7953 C   0  0  0  0  0  0  0  0  0  0  0  0
   -6.2494    0.1354    2.8590 C   0  0  0  0  0  0  0  0  0  0  0  0
   -4.9937    0.2562   -0.2420 N   0  0  0  0  0  0  0  0  0  0  0  0
   -6.0240    0.8292   -0.9920 C   0  0  0  0  0  0  0  0  0  0  0  0
   -6.1567    2.1504   -0.8071 O   0  0  0  0  0  0  0  0  0  0  0  0
   -6.9847    0.3387   -1.9498 C   0  0  1  0  0  0  0  0  0  0  0  0
   -7.0533   -1.0510   -2.3984 C   0  0  0  0  0  0  0  0  0  0  0  0
   -7.4770   -2.1750   -1.6079 C   0  0  0  0  0  0  0  0  0  0  0  0
   -6.8646   -2.5987   -0.3413 C   0  0  0  0  0  0  0  0  0  0  0  0
   -7.3216   -3.4379   -2.5445 C   0  0  0  0  0  0  0  0  0  0  0  0
   -8.3536    0.8379   -1.7809 N   0  0  0  0  0  0  0  0  0  0  0  0
   -9.0321    1.4802   -0.7926 C   0  0  0  0  0  0  0  0  0  0  0  0
   -8.6494    1.8564    0.3260 O   0  0  0  0  0  0  0  0  0  0  0  0
  -10.5451    1.7924   -1.0718 C   0  0  2  0  0  0  0  0  0  0  0  0
  -10.6079    3.2345   -1.3704 C   0  0  0  0  0  0  0  0  0  0  0  0
  -11.9698    3.7756   -1.6638 C   0  0  0  0  0  0  0  0  0  0  0  0
  -12.5919    3.1203   -2.8714 C   0  0  0  0  0  0  0  0  0  0  0  0
  -11.9067    5.2722   -1.9360 C   0  0  0  0  0  0  0  0  0  0  0  0
  -11.3191    1.4206    0.0694 N   0  0  0  0  0  0  0  0  0  0  0  0
  -11.1553    0.1747    0.7378 C   0  0  0  0  0  0  0  0  0  0  0  0
  -10.2133   -0.5766    0.3055 O   0  0  0  0  0  0  0  0  0  0  0  0
  -11.9474   -0.3255    1.8522 C   0  0  1  0  0  0  0  0  0  0  0  0
  -12.6310   -1.6561    1.4469 C   0  0  0  0  0  0  0  0  0  0  0  0
  -13.4897   -1.4907    0.2404 C   0  0  0  0  0  0  0  0  0  0  0  0
  -14.5874   -0.4739    0.4434 C   0  0  0  0  0  0  0  0  0  0  0  0
  -14.0974   -2.8235   -0.1366 C   0  0  0  0  0  0  0  0  0  0  0  0
  -11.0205   -0.7957    2.9130 N   0  0  0  0  0  0  0  0  0  0  0  0
  -10.2843    0.3606    3.4293 C   0  0  0  0  0  0  0  0  0  0  0  0
   17.5647    0.7572    1.4012 H   0  0  0  0  0  0  0  0  0  0  0  0
   17.0950   -0.8059    0.6813 H   0  0  0  0  0  0  0  0  0  0  0  0
   16.9900    0.6434   -0.3090 H   0  0  0  0  0  0  0  0  0  0  0  0
   15.6740   -0.1938    2.2809 H   0  0  0  0  0  0  0  0  0  0  0  0
   13.7821    1.7188   -0.4073 H   0  0  0  0  0  0  0  0  0  0  0  0
   12.5849    2.7867    2.1608 H   0  0  0  0  0  0  0  0  0  0  0  0
   14.1650    3.2920    1.4149 H   0  0  0  0  0  0  0  0  0  0  0  0
   10.4721    3.8434    1.2410 H   0  0  0  0  0  0  0  0  0  0  0  0
    9.5311    5.5113   -0.1837 H   0  0  0  0  0  0  0  0  0  0  0  0
   10.9205    6.6277   -1.9178 H   0  0  0  0  0  0  0  0  0  0  0  0
   13.3074    6.0298   -2.1615 H   0  0  0  0  0  0  0  0  0  0  0  0
   14.2728    4.2823   -0.6670 H   0  0  0  0  0  0  0  0  0  0  0  0
   12.0817    0.1774    1.4397 H   0  0  0  0  0  0  0  0  0  0  0  0
    9.9907   -0.0264    1.4091 H   0  0  0  0  0  0  0  0  0  0  0  0
   11.7711   -1.5030    1.1512 H   0  0  0  0  0  0  0  0  0  0  0  0
   11.5841   -1.7030   -0.5746 H   0  0  0  0  0  0  0  0  0  0  0  0
   10.1255   -3.6216   -1.2591 H   0  0  0  0  0  0  0  0  0  0  0  0
    8.9784   -5.6725   -0.6232 H   0  0  0  0  0  0  0  0  0  0  0  0
    8.5799   -6.1459    1.8459 H   0  0  0  0  0  0  0  0  0  0  0  0
    9.3304   -4.5592    3.5300 H   0  0  0  0  0  0  0  0  0  0  0  0
   10.4541   -2.5271    2.8474 H   0  0  0  0  0  0  0  0  0  0  0  0
    8.3996   -1.6347    0.5090 H   0  0  0  0  0  0  0  0  0  0  0  0
    6.0269   -0.7127    0.4188 H   0  0  0  0  0  0  0  0  0  0  0  0
    6.9087   -2.6767   -1.8050 H   0  0  0  0  0  0  0  0  0  0  0  0
    7.1114   -2.8533   -0.0337 H   0  0  0  0  0  0  0  0  0  0  0  0
    4.4089   -2.8757   -1.4216 H   0  0  0  0  0  0  0  0  0  0  0  0
    6.2477   -4.8102   -1.7202 H   0  0  0  0  0  0  0  0  0  0  0  0
    4.5889   -5.2246   -1.2155 H   0  0  0  0  0  0  0  0  0  0  0  0
    5.7960   -5.1160    0.0563 H   0  0  0  0  0  0  0  0  0  0  0  0
    5.5579   -2.8300    1.3890 H   0  0  0  0  0  0  0  0  0  0  0  0
    4.3402   -4.0657    1.0369 H   0  0  0  0  0  0  0  0  0  0  0  0
    3.9037   -2.3293    0.8419 H   0  0  0  0  0  0  0  0  0  0  0  0
    5.2510   -0.6972   -2.5201 H   0  0  0  0  0  0  0  0  0  0  0  0
    2.4130   -0.2217   -2.0695 H   0  0  0  0  0  0  0  0  0  0  0  0
    3.0124    2.7852   -1.7194 H   0  0  0  0  0  0  0  0  0  0  0  0
    1.6088    2.1003   -2.5339 H   0  0  0  0  0  0  0  0  0  0  0  0
    2.9768    2.9178   -4.2128 H   0  0  0  0  0  0  0  0  0  0  0  0
    5.2060    2.8001   -4.4674 H   0  0  0  0  0  0  0  0  0  0  0  0
    5.2763    2.3267   -2.7378 H   0  0  0  0  0  0  0  0  0  0  0  0
    5.2762    1.0546   -4.0716 H   0  0  0  0  0  0  0  0  0  0  0  0
    1.9550    0.4860   -4.4194 H   0  0  0  0  0  0  0  0  0  0  0  0
    3.7301    0.0478   -4.5533 H   0  0  0  0  0  0  0  0  0  0  0  0
    3.0207    1.2531   -5.6354 H   0  0  0  0  0  0  0  0  0  0  0  0
    2.2801    1.1868    0.5102 H   0  0  0  0  0  0  0  0  0  0  0  0
    0.2389    0.8670    1.5971 H   0  0  0  0  0  0  0  0  0  0  0  0
   -0.9235   -1.1637    2.1661 H   0  0  0  0  0  0  0  0  0  0  0  0
   -0.8418   -1.7480    0.4640 H   0  0  0  0  0  0  0  0  0  0  0  0
    1.6849   -1.5578    0.6780 H   0  0  0  0  0  0  0  0  0  0  0  0
    0.0837   -3.3013    2.5443 H   0  0  0  0  0  0  0  0  0  0  0  0
    1.1006   -3.7007    1.0414 H   0  0  0  0  0  0  0  0  0  0  0  0
    1.8813   -3.2272    2.6329 H   0  0  0  0  0  0  0  0  0  0  0  0
    0.7846   -0.6987    3.5077 H   0  0  0  0  0  0  0  0  0  0  0  0
    2.3612   -1.5926    3.2206 H   0  0  0  0  0  0  0  0  0  0  0  0
    2.1594    0.0069    2.5183 H   0  0  0  0  0  0  0  0  0  0  0  0
   -1.6000    1.9241    0.3132 H   0  0  0  0  0  0  0  0  0  0  0  0
   -3.8071    1.9174   -0.0865 H   0  0  0  0  0  0  0  0  0  0  0  0
   -5.4531    2.3706    1.5611 H   0  0  0  0  0  0  0  0  0  0  0  0
   -3.7802    2.4215    2.1001 H   0  0  0  0  0  0  0  0  0  0  0  0
   -5.3283    1.8090    3.7211 H   0  0  0  0  0  0  0  0  0  0  0  0
   -2.8822    0.4050    3.5229 H   0  0  0  0  0  0  0  0  0  0  0  0
   -3.9820    0.5643    4.8799 H   0  0  0  0  0  0  0  0  0  0  0  0
   -4.0805   -0.8985    3.7594 H   0  0  0  0  0  0  0  0  0  0  0  0
   -6.0328   -0.8367    2.3855 H   0  0  0  0  0  0  0  0  0  0  0  0
   -6.8497    0.7294    2.1369 H   0  0  0  0  0  0  0  0  0  0  0  0
   -6.7329    0.0937    3.8323 H   0  0  0  0  0  0  0  0  0  0  0  0
   -4.8104   -0.7458   -0.2840 H   0  0  0  0  0  0  0  0  0  0  0  0
   -6.6783    0.9659   -2.9057 H   0  0  0  0  0  0  0  0  0  0  0  0
   -7.7336   -1.0633   -3.3528 H   0  0  0  0  0  0  0  0  0  0  0  0
   -6.0551   -1.3458   -2.9043 H   0  0  0  0  0  0  0  0  0  0  0  0
   -8.6174   -2.2003   -1.4641 H   0  0  0  0  0  0  0  0  0  0  0  0
   -7.0269   -1.8594    0.4929 H   0  0  0  0  0  0  0  0  0  0  0  0
   -5.8281   -2.9222   -0.4446 H   0  0  0  0  0  0  0  0  0  0  0  0
   -7.4101   -3.5184    0.0730 H   0  0  0  0  0  0  0  0  0  0  0  0
   -7.7849   -3.1838   -3.5048 H   0  0  0  0  0  0  0  0  0  0  0  0
   -6.2507   -3.6160   -2.6322 H   0  0  0  0  0  0  0  0  0  0  0  0
   -7.7989   -4.2993   -2.0528 H   0  0  0  0  0  0  0  0  0  0  0  0
   -8.9308    0.6208   -2.6913 H   0  0  0  0  0  0  0  0  0  0  0  0
  -10.7182    1.1034   -1.9032 H   0  0  0  0  0  0  0  0  0  0  0  0
   -9.8810    3.4845   -2.1880 H   0  0  0  0  0  0  0  0  0  0  0  0
  -10.2244    3.8090   -0.4649 H   0  0  0  0  0  0  0  0  0  0  0  0
  -12.6629    3.6410   -0.7967 H   0  0  0  0  0  0  0  0  0  0  0  0
  -12.1627    3.5826   -3.7976 H   0  0  0  0  0  0  0  0  0  0  0  0
  -12.4053    2.0407   -2.8501 H   0  0  0  0  0  0  0  0  0  0  0  0
  -13.6855    3.3723   -2.9325 H   0  0  0  0  0  0  0  0  0  0  0  0
  -11.0330    5.7396   -1.4744 H   0  0  0  0  0  0  0  0  0  0  0  0
  -12.8179    5.7388   -1.5640 H   0  0  0  0  0  0  0  0  0  0  0  0
  -11.8920    5.4034   -3.0477 H   0  0  0  0  0  0  0  0  0  0  0  0
  -12.0487    2.1028    0.4324 H   0  0  0  0  0  0  0  0  0  0  0  0
  -12.6811    0.3435    2.2775 H   0  0  0  0  0  0  0  0  0  0  0  0
  -13.2203   -2.0354    2.3157 H   0  0  0  0  0  0  0  0  0  0  0  0
  -11.8332   -2.3902    1.2516 H   0  0  0  0  0  0  0  0  0  0  0  0
  -12.8480   -1.1357   -0.6157 H   0  0  0  0  0  0  0  0  0  0  0  0
  -15.0695   -0.5202    1.4133 H   0  0  0  0  0  0  0  0  0  0  0  0
  -15.3767   -0.6204   -0.3522 H   0  0  0  0  0  0  0  0  0  0  0  0
  -14.1318    0.5538    0.3209 H   0  0  0  0  0  0  0  0  0  0  0  0
  -15.1542   -2.7317   -0.4519 H   0  0  0  0  0  0  0  0  0  0  0  0
  -14.0164   -3.5549    0.6955 H   0  0  0  0  0  0  0  0  0  0  0  0
  -13.5432   -3.2268   -1.0117 H   0  0  0  0  0  0  0  0  0  0  0  0
  -10.3195   -1.3763    2.3593 H   0  0  0  0  0  0  0  0  0  0  0  0
  -10.8744    0.7818    4.2881 H   0  0  0  0  0  0  0  0  0  0  0  0
   -9.2991    0.0546    3.7851 H   0  0  0  0  0  0  0  0  0  0  0  0
  -10.2381    1.1059    2.6037 H   0  0  0  0  0  0  0  0  0  0  0  0
  1  2  1  0
  2  3  1  0
  3  4  2  0
  3  5  1  0
  5  6  1  0
  6  7  1  0
  7  8  2  0
  8  9  1  0
  9 10  2  0
 10 11  1  0
 11 12  2  0
  5 13  1  0
 13 14  1  0
 14 15  2  0
 14 16  1  0
 16 17  1  0
 17 18  1  0
 18 19  2  0
 19 20  1  0
 20 21  2  0
 21 22  1  0
 22 23  2  0
 16 24  1  0
 24 25  1  0
 25 26  2  0
 25 27  1  0
 27 28  1  0
 28 29  1  0
 29 30  1  0
 29 31  1  0
 27 32  1  0
 32 33  1  0
 33 34  2  0
 33 35  1  0
 35 36  1  0
 36 37  1  0
 37 38  1  0
 37 39  1  0
 35 40  1  0
 40 41  1  0
 41 42  2  0
 41 43  1  0
 43 44  1  0
 44 45  1  0
 45 46  1  0
 45 47  1  0
 43 48  1  0
 48 49  1  0
 49 50  2  0
 49 51  1  0
 51 52  1  0
 52 53  1  0
 53 54  1  0
 53 55  1  0
 51 56  1  0
 56 57  1  0
 57 58  2  0
 57 59  1  0
 59 60  1  0
 60 61  1  0
 61 62  1  0
 61 63  1  0
 59 64  1  0
 64 65  1  0
 65 66  2  0
 65 67  1  0
 67 68  1  0
 68 69  1  0
 69 70  1  0
 69 71  1  0
 67 72  1  0
 72 73  1  0
 73 74  2  0
 73 75  1  0
 75 76  1  0
 76 77  1  0
 77 78  1  0
 77 79  1  0
 75 80  1  0
 80 81  1  0
 12  7  1  0
 23 18  1  0
  1 82  1  0
  1 83  1  0
  1 84  1  0
  2 85  1  0
  5 86  1  6
  6 87  1  0
  6 88  1  0
  8 89  1  0
  9 90  1  0
 10 91  1  0
 11 92  1  0
 12 93  1  0
 13 94  1  0
 16 95  1  1
 17 96  1  0
 17 97  1  0
 19 98  1  0
 20 99  1  0
 21100  1  0
 22101  1  0
 23102  1  0
 24103  1  0
 27104  1  1
 28105  1  0
 28106  1  0
 29107  1  0
 30108  1  0
 30109  1  0
 30110  1  0
 31111  1  0
 31112  1  0
 31113  1  0
 32114  1  0
 35115  1  6
 36116  1  0
 36117  1  0
 37118  1  0
 38119  1  0
 38120  1  0
 38121  1  0
 39122  1  0
 39123  1  0
 39124  1  0
 40125  1  0
 43126  1  1
 44127  1  0
 44128  1  0
 45129  1  0
 46130  1  0
 46131  1  0
 46132  1  0
 47133  1  0
 47134  1  0
 47135  1  0
 48136  1  0
 51137  1  6
 52138  1  0
 52139  1  0
 53140  1  0
 54141  1  0
 54142  1  0
 54143  1  0
 55144  1  0
 55145  1  0
 55146  1  0
 56147  1  0
 59148  1  6
 60149  1  0
 60150  1  0
 61151  1  0
 62152  1  0
 62153  1  0
 62154  1  0
 63155  1  0
 63156  1  0
 63157  1  0
 64158  1  0
 67159  1  6
 68160  1  0
 68161  1  0
 69162  1  0
 70163  1  0
 70164  1  0
 70165  1  0
 71166  1  0
 71167  1  0
 71168  1  0
 72169  1  0
 75170  1  1
 76171  1  0
 76172  1  0
 77173  1  0
 78174  1  0
 78175  1  0
 78176  1  0
 79177  1  0
 79178  1  0
 79179  1  0
 80180  1  0
 81181  1  0
 81182  1  0
 81183  1  0
M  END
$$$$
[H]Oc1c([H])c([H])c2c(c1[H])C([H])([H])C([H])([H])[C@]1([H])[C@]2([H])C([H])([H])C([H])([H])[C@]2(C([H])([H])[H])C(C([H])([H])[H])(C([H])([H])[H])C([H])([H])C([H])([H])[C@]21[H]
     RDKit          3D

 49 52  0  0  0  0  0  0  0  0999 V2000
   -1.6251    0.8609   -1.4894 C   0  0  0  0  0  0  0  0  0  0  0  0
   -1.7269    0.2772   -0.1215 C   0  0  2  0  0  0  0  0  0  0  0  0
   -1.2444    1.2177    0.9340 C   0  0  0  0  0  0  0  0  0  0  0  0
    0.2218    1.5201    0.7168 C   0  0  0  0  0  0  0  0  0  0  0  0
    1.0641    0.2940    0.5755 C   0  0  1  0  0  0  0  0  0  0  0  0
    0.4655   -0.6743   -0.4616 C   0  0  1  0  0  0  0  0  0  0  0  0
    1.3573   -1.8378   -0.6952 C   0  0  0  0  0  0  0  0  0  0  0  0
    2.6926   -1.7735   -0.0098 C   0  0  0  0  0  0  0  0  0  0  0  0
    3.2969   -0.4183   -0.0797 C   0  0  0  0  0  0  0  0  0  0  0  0
    4.6129   -0.1961   -0.4207 C   0  0  0  0  0  0  0  0  0  0  0  0
    5.0594    1.1101   -0.4480 C   0  0  0  0  0  0  0  0  0  0  0  0
    6.3890    1.3602   -0.7907 O   0  0  0  0  0  0  0  0  0  0  0  0
    4.2217    2.1616   -0.1453 C   0  0  0  0  0  0  0  0  0  0  0  0
    2.8932    1.9492    0.1997 C   0  0  0  0  0  0  0  0  0  0  0  0
    2.4449    0.6432    0.2275 C   0  0  0  0  0  0  0  0  0  0  0  0
   -0.8806   -0.9798    0.0493 C   0  0  2  0  0  0  0  0  0  0  0  0
   -1.6912   -1.9974   -0.6294 C   0  0  0  0  0  0  0  0  0  0  0  0
   -3.0345   -1.7724    0.0878 C   0  0  0  0  0  0  0  0  0  0  0  0
   -3.1053   -0.2585    0.0975 C   0  0  0  0  0  0  0  0  0  0  0  0
   -3.7189    0.2617    1.3789 C   0  0  0  0  0  0  0  0  0  0  0  0
   -4.0763    0.0999   -1.0192 C   0  0  0  0  0  0  0  0  0  0  0  0
   -2.5268    1.5024   -1.6987 H   0  0  0  0  0  0  0  0  0  0  0  0
   -0.7640    1.5370   -1.6492 H   0  0  0  0  0  0  0  0  0  0  0  0
   -1.6098    0.1157   -2.3066 H   0  0  0  0  0  0  0  0  0  0  0  0
   -1.3171    0.7269    1.9328 H   0  0  0  0  0  0  0  0  0  0  0  0
   -1.8036    2.1526    0.8964 H   0  0  0  0  0  0  0  0  0  0  0  0
    0.3773    2.2329   -0.1183 H   0  0  0  0  0  0  0  0  0  0  0  0
    0.5671    2.0537    1.6341 H   0  0  0  0  0  0  0  0  0  0  0  0
    1.0779   -0.2747    1.5266 H   0  0  0  0  0  0  0  0  0  0  0  0
    0.4631   -0.0703   -1.4160 H   0  0  0  0  0  0  0  0  0  0  0  0
    1.5786   -1.9919   -1.7927 H   0  0  0  0  0  0  0  0  0  0  0  0
    0.8254   -2.7598   -0.3867 H   0  0  0  0  0  0  0  0  0  0  0  0
    3.3575   -2.5392   -0.4449 H   0  0  0  0  0  0  0  0  0  0  0  0
    2.5086   -2.0563    1.0676 H   0  0  0  0  0  0  0  0  0  0  0  0
    5.2333   -1.0487   -0.6502 H   0  0  0  0  0  0  0  0  0  0  0  0
    7.0584    1.3770   -0.0122 H   0  0  0  0  0  0  0  0  0  0  0  0
    4.6065    3.1888   -0.1759 H   0  0  0  0  0  0  0  0  0  0  0  0
    2.2466    2.7898    0.4366 H   0  0  0  0  0  0  0  0  0  0  0  0
   -0.8038   -1.1906    1.1449 H   0  0  0  0  0  0  0  0  0  0  0  0
   -1.3637   -3.0538   -0.4305 H   0  0  0  0  0  0  0  0  0  0  0  0
   -1.8021   -1.8171   -1.6950 H   0  0  0  0  0  0  0  0  0  0  0  0
   -2.9280   -2.1186    1.1388 H   0  0  0  0  0  0  0  0  0  0  0  0
   -3.8553   -2.2430   -0.4544 H   0  0  0  0  0  0  0  0  0  0  0  0
   -4.7770   -0.0674    1.3996 H   0  0  0  0  0  0  0  0  0  0  0  0
   -3.7134    1.3676    1.3060 H   0  0  0  0  0  0  0  0  0  0  0  0
   -3.1813   -0.0267    2.2789 H   0  0  0  0  0  0  0  0  0  0  0  0
   -4.4485    1.1198   -0.9481 H   0  0  0  0  0  0  0  0  0  0  0  0
   -3.6588   -0.1701   -2.0044 H   0  0  0  0  0  0  0  0  0  0  0  0
   -4.9630   -0.5835   -0.8766 H   0  0  0  0  0  0  0  0  0  0  0  0
  2  1  1  6
  2  3  1  0
  3  4  1  0
  4  5  1  0
  5  6  1  0
  6  7  1  0
  7  8  1  0
  8  9  1  0
  9 10  2  0
 10 11  1  0
 11 12  1  0
 11 13  2  0
 13 14  1  0
 14 15  2  0
  6 16  1  0
 16 17  1  0
 17 18  1  0
 18 19  1  0
 19 20  1  0
 19 21  1  0
 16  2  1  0
 19  2  1  0
 15  5  1  0
 15  9  1  0
  1 22  1  0
  1 23  1  0
  1 24  1  0
  3 25  1  0
  3 26  1  0
  4 27  1  0
  4 28  1  0
  5 29  1  1
  6 30  1  6
  7 31  1  0
  7 32  1  0
  8 33  1  0
  8 34  1  0
 10 35  1  0
 12 36  1  0
 13 37  1  0
 14 38  1  0
 16 39  1  1
 17 40  1  0
 17 41  1  0
 18 42  1  0
 18 43  1  0
 20 44  1  0
 20 45  1  0
 20 46  1  0
 21 47  1  0
 21 48  1  0
 21 49  1  0
M  END
$$$$
[H]N(C(=O)C(C([H])([H])[H])(C([H])([H])[H])C([H])([H])[H])[C@]([H])(C(=O)N([H])[C@]([H])(C(=O)N([H])[C@]([H])(C(=O)N1C([H])([H])C([H])([H])C([H])([H])[C@]1([H])C#N)C([H])(C([H])([H])[H])C([H])([H])[H])C([H])(C([H])([H])[H])C([H])([H])[H])C([H])([H])C([H])(C([H])([H])[H])C([H])([H])[H]
     RDKit          3D

 80 80  0  0  0  0  0  0  0  0999 V2000
   -4.4802    3.8044    0.1859 C   0  0  0  0  0  0  0  0  0  0  0  0
   -4.7416    2.3009   -0.0856 C   0  0  0  0  0  0  0  0  0  0  0  0
   -5.4427    1.8363    1.1836 C   0  0  0  0  0  0  0  0  0  0  0  0
   -3.3792    1.7017   -0.2631 C   0  0  0  0  0  0  0  0  0  0  0  0
   -3.2960    0.2716   -0.5741 C   0  0  2  0  0  0  0  0  0  0  0  0
   -3.8608   -0.6113    0.3875 N   0  0  0  0  0  0  0  0  0  0  0  0
   -4.7460   -1.6602    0.0217 C   0  0  0  0  0  0  0  0  0  0  0  0
   -5.0332   -1.7972   -1.1900 O   0  0  0  0  0  0  0  0  0  0  0  0
   -5.3426   -2.5993    1.0027 C   0  0  0  0  0  0  0  0  0  0  0  0
   -6.2362   -1.8641    1.9916 C   0  0  0  0  0  0  0  0  0  0  0  0
   -4.1841   -3.2417    1.7682 C   0  0  0  0  0  0  0  0  0  0  0  0
   -6.0988   -3.6766    0.2698 C   0  0  0  0  0  0  0  0  0  0  0  0
   -1.9119   -0.1661   -0.9705 C   0  0  0  0  0  0  0  0  0  0  0  0
   -1.6543   -1.3785   -0.7576 O   0  0  0  0  0  0  0  0  0  0  0  0
   -0.9393    0.6591   -1.5330 N   0  0  0  0  0  0  0  0  0  0  0  0
    0.3836    0.0819   -1.8916 C   0  0  1  0  0  0  0  0  0  0  0  0
    0.7729    0.7600   -3.1448 C   0  0  0  0  0  0  0  0  0  0  0  0
   -0.3153    0.4594   -4.1924 C   0  0  0  0  0  0  0  0  0  0  0  0
    2.0772    0.4275   -3.7592 C   0  0  0  0  0  0  0  0  0  0  0  0
    1.3037    0.2015   -0.7464 C   0  0  0  0  0  0  0  0  0  0  0  0
    0.9024    0.7673    0.2865 O   0  0  0  0  0  0  0  0  0  0  0  0
    2.6095   -0.3091   -0.7931 N   0  0  0  0  0  0  0  0  0  0  0  0
    3.5426   -0.2270    0.3222 C   0  0  1  0  0  0  0  0  0  0  0  0
    3.9816   -1.6423    0.6050 C   0  0  0  0  0  0  0  0  0  0  0  0
    2.6957   -2.4102    0.9501 C   0  0  0  0  0  0  0  0  0  0  0  0
    4.6307   -2.2775   -0.6073 C   0  0  0  0  0  0  0  0  0  0  0  0
    4.6681    0.6947    0.0417 C   0  0  0  0  0  0  0  0  0  0  0  0
    4.7728    1.2628   -1.0758 O   0  0  0  0  0  0  0  0  0  0  0  0
    5.6700    0.9805    1.0064 N   0  0  0  0  0  0  0  0  0  0  0  0
    5.7708    0.4409    2.3688 C   0  0  0  0  0  0  0  0  0  0  0  0
    6.3616    1.5726    3.1790 C   0  0  0  0  0  0  0  0  0  0  0  0
    6.6244    2.7036    2.1734 C   0  0  0  0  0  0  0  0  0  0  0  0
    6.8182    1.8574    0.9006 C   0  0  2  0  0  0  0  0  0  0  0  0
    6.8565    2.6836   -0.2696 C   0  0  0  0  0  0  0  0  0  0  0  0
    6.9060    3.3618   -1.1945 N   0  0  0  0  0  0  0  0  0  0  0  0
   -4.2605    3.9590    1.2655 H   0  0  0  0  0  0  0  0  0  0  0  0
   -3.6230    4.1341   -0.4188 H   0  0  0  0  0  0  0  0  0  0  0  0
   -5.4031    4.3774   -0.0394 H   0  0  0  0  0  0  0  0  0  0  0  0
   -5.3986    2.2197   -0.9654 H   0  0  0  0  0  0  0  0  0  0  0  0
   -4.7520    1.5486    1.9714 H   0  0  0  0  0  0  0  0  0  0  0  0
   -6.1194    1.0138    0.9023 H   0  0  0  0  0  0  0  0  0  0  0  0
   -6.0860    2.6806    1.5723 H   0  0  0  0  0  0  0  0  0  0  0  0
   -2.8391    2.3541   -1.0069 H   0  0  0  0  0  0  0  0  0  0  0  0
   -2.8294    1.9336    0.7035 H   0  0  0  0  0  0  0  0  0  0  0  0
   -3.8950    0.0797   -1.5351 H   0  0  0  0  0  0  0  0  0  0  0  0
   -3.6272   -0.4972    1.3980 H   0  0  0  0  0  0  0  0  0  0  0  0
   -7.0384   -1.3097    1.4918 H   0  0  0  0  0  0  0  0  0  0  0  0
   -6.5994   -2.6065    2.7262 H   0  0  0  0  0  0  0  0  0  0  0  0
   -5.5207   -1.1972    2.5587 H   0  0  0  0  0  0  0  0  0  0  0  0
   -3.6913   -2.4263    2.3597 H   0  0  0  0  0  0  0  0  0  0  0  0
   -3.4959   -3.6734    1.0402 H   0  0  0  0  0  0  0  0  0  0  0  0
   -4.5835   -3.9951    2.5011 H   0  0  0  0  0  0  0  0  0  0  0  0
   -5.3318   -4.4228   -0.0576 H   0  0  0  0  0  0  0  0  0  0  0  0
   -6.9085   -4.1231    0.8892 H   0  0  0  0  0  0  0  0  0  0  0  0
   -6.4956   -3.2325   -0.6853 H   0  0  0  0  0  0  0  0  0  0  0  0
   -1.0724    1.6894   -1.7249 H   0  0  0  0  0  0  0  0  0  0  0  0
    0.1882   -1.0179   -2.0265 H   0  0  0  0  0  0  0  0  0  0  0  0
    0.7360    1.8858   -3.0590 H   0  0  0  0  0  0  0  0  0  0  0  0
   -0.2369    1.1871   -5.0440 H   0  0  0  0  0  0  0  0  0  0  0  0
   -0.2474   -0.5993   -4.5162 H   0  0  0  0  0  0  0  0  0  0  0  0
   -1.2810    0.6073   -3.6796 H   0  0  0  0  0  0  0  0  0  0  0  0
    2.9437    0.9601   -3.2942 H   0  0  0  0  0  0  0  0  0  0  0  0
    2.0490    0.8419   -4.8146 H   0  0  0  0  0  0  0  0  0  0  0  0
    2.2694   -0.6546   -3.9208 H   0  0  0  0  0  0  0  0  0  0  0  0
    2.9659   -0.7868   -1.6489 H   0  0  0  0  0  0  0  0  0  0  0  0
    3.0105    0.1571    1.2030 H   0  0  0  0  0  0  0  0  0  0  0  0
    4.6360   -1.7745    1.4601 H   0  0  0  0  0  0  0  0  0  0  0  0
    2.3044   -1.9835    1.8951 H   0  0  0  0  0  0  0  0  0  0  0  0
    2.9076   -3.4860    1.1388 H   0  0  0  0  0  0  0  0  0  0  0  0
    1.9388   -2.2844    0.1391 H   0  0  0  0  0  0  0  0  0  0  0  0
    3.9985   -3.0439   -1.1017 H   0  0  0  0  0  0  0  0  0  0  0  0
    4.9392   -1.4550   -1.2870 H   0  0  0  0  0  0  0  0  0  0  0  0
    5.5572   -2.7861   -0.2735 H   0  0  0  0  0  0  0  0  0  0  0  0
    6.4430   -0.4255    2.3309 H   0  0  0  0  0  0  0  0  0  0  0  0
    4.7784    0.2028    2.7995 H   0  0  0  0  0  0  0  0  0  0  0  0
    7.3546    1.2703    3.6179 H   0  0  0  0  0  0  0  0  0  0  0  0
    5.7058    1.9163    3.9790 H   0  0  0  0  0  0  0  0  0  0  0  0
    7.5071    3.2884    2.4333 H   0  0  0  0  0  0  0  0  0  0  0  0
    5.6816    3.2592    2.0793 H   0  0  0  0  0  0  0  0  0  0  0  0
    7.7353    1.2468    1.0472 H   0  0  0  0  0  0  0  0  0  0  0  0
  1  2  1  0
  2  3  1  0
  2  4  1  0
  4  5  1  0
  5  6  1  0
  6  7  1  0
  7  8  2  0
  7  9  1  0
  9 10  1  0
  9 11  1  0
  9 12  1  0
  5 13  1  0
 13 14  2  0
 13 15  1  0
 15 16  1  0
 16 17  1  0
 17 18  1  0
 17 19  1  0
 16 20  1  0
 20 21  2  0
 20 22  1  0
 22 23  1  0
 23 24  1  0
 24 25  1  0
 24 26  1  0
 23 27  1  0
 27 28  2  0
 27 29  1  0
 29 30  1  0
 30 31  1  0
 31 32  1  0
 32 33  1  0
 33 34  1  0
 34 35  3  0
 33 29  1  0
  1 36  1  0
  1 37  1  0
  1 38  1  0
  2 39  1  0
  3 40  1  0
  3 41  1  0
  3 42  1  0
  4 43  1  0
  4 44  1  0
  5 45  1  6
  6 46  1  0
 10 47  1  0
 10 48  1  0
 10 49  1  0
 11 50  1  0
 11 51  1  0
 11 52  1  0
 12 53  1  0
 12 54  1  0
 12 55  1  0
 15 56  1  0
 16 57  1  6
 17 58  1  0
 18 59  1  0
 18 60  1  0
 18 61  1  0
 19 62  1  0
 19 63  1  0
 19 64  1  0
 22 65  1  0
 23 66  1  1
 24 67  1  0
 25 68  1  0
 25 69  1  0
 25 70  1  0
 26 71  1  0
 26 72  1  0
 26 73  1  0
 30 74  1  0
 30 75  1  0
 31 76  1  0
 31 77  1  0
 32 78  1  0
 32 79  1  0
 33 80  1  1
M  END
$$$$
[H]c1c([H])c([H])c(C([H])([H])[C@@]([H])(C(=O)N([H])[H])N([H])C(=O)[C@@]([H])(N([H])C(=O)[C@@]([H])(N([H])C(=O)[C@@]([H])(N([H])C(=O)[C@]([H])(N([H])[H])C([H])([H])C([H])(C([H])([H])[H])C([H])([H])[H])C([H])([H])c2c([H])c([H])c([H])c([H])c2[H])C([H])([H])c2c([H])c([H])c([H])c([H])c2[H])C([H])([H])c2c([H])c([H])c([H])c([H])c2[H])c([H])c1[H]
     RDKit          3D

103106  0  0  0  0  0  0  0  0999 V2000
    7.3322    4.8166   -0.8295 C   0  0  0  0  0  0  0  0  0  0  0  0
    6.8593    4.0548    0.4133 C   0  0  0  0  0  0  0  0  0  0  0  0
    6.2947    5.0905    1.3375 C   0  0  0  0  0  0  0  0  0  0  0  0
    5.9228    2.9497    0.0316 C   0  0  0  0  0  0  0  0  0  0  0  0
    5.4751    2.1928    1.2376 C   0  0  1  0  0  0  0  0  0  0  0  0
    4.7767    3.0655    2.1364 N   0  0  0  0  0  0  0  0  0  0  0  0
    4.6065    1.0399    0.9062 C   0  0  0  0  0  0  0  0  0  0  0  0
    3.4845    0.9950    1.4827 O   0  0  0  0  0  0  0  0  0  0  0  0
    4.9455    0.0214    0.0094 N   0  0  0  0  0  0  0  0  0  0  0  0
    4.1064   -1.1100   -0.3487 C   0  0  1  0  0  0  0  0  0  0  0  0
    3.8883   -2.0269    0.8064 C   0  0  0  0  0  0  0  0  0  0  0  0
    5.1003   -2.6139    1.3922 C   0  0  0  0  0  0  0  0  0  0  0  0
    5.6139   -3.7928    0.8809 C   0  0  0  0  0  0  0  0  0  0  0  0
    6.7380   -4.3694    1.4217 C   0  0  0  0  0  0  0  0  0  0  0  0
    7.3925   -3.7759    2.5045 C   0  0  0  0  0  0  0  0  0  0  0  0
    6.8714   -2.6071    2.9992 C   0  0  0  0  0  0  0  0  0  0  0  0
    5.7539   -2.0437    2.4548 C   0  0  0  0  0  0  0  0  0  0  0  0
    2.8113   -0.6173   -0.9114 C   0  0  0  0  0  0  0  0  0  0  0  0
    2.5666    0.6240   -1.0635 O   0  0  0  0  0  0  0  0  0  0  0  0
    1.7783   -1.4854   -1.3050 N   0  0  0  0  0  0  0  0  0  0  0  0
    0.5216   -0.9497   -1.8156 C   0  0  1  0  0  0  0  0  0  0  0  0
    0.5880   -0.8924   -3.3405 C   0  0  0  0  0  0  0  0  0  0  0  0
    0.8485   -2.1973   -3.9318 C   0  0  0  0  0  0  0  0  0  0  0  0
    2.1772   -2.6261   -4.0861 C   0  0  0  0  0  0  0  0  0  0  0  0
    2.4858   -3.8415   -4.6316 C   0  0  0  0  0  0  0  0  0  0  0  0
    1.4747   -4.6684   -5.0431 C   0  0  0  0  0  0  0  0  0  0  0  0
    0.1730   -4.2699   -4.9037 C   0  0  0  0  0  0  0  0  0  0  0  0
   -0.1215   -3.0435   -4.3511 C   0  0  0  0  0  0  0  0  0  0  0  0
   -0.7019   -1.5742   -1.2928 C   0  0  0  0  0  0  0  0  0  0  0  0
   -0.8084   -2.8101   -1.3094 O   0  0  0  0  0  0  0  0  0  0  0  0
   -1.7509   -0.7705   -0.7633 N   0  0  0  0  0  0  0  0  0  0  0  0
   -2.9993   -1.2167   -0.2279 C   0  0  1  0  0  0  0  0  0  0  0  0
   -2.5734   -1.9221    1.0988 C   0  0  0  0  0  0  0  0  0  0  0  0
   -3.7096   -2.4416    1.8329 C   0  0  0  0  0  0  0  0  0  0  0  0
   -4.3551   -3.6298    1.5614 C   0  0  0  0  0  0  0  0  0  0  0  0
   -5.3978   -4.0346    2.3554 C   0  0  0  0  0  0  0  0  0  0  0  0
   -5.8423   -3.3073    3.4278 C   0  0  0  0  0  0  0  0  0  0  0  0
   -5.2085   -2.1047    3.7242 C   0  0  0  0  0  0  0  0  0  0  0  0
   -4.1748   -1.7203    2.9223 C   0  0  0  0  0  0  0  0  0  0  0  0
   -3.8279   -0.0688    0.0924 C   0  0  0  0  0  0  0  0  0  0  0  0
   -3.3048    1.0261    0.5259 O   0  0  0  0  0  0  0  0  0  0  0  0
   -5.2255   -0.0601   -0.0356 N   0  0  0  0  0  0  0  0  0  0  0  0
   -6.0060    1.1326    0.3444 C   0  0  1  0  0  0  0  0  0  0  0  0
   -6.3150    1.9610   -0.8701 C   0  0  0  0  0  0  0  0  0  0  0  0
   -7.0889    3.1947   -0.5997 C   0  0  0  0  0  0  0  0  0  0  0  0
   -8.4548    3.2934   -0.7578 C   0  0  0  0  0  0  0  0  0  0  0  0
   -9.1196    4.4626   -0.4679 C   0  0  0  0  0  0  0  0  0  0  0  0
   -8.4525    5.5947   -0.0038 C   0  0  0  0  0  0  0  0  0  0  0  0
   -7.0707    5.4977    0.1561 C   0  0  0  0  0  0  0  0  0  0  0  0
   -6.4362    4.3441   -0.1324 C   0  0  0  0  0  0  0  0  0  0  0  0
   -7.1408    0.7784    1.1831 C   0  0  0  0  0  0  0  0  0  0  0  0
   -7.9981    1.6653    1.8771 N   0  0  0  0  0  0  0  0  0  0  0  0
   -7.3786   -0.4844    1.3039 O   0  0  0  0  0  0  0  0  0  0  0  0
    7.6308    4.0785   -1.5897 H   0  0  0  0  0  0  0  0  0  0  0  0
    6.5749    5.5432   -1.1863 H   0  0  0  0  0  0  0  0  0  0  0  0
    8.2576    5.3456   -0.5266 H   0  0  0  0  0  0  0  0  0  0  0  0
    7.8001    3.6585    0.8901 H   0  0  0  0  0  0  0  0  0  0  0  0
    6.5057    4.8971    2.4112 H   0  0  0  0  0  0  0  0  0  0  0  0
    6.8201    6.0879    1.1482 H   0  0  0  0  0  0  0  0  0  0  0  0
    5.2419    5.3225    1.1959 H   0  0  0  0  0  0  0  0  0  0  0  0
    6.4834    2.2935   -0.6916 H   0  0  0  0  0  0  0  0  0  0  0  0
    5.0662    3.4307   -0.5154 H   0  0  0  0  0  0  0  0  0  0  0  0
    6.3993    1.8794    1.7711 H   0  0  0  0  0  0  0  0  0  0  0  0
    4.9715    2.9399    3.1331 H   0  0  0  0  0  0  0  0  0  0  0  0
    3.7817    3.2234    1.9052 H   0  0  0  0  0  0  0  0  0  0  0  0
    5.9049    0.0866   -0.4469 H   0  0  0  0  0  0  0  0  0  0  0  0
    4.5786   -1.6735   -1.1763 H   0  0  0  0  0  0  0  0  0  0  0  0
    3.1869   -1.5909    1.5726 H   0  0  0  0  0  0  0  0  0  0  0  0
    3.2949   -2.8997    0.3957 H   0  0  0  0  0  0  0  0  0  0  0  0
    5.0935   -4.2528    0.0232 H   0  0  0  0  0  0  0  0  0  0  0  0
    7.1394   -5.2884    1.0262 H   0  0  0  0  0  0  0  0  0  0  0  0
    8.2773   -4.2314    2.9271 H   0  0  0  0  0  0  0  0  0  0  0  0
    7.3625   -2.1078    3.8544 H   0  0  0  0  0  0  0  0  0  0  0  0
    5.4017   -1.1267    2.9117 H   0  0  0  0  0  0  0  0  0  0  0  0
    1.8876   -2.5019   -1.2418 H   0  0  0  0  0  0  0  0  0  0  0  0
    0.5102    0.1319   -1.5222 H   0  0  0  0  0  0  0  0  0  0  0  0
    1.3504   -0.1356   -3.5938 H   0  0  0  0  0  0  0  0  0  0  0  0
   -0.3979   -0.4871   -3.6671 H   0  0  0  0  0  0  0  0  0  0  0  0
    3.0095   -1.9958   -3.7717 H   0  0  0  0  0  0  0  0  0  0  0  0
    3.5314   -4.1738   -4.7467 H   0  0  0  0  0  0  0  0  0  0  0  0
    1.7488   -5.6391   -5.4711 H   0  0  0  0  0  0  0  0  0  0  0  0
   -0.6296   -4.9464   -5.2378 H   0  0  0  0  0  0  0  0  0  0  0  0
   -1.1610   -2.7754   -4.2597 H   0  0  0  0  0  0  0  0  0  0  0  0
   -1.5677    0.2781   -0.7683 H   0  0  0  0  0  0  0  0  0  0  0  0
   -3.5041   -2.0225   -0.7499 H   0  0  0  0  0  0  0  0  0  0  0  0
   -2.0647   -1.1359    1.6809 H   0  0  0  0  0  0  0  0  0  0  0  0
   -1.8732   -2.6895    0.8245 H   0  0  0  0  0  0  0  0  0  0  0  0
   -4.0101   -4.2085    0.7143 H   0  0  0  0  0  0  0  0  0  0  0  0
   -5.9267   -4.9800    2.1504 H   0  0  0  0  0  0  0  0  0  0  0  0
   -6.6598   -3.5847    4.0793 H   0  0  0  0  0  0  0  0  0  0  0  0
   -5.5415   -1.5152    4.5685 H   0  0  0  0  0  0  0  0  0  0  0  0
   -3.6987   -0.7647    3.1966 H   0  0  0  0  0  0  0  0  0  0  0  0
   -5.7584   -0.8653   -0.3921 H   0  0  0  0  0  0  0  0  0  0  0  0
   -5.3065    1.7906    0.9593 H   0  0  0  0  0  0  0  0  0  0  0  0
   -6.8133    1.3802   -1.6813 H   0  0  0  0  0  0  0  0  0  0  0  0
   -5.3324    2.3103   -1.3038 H   0  0  0  0  0  0  0  0  0  0  0  0
   -9.0258    2.4723   -1.1038 H   0  0  0  0  0  0  0  0  0  0  0  0
  -10.2044    4.5732   -0.5824 H   0  0  0  0  0  0  0  0  0  0  0  0
   -8.9378    6.5235    0.2360 H   0  0  0  0  0  0  0  0  0  0  0  0
   -6.5233    6.3754    0.5197 H   0  0  0  0  0  0  0  0  0  0  0  0
   -5.3645    4.2506   -0.0149 H   0  0  0  0  0  0  0  0  0  0  0  0
   -7.6529    2.5783    2.1809 H   0  0  0  0  0  0  0  0  0  0  0  0
   -8.9811    1.4174    2.0953 H   0  0  0  0  0  0  0  0  0  0  0  0
  1  2  1  0
  2  3  1  0
  2  4  1  0
  4  5  1  0
  5  6  1  0
  5  7  1  0
  7  8  2  0
  7  9  1  0
  9 10  1  0
 10 11  1  0
 11 12  1  0
 12 13  2  0
 13 14  1  0
 14 15  2  0
 15 16  1  0
 16 17  2  0
 10 18  1  0
 18 19  2  0
 18 20  1  0
 20 21  1  0
 21 22  1  0
 22 23  1  0
 23 24  2  0
 24 25  1  0
 25 26  2  0
 26 27  1  0
 27 28  2  0
 21 29  1  0
 29 30  2  0
 29 31  1  0
 31 32  1  0
 32 33  1  0
 33 34  1  0
 34 35  2  0
 35 36  1  0
 36 37  2  0
 37 38  1  0
 38 39  2  0
 32 40  1  0
 40 41  2  0
 40 42  1  0
 42 43  1  0
 43 44  1  0
 44 45  1  0
 45 46  2  0
 46 47  1  0
 47 48  2  0
 48 49  1  0
 49 50  2  0
 43 51  1  0
 51 52  1  0
 51 53  2  0
 17 12  1  0
 28 23  1  0
 39 34  1  0
 50 45  1  0
  1 54  1  0
  1 55  1  0
  1 56  1  0
  2 57  1  0
  3 58  1  0
  3 59  1  0
  3 60  1  0
  4 61  1  0
  4 62  1  0
  5 63  1  1
  6 64  1  0
  6 65  1  0
  9 66  1  0
 10 67  1  6
 11 68  1  0
 11 69  1  0
 13 70  1  0
 14 71  1  0
 15 72  1  0
 16 73  1  0
 17 74  1  0
 20 75  1  0
 21 76  1  1
 22 77  1  0
 22 78  1  0
 24 79  1  0
 25 80  1  0
 26 81  1  0
 27 82  1  0
 28 83  1  0
 31 84  1  0
 32 85  1  6
 33 86  1  0
 33 87  1  0
 35 88  1  0
 36 89  1  0
 37 90  1  0
 38 91  1  0
 39 92  1  0
 42 93  1  0
 43 94  1  1
 44 95  1  0
 44 96  1  0
 46 97  1  0
 47 98  1  0
 48 99  1  0
 49100  1  0
 50101  1  0
 52102  1  0
 52103  1  0
M  END
$$$$
[H]c1c([H])c(Cl)c([H])c(N2C([H])([H])C([H])([H])N(C(=O)[C@]3([H])C([H])([H])N(C(F)(F)F)C([H])([H])[C@]3([H])c3c([H])c([H])c(Cl)c(Cl)c3[H])[C@]([H])(C([H])([H])[H])C2([H])[H])c1[H]
     RDKit          3D

 56 59  0  0  0  0  0  0  0  0999 V2000
    1.6158   -1.3100   -2.3278 C   0  0  0  0  0  0  0  0  0  0  0  0
    1.1954   -0.0330   -1.6429 C   0  0  2  0  0  0  0  0  0  0  0  0
    2.3803    0.8384   -1.2945 C   0  0  0  0  0  0  0  0  0  0  0  0
    3.1708    0.2061   -0.2594 N   0  0  0  0  0  0  0  0  0  0  0  0
    2.5260   -0.7784    0.5773 C   0  0  0  0  0  0  0  0  0  0  0  0
    1.0494   -0.5027    0.7747 C   0  0  0  0  0  0  0  0  0  0  0  0
    0.3668   -0.2807   -0.4780 N   0  0  0  0  0  0  0  0  0  0  0  0
   -1.0552   -0.2939   -0.5430 C   0  0  0  0  0  0  0  0  0  0  0  0
   -1.5464   -0.0601   -1.6721 O   0  0  0  0  0  0  0  0  0  0  0  0
   -1.8127   -0.5690    0.6474 C   0  0  2  0  0  0  0  0  0  0  0  0
   -1.8203   -2.1270    0.7371 C   0  0  0  0  0  0  0  0  0  0  0  0
   -3.1081   -2.5085    0.2014 N   0  0  0  0  0  0  0  0  0  0  0  0
   -3.8231   -1.3380   -0.2111 C   0  0  0  0  0  0  0  0  0  0  0  0
   -3.2223   -0.3371    0.8032 C   0  0  2  0  0  0  0  0  0  0  0  0
   -3.8868    0.9110    0.9173 C   0  0  0  0  0  0  0  0  0  0  0  0
   -5.0246    0.9615    1.7451 C   0  0  0  0  0  0  0  0  0  0  0  0
   -5.7708    2.0805    1.9706 C   0  0  0  0  0  0  0  0  0  0  0  0
   -5.3928    3.2509    1.3484 C   0  0  0  0  0  0  0  0  0  0  0  0
   -6.2880    4.7397    1.5755 Cl  0  0  0  0  0  0  0  0  0  0  0  0
   -4.2886    3.2527    0.5303 C   0  0  0  0  0  0  0  0  0  0  0  0
   -3.7577    4.7012   -0.2862 Cl  0  0  0  0  0  0  0  0  0  0  0  0
   -3.5520    2.1015    0.3217 C   0  0  0  0  0  0  0  0  0  0  0  0
   -3.1027   -3.5848   -0.7121 C   0  0  0  0  0  0  0  0  0  0  0  0
   -2.3436   -3.3884   -1.8488 F   0  0  0  0  0  0  0  0  0  0  0  0
   -2.8060   -4.8018   -0.1032 F   0  0  0  0  0  0  0  0  0  0  0  0
   -4.4212   -3.7283   -1.1719 F   0  0  0  0  0  0  0  0  0  0  0  0
    4.5350    0.5815   -0.1091 C   0  0  0  0  0  0  0  0  0  0  0  0
    5.3804   -0.0436    0.7823 C   0  0  0  0  0  0  0  0  0  0  0  0
    6.7057    0.3172    0.9391 C   0  0  0  0  0  0  0  0  0  0  0  0
    7.2429    1.3410    0.1906 C   0  0  0  0  0  0  0  0  0  0  0  0
    6.4099    1.9722   -0.7016 C   0  0  0  0  0  0  0  0  0  0  0  0
    7.0682    3.2935   -1.6797 Cl  0  0  0  0  0  0  0  0  0  0  0  0
    5.0866    1.6092   -0.8558 C   0  0  0  0  0  0  0  0  0  0  0  0
    2.7336   -1.3242   -2.3905 H   0  0  0  0  0  0  0  0  0  0  0  0
    1.2613   -2.2203   -1.8113 H   0  0  0  0  0  0  0  0  0  0  0  0
    1.2639   -1.3732   -3.3797 H   0  0  0  0  0  0  0  0  0  0  0  0
    0.5724    0.5388   -2.3610 H   0  0  0  0  0  0  0  0  0  0  0  0
    2.9428    0.9627   -2.2532 H   0  0  0  0  0  0  0  0  0  0  0  0
    2.0187    1.8211   -0.9605 H   0  0  0  0  0  0  0  0  0  0  0  0
    2.9706   -0.6934    1.6115 H   0  0  0  0  0  0  0  0  0  0  0  0
    2.7310   -1.7974    0.2182 H   0  0  0  0  0  0  0  0  0  0  0  0
    1.0070    0.4574    1.3669 H   0  0  0  0  0  0  0  0  0  0  0  0
    0.6407   -1.3149    1.3692 H   0  0  0  0  0  0  0  0  0  0  0  0
   -1.2834   -0.2065    1.5887 H   0  0  0  0  0  0  0  0  0  0  0  0
   -0.9884   -2.5677    0.1909 H   0  0  0  0  0  0  0  0  0  0  0  0
   -1.8227   -2.3715    1.8169 H   0  0  0  0  0  0  0  0  0  0  0  0
   -3.7224   -1.0264   -1.2375 H   0  0  0  0  0  0  0  0  0  0  0  0
   -4.9154   -1.4246   -0.0062 H   0  0  0  0  0  0  0  0  0  0  0  0
   -3.4754   -0.9309    1.7713 H   0  0  0  0  0  0  0  0  0  0  0  0
   -5.3697    0.0535    2.2658 H   0  0  0  0  0  0  0  0  0  0  0  0
   -6.6422    2.1167    2.6053 H   0  0  0  0  0  0  0  0  0  0  0  0
   -2.6805    2.0917   -0.3108 H   0  0  0  0  0  0  0  0  0  0  0  0
    4.9697   -0.8606    1.3840 H   0  0  0  0  0  0  0  0  0  0  0  0
    7.3508   -0.1851    1.6430 H   0  0  0  0  0  0  0  0  0  0  0  0
    8.2725    1.6588    0.2775 H   0  0  0  0  0  0  0  0  0  0  0  0
    4.4550    2.1229   -1.5634 H   0  0  0  0  0  0  0  0  0  0  0  0
  1  2  1  0
  2  3  1  0
  3  4  1  0
  4  5  1  0
  5  6  1  0
  6  7  1  0
  7  8  1  0
  8  9  2  0
  8 10  1  0
 10 11  1  0
 11 12  1  0
 12 13  1  0
 13 14  1  0
 14 15  1  0
 15 16  2  0
 16 17  1  0
 17 18  2  0
 18 19  1  0
 18 20  1  0
 20 21  1  0
 20 22  2  0
 12 23  1  0
 23 24  1  0
 23 25  1  0
 23 26  1  0
  4 27  1  0
 27 28  2  0
 28 29  1  0
 29 30  2  0
 30 31  1  0
 31 32  1  0
 31 33  2  0
  7  2  1  0
 14 10  1  0
 22 15  1  0
 33 27  1  0
  1 34  1  0
  1 35  1  0
  1 36  1  0
  2 37  1  6
  3 38  1  0
  3 39  1  0
  5 40  1  0
  5 41  1  0
  6 42  1  0
  6 43  1  0
 10 44  1  1
 11 45  1  0
 11 46  1  0
 13 47  1  0
 13 48  1  0
 14 49  1  1
 16 50  1  0
 17 51  1  0
 22 52  1  0
 28 53  1  0
 29 54  1  0
 30 55  1  0
 33 56  1  0
M  END
$$$$
[H]OC(=O)[C@@]([H])(N([H])C(=O)c1c([H])c([H])c(-c2c([H])c([H])c(C(F)(F)F)c([H])c2[H])c([H])c1[H])C([H])([H])[H]
     RDKit          3D

 38 39  0  0  0  0  0  0  0  0999 V2000
   -5.6853   -0.4627    1.3626 C   0  0  0  0  0  0  0  0  0  0  0  0
   -5.1002   -0.1430    0.0072 C   0  0  2  0  0  0  0  0  0  0  0  0
   -3.6730    0.0184    0.1141 N   0  0  0  0  0  0  0  0  0  0  0  0
   -2.8067   -0.7307   -0.6923 C   0  0  0  0  0  0  0  0  0  0  0  0
   -3.2930   -1.5538   -1.5300 O   0  0  0  0  0  0  0  0  0  0  0  0
   -1.3743   -0.5744   -0.5834 C   0  0  0  0  0  0  0  0  0  0  0  0
   -0.5485   -0.5063   -1.6667 C   0  0  0  0  0  0  0  0  0  0  0  0
    0.8347   -0.3588   -1.5305 C   0  0  0  0  0  0  0  0  0  0  0  0
    1.3913   -0.2798   -0.2729 C   0  0  0  0  0  0  0  0  0  0  0  0
    0.5349   -0.3536    0.8103 C   0  0  0  0  0  0  0  0  0  0  0  0
   -0.8264   -0.4965    0.6805 C   0  0  0  0  0  0  0  0  0  0  0  0
    2.8253   -0.1065   -0.0490 C   0  0  0  0  0  0  0  0  0  0  0  0
    3.4388   -0.6606    1.0699 C   0  0  0  0  0  0  0  0  0  0  0  0
    4.7914   -0.4903    1.2959 C   0  0  0  0  0  0  0  0  0  0  0  0
    5.5923    0.2303    0.4328 C   0  0  0  0  0  0  0  0  0  0  0  0
    4.9956    0.7833   -0.6775 C   0  0  0  0  0  0  0  0  0  0  0  0
    3.6362    0.6084   -0.9001 C   0  0  0  0  0  0  0  0  0  0  0  0
    7.0463    0.4024    0.6778 C   0  0  0  0  0  0  0  0  0  0  0  0
    7.4036    0.2602    1.9961 F   0  0  0  0  0  0  0  0  0  0  0  0
    7.4190    1.6667    0.2779 F   0  0  0  0  0  0  0  0  0  0  0  0
    7.7030   -0.5694   -0.1046 F   0  0  0  0  0  0  0  0  0  0  0  0
   -5.6410    1.1607   -0.4912 C   0  0  0  0  0  0  0  0  0  0  0  0
   -7.0212    1.2514   -0.6522 O   0  0  0  0  0  0  0  0  0  0  0  0
   -4.9080    2.1237   -0.7528 O   0  0  0  0  0  0  0  0  0  0  0  0
   -6.5911    0.1447    1.5264 H   0  0  0  0  0  0  0  0  0  0  0  0
   -5.8599   -1.5510    1.4085 H   0  0  0  0  0  0  0  0  0  0  0  0
   -4.9756   -0.1769    2.1918 H   0  0  0  0  0  0  0  0  0  0  0  0
   -5.3378   -0.9474   -0.6881 H   0  0  0  0  0  0  0  0  0  0  0  0
   -3.2713    0.7239    0.8081 H   0  0  0  0  0  0  0  0  0  0  0  0
   -0.9389   -0.5635   -2.6855 H   0  0  0  0  0  0  0  0  0  0  0  0
    1.4957   -0.3137   -2.3756 H   0  0  0  0  0  0  0  0  0  0  0  0
    0.9327   -0.2949    1.8143 H   0  0  0  0  0  0  0  0  0  0  0  0
   -1.4828   -0.5548    1.5416 H   0  0  0  0  0  0  0  0  0  0  0  0
    2.7912   -1.2192    1.7321 H   0  0  0  0  0  0  0  0  0  0  0  0
    5.2718   -0.9248    2.1568 H   0  0  0  0  0  0  0  0  0  0  0  0
    5.6171    1.3513   -1.3541 H   0  0  0  0  0  0  0  0  0  0  0  0
    3.1428    1.0305   -1.7774 H   0  0  0  0  0  0  0  0  0  0  0  0
   -7.5287    2.0768   -0.4210 H   0  0  0  0  0  0  0  0  0  0  0  0
  1  2  1  0
  2  3  1  0
  3  4  1  0
  4  5  2  0
  4  6  1  0
  6  7  2  0
  7  8  1  0
  8  9  2  0
  9 10  1  0
 10 11  2  0
  9 12  1  0
 12 13  2  0
 13 14  1  0
 14 15  2  0
 15 16  1  0
 16 17  2  0
 15 18  1  0
 18 19  1  0
 18 20  1  0
 18 21  1  0
  2 22  1  0
 22 23  1  0
 22 24  2  0
 11  6  1  0
 17 12  1  0
  1 25  1  0
  1 26  1  0
  1 27  1  0
  2 28  1  6
  3 29  1  0
  7 30  1  0
  8 31  1  0
 10 32  1  0
 11 33  1  0
 13 34  1  0
 14 35  1  0
 16 36  1  0
 17 37  1  0
 23 38  1  0
M  END
$$$$
[H]c1c([H])c([H])c(C([H])([H])OC(=O)N([H])[C@]([H])(C(=O)N([H])[C@]([H])(C(=O)N([H])[C@]([H])(C(=O)N([H])[H])C([H])([H])c2c([H])c([H])c([H])c([H])c2[H])C([H])([H])c2c([H])n([H])c3c([H])c([H])c([H])c([H])c23)C([H])([H])C([H])(C([H])([H])[H])C([H])([H])[H])c([H])c1[H]
     RDKit          3D

 83 86  0  0  0  0  0  0  0  0999 V2000
    2.8414    0.0055   -5.0272 C   0  0  0  0  0  0  0  0  0  0  0  0
    2.8325   -0.2798   -3.5061 C   0  0  0  0  0  0  0  0  0  0  0  0
    1.5449   -1.0191   -3.2737 C   0  0  0  0  0  0  0  0  0  0  0  0
    2.9589    1.0402   -2.8674 C   0  0  0  0  0  0  0  0  0  0  0  0
    2.9914    1.1824   -1.4177 C   0  0  2  0  0  0  0  0  0  0  0  0
    4.0241    0.4991   -0.7078 N   0  0  0  0  0  0  0  0  0  0  0  0
    3.9249   -0.6801    0.0609 C   0  0  0  0  0  0  0  0  0  0  0  0
    2.8934   -1.3689    0.2555 O   0  0  0  0  0  0  0  0  0  0  0  0
    5.0688   -1.1999    0.7116 O   0  0  0  0  0  0  0  0  0  0  0  0
    4.9722   -2.3771    1.4870 C   0  0  0  0  0  0  0  0  0  0  0  0
    6.2772   -2.7149    2.0559 C   0  0  0  0  0  0  0  0  0  0  0  0
    6.3053   -3.3767    3.2660 C   0  0  0  0  0  0  0  0  0  0  0  0
    7.4734   -3.7493    3.8923 C   0  0  0  0  0  0  0  0  0  0  0  0
    8.6716   -3.4535    3.2947 C   0  0  0  0  0  0  0  0  0  0  0  0
    8.6594   -2.7846    2.0717 C   0  0  0  0  0  0  0  0  0  0  0  0
    7.4809   -2.4198    1.4596 C   0  0  0  0  0  0  0  0  0  0  0  0
    1.7363    1.3504   -0.6682 C   0  0  0  0  0  0  0  0  0  0  0  0
    1.7173    1.0294    0.5446 O   0  0  0  0  0  0  0  0  0  0  0  0
    0.5221    1.8487   -1.1709 N   0  0  0  0  0  0  0  0  0  0  0  0
   -0.6882    2.0101   -0.3332 C   0  0  1  0  0  0  0  0  0  0  0  0
   -1.0956    3.4188   -0.5354 C   0  0  0  0  0  0  0  0  0  0  0  0
   -2.2546    3.9315    0.1667 C   0  0  0  0  0  0  0  0  0  0  0  0
   -3.4974    4.2306   -0.3429 C   0  0  0  0  0  0  0  0  0  0  0  0
   -4.2838    4.7128    0.6539 N   0  0  0  0  0  0  0  0  0  0  0  0
   -3.6080    4.7440    1.8057 C   0  0  0  0  0  0  0  0  0  0  0  0
   -3.9709    5.1474    3.0773 C   0  0  0  0  0  0  0  0  0  0  0  0
   -3.0227    5.0541    4.0698 C   0  0  0  0  0  0  0  0  0  0  0  0
   -1.7463    4.5682    3.7871 C   0  0  0  0  0  0  0  0  0  0  0  0
   -1.4269    4.1826    2.5331 C   0  0  0  0  0  0  0  0  0  0  0  0
   -2.3445    4.2620    1.5235 C   0  0  0  0  0  0  0  0  0  0  0  0
   -1.6754    0.9743   -0.6777 C   0  0  0  0  0  0  0  0  0  0  0  0
   -1.3975    0.2041   -1.6424 O   0  0  0  0  0  0  0  0  0  0  0  0
   -2.9067    0.7395   -0.0363 N   0  0  0  0  0  0  0  0  0  0  0  0
   -3.7412   -0.3752   -0.5188 C   0  0  1  0  0  0  0  0  0  0  0  0
   -3.6659   -1.4888    0.5150 C   0  0  0  0  0  0  0  0  0  0  0  0
   -4.4057   -2.6910    0.2464 C   0  0  0  0  0  0  0  0  0  0  0  0
   -5.6700   -2.8939    0.7413 C   0  0  0  0  0  0  0  0  0  0  0  0
   -6.4029   -4.0328    0.5163 C   0  0  0  0  0  0  0  0  0  0  0  0
   -5.8070   -5.0311   -0.2656 C   0  0  0  0  0  0  0  0  0  0  0  0
   -4.5473   -4.8638   -0.7765 C   0  0  0  0  0  0  0  0  0  0  0  0
   -3.8619   -3.7079   -0.5204 C   0  0  0  0  0  0  0  0  0  0  0  0
   -5.0989    0.1094   -0.7886 C   0  0  0  0  0  0  0  0  0  0  0  0
   -6.1219   -0.6864   -1.4021 N   0  0  0  0  0  0  0  0  0  0  0  0
   -5.4915    1.2906   -0.5037 O   0  0  0  0  0  0  0  0  0  0  0  0
    3.6021    0.7978   -5.2419 H   0  0  0  0  0  0  0  0  0  0  0  0
    1.8427    0.2691   -5.3757 H   0  0  0  0  0  0  0  0  0  0  0  0
    3.1652   -0.8967   -5.5776 H   0  0  0  0  0  0  0  0  0  0  0  0
    3.7210   -0.9448   -3.3725 H   0  0  0  0  0  0  0  0  0  0  0  0
    1.2698   -1.1386   -2.2071 H   0  0  0  0  0  0  0  0  0  0  0  0
    1.6435   -2.0389   -3.7316 H   0  0  0  0  0  0  0  0  0  0  0  0
    0.7702   -0.5126   -3.8870 H   0  0  0  0  0  0  0  0  0  0  0  0
    2.1561    1.6931   -3.2777 H   0  0  0  0  0  0  0  0  0  0  0  0
    3.9030    1.5060   -3.2935 H   0  0  0  0  0  0  0  0  0  0  0  0
    3.3697    2.3208   -1.3013 H   0  0  0  0  0  0  0  0  0  0  0  0
    5.0257    0.8996   -0.7402 H   0  0  0  0  0  0  0  0  0  0  0  0
    4.6296   -3.2270    0.8264 H   0  0  0  0  0  0  0  0  0  0  0  0
    4.2449   -2.2220    2.3119 H   0  0  0  0  0  0  0  0  0  0  0  0
    5.3852   -3.6229    3.7612 H   0  0  0  0  0  0  0  0  0  0  0  0
    7.4299   -4.2730    4.8544 H   0  0  0  0  0  0  0  0  0  0  0  0
    9.5952   -3.7284    3.7518 H   0  0  0  0  0  0  0  0  0  0  0  0
    9.6028   -2.5402    1.5775 H   0  0  0  0  0  0  0  0  0  0  0  0
    7.4924   -1.8934    0.4935 H   0  0  0  0  0  0  0  0  0  0  0  0
    0.4362    2.1228   -2.1539 H   0  0  0  0  0  0  0  0  0  0  0  0
   -0.3374    1.7717    0.6988 H   0  0  0  0  0  0  0  0  0  0  0  0
   -0.1599    4.0384   -0.3397 H   0  0  0  0  0  0  0  0  0  0  0  0
   -1.2140    3.5559   -1.6596 H   0  0  0  0  0  0  0  0  0  0  0  0
   -3.8458    4.1197   -1.3660 H   0  0  0  0  0  0  0  0  0  0  0  0
   -5.2781    5.0170    0.5425 H   0  0  0  0  0  0  0  0  0  0  0  0
   -4.9416    5.5278    3.3372 H   0  0  0  0  0  0  0  0  0  0  0  0
   -3.2362    5.3534    5.0961 H   0  0  0  0  0  0  0  0  0  0  0  0
   -0.9768    4.4843    4.5562 H   0  0  0  0  0  0  0  0  0  0  0  0
   -0.4353    3.7909    2.2501 H   0  0  0  0  0  0  0  0  0  0  0  0
   -3.2649    1.2966    0.7527 H   0  0  0  0  0  0  0  0  0  0  0  0
   -3.2644   -0.7222   -1.4719 H   0  0  0  0  0  0  0  0  0  0  0  0
   -2.5708   -1.6828    0.6612 H   0  0  0  0  0  0  0  0  0  0  0  0
   -4.0078   -1.0145    1.4862 H   0  0  0  0  0  0  0  0  0  0  0  0
   -6.1735   -2.1331    1.3610 H   0  0  0  0  0  0  0  0  0  0  0  0
   -7.4081   -4.1829    0.9155 H   0  0  0  0  0  0  0  0  0  0  0  0
   -6.3999   -5.9235   -0.4322 H   0  0  0  0  0  0  0  0  0  0  0  0
   -4.1346   -5.6610   -1.3698 H   0  0  0  0  0  0  0  0  0  0  0  0
   -2.8703   -3.6246   -0.9472 H   0  0  0  0  0  0  0  0  0  0  0  0
   -7.0696   -0.6932   -0.9903 H   0  0  0  0  0  0  0  0  0  0  0  0
   -5.8600   -1.2299   -2.2512 H   0  0  0  0  0  0  0  0  0  0  0  0
  1  2  1  0
  2  3  1  0
  2  4  1  0
  4  5  1  0
  5  6  1  0
  6  7  1  0
  7  8  2  0
  7  9  1  0
  9 10  1  0
 10 11  1  0
 11 12  2  0
 12 13  1  0
 13 14  2  0
 14 15  1  0
 15 16  2  0
  5 17  1  0
 17 18  2  0
 17 19  1  0
 19 20  1  0
 20 21  1  0
 21 22  1  0
 22 23  2  0
 23 24  1  0
 24 25  1  0
 25 26  2  0
 26 27  1  0
 27 28  2  0
 28 29  1  0
 29 30  2  0
 20 31  1  0
 31 32  2  0
 31 33  1  0
 33 34  1  0
 34 35  1  0
 35 36  1  0
 36 37  2  0
 37 38  1  0
 38 39  2  0
 39 40  1  0
 40 41  2  0
 34 42  1  0
 42 43  1  0
 42 44  2  0
 16 11  1  0
 30 22  1  0
 41 36  1  0
 30 25  1  0
  1 45  1  0
  1 46  1  0
  1 47  1  0
  2 48  1  0
  3 49  1  0
  3 50  1  0
  3 51  1  0
  4 52  1  0
  4 53  1  0
  5 54  1  6
  6 55  1  0
 10 56  1  0
 10 57  1  0
 12 58  1  0
 13 59  1  0
 14 60  1  0
 15 61  1  0
 16 62  1  0
 19 63  1  0
 20 64  1  1
 21 65  1  0
 21 66  1  0
 23 67  1  0
 24 68  1  0
 26 69  1  0
 27 70  1  0
 28 71  1  0
 29 72  1  0
 33 73  1  0
 34 74  1  6
 35 75  1  0
 35 76  1  0
 37 77  1  0
 38 78  1  0
 39 79  1  0
 40 80  1  0
 41 81  1  0
 43 82  1  0
 43 83  1  0
M  END
$$$$
[H]O[C@@]1([H])C([H])([H])C([H])([H])[C@]2([H])[C@]1([H])C([H])([H])C([H])([H])[C@]1([H])[C@]2([H])C([H])([H])C([H])([H])[C@]2(C([H])([H])[H])[C@@]([H])(O[H])C([H])([H])C([H])([H])[C@]21[H]
     RDKit          3D

 47 50  0  0  0  0  0  0  0  0999 V2000
   -2.4122   -1.3823   -1.0302 C   0  0  0  0  0  0  0  0  0  0  0  0
   -2.2535    0.0775   -0.6919 C   0  0  2  0  0  0  0  0  0  0  0  0
   -1.5164    0.8023   -1.7542 C   0  0  0  0  0  0  0  0  0  0  0  0
   -0.0770    0.2623   -1.7570 C   0  0  0  0  0  0  0  0  0  0  0  0
    0.5194    0.6268   -0.4311 C   0  0  1  0  0  0  0  0  0  0  0  0
   -0.1652   -0.2074    0.6654 C   0  0  1  0  0  0  0  0  0  0  0  0
    0.4823    0.2158    1.9656 C   0  0  0  0  0  0  0  0  0  0  0  0
    1.9340   -0.1362    2.0435 C   0  0  0  0  0  0  0  0  0  0  0  0
    2.4742   -0.4578    0.6974 C   0  0  2  0  0  0  0  0  0  0  0  0
    3.9461   -0.2349    0.5413 C   0  0  1  0  0  0  0  0  0  0  0  0
    4.7221   -1.1994    1.1392 O   0  0  0  0  0  0  0  0  0  0  0  0
    4.1124   -0.1743   -0.9600 C   0  0  0  0  0  0  0  0  0  0  0  0
    2.7297    0.1187   -1.5303 C   0  0  0  0  0  0  0  0  0  0  0  0
    1.9733    0.5660   -0.3336 C   0  0  1  0  0  0  0  0  0  0  0  0
   -1.5717    0.2652    0.6712 C   0  0  2  0  0  0  0  0  0  0  0  0
   -2.5181   -0.4576    1.5413 C   0  0  0  0  0  0  0  0  0  0  0  0
   -3.8677    0.0124    1.0106 C   0  0  0  0  0  0  0  0  0  0  0  0
   -3.5954    0.6297   -0.3466 C   0  0  2  0  0  0  0  0  0  0  0  0
   -4.5825    0.3590   -1.2642 O   0  0  0  0  0  0  0  0  0  0  0  0
   -2.4554   -1.5314   -2.1250 H   0  0  0  0  0  0  0  0  0  0  0  0
   -3.3571   -1.7753   -0.5750 H   0  0  0  0  0  0  0  0  0  0  0  0
   -1.5877   -2.0142   -0.6528 H   0  0  0  0  0  0  0  0  0  0  0  0
   -1.5044    1.8916   -1.5656 H   0  0  0  0  0  0  0  0  0  0  0  0
   -1.9514    0.5630   -2.7317 H   0  0  0  0  0  0  0  0  0  0  0  0
    0.4832    0.6554   -2.6025 H   0  0  0  0  0  0  0  0  0  0  0  0
   -0.1946   -0.8504   -1.7824 H   0  0  0  0  0  0  0  0  0  0  0  0
    0.1822    1.6842   -0.2145 H   0  0  0  0  0  0  0  0  0  0  0  0
   -0.0442   -1.2783    0.4591 H   0  0  0  0  0  0  0  0  0  0  0  0
   -0.0997   -0.1758    2.8263 H   0  0  0  0  0  0  0  0  0  0  0  0
    0.3907    1.3269    2.0149 H   0  0  0  0  0  0  0  0  0  0  0  0
    2.0413   -1.0390    2.6975 H   0  0  0  0  0  0  0  0  0  0  0  0
    2.5198    0.6636    2.5513 H   0  0  0  0  0  0  0  0  0  0  0  0
    2.2447   -1.4788    0.3625 H   0  0  0  0  0  0  0  0  0  0  0  0
    4.1778    0.7908    0.9470 H   0  0  0  0  0  0  0  0  0  0  0  0
    5.5325   -0.7227    1.5085 H   0  0  0  0  0  0  0  0  0  0  0  0
    4.7492    0.7086   -1.2334 H   0  0  0  0  0  0  0  0  0  0  0  0
    4.5499   -1.0787   -1.3890 H   0  0  0  0  0  0  0  0  0  0  0  0
    2.7874    0.8838   -2.3390 H   0  0  0  0  0  0  0  0  0  0  0  0
    2.3569   -0.8321   -1.9516 H   0  0  0  0  0  0  0  0  0  0  0  0
    2.4224    1.5401    0.0050 H   0  0  0  0  0  0  0  0  0  0  0  0
   -1.5952    1.3366    0.9046 H   0  0  0  0  0  0  0  0  0  0  0  0
   -2.4646   -1.5645    1.3648 H   0  0  0  0  0  0  0  0  0  0  0  0
   -2.4069   -0.2812    2.6165 H   0  0  0  0  0  0  0  0  0  0  0  0
   -4.5815   -0.8224    0.9173 H   0  0  0  0  0  0  0  0  0  0  0  0
   -4.2229    0.7883    1.7390 H   0  0  0  0  0  0  0  0  0  0  0  0
   -3.4673    1.7306   -0.1650 H   0  0  0  0  0  0  0  0  0  0  0  0
   -4.8389    1.1957   -1.7632 H   0  0  0  0  0  0  0  0  0  0  0  0
  2  1  1  6
  2  3  1  0
  3  4  1  0
  4  5  1  0
  5  6  1  0
  6  7  1  0
  7  8  1  0
  8  9  1  0
  9 10  1  0
 10 11  1  0
 10 12  1  0
 12 13  1  0
 13 14  1  0
  6 15  1  0
 15 16  1  0
 16 17  1  0
 17 18  1  0
 18 19  1  0
 15  2  1  0
 18  2  1  0
 14  5  1  0
 14  9  1  0
  1 20  1  0
  1 21  1  0
  1 22  1  0
  3 23  1  0
  3 24  1  0
  4 25  1  0
  4 26  1  0
  5 27  1  1
  6 28  1  6
  7 29  1  0
  7 30  1  0
  8 31  1  0
  8 32  1  0
  9 33  1  6
 10 34  1  1
 11 35  1  0
 12 36  1  0
 12 37  1  0
 13 38  1  0
 13 39  1  0
 14 40  1  1
 15 41  1  1
 16 42  1  0
 16 43  1  0
 17 44  1  0
 17 45  1  0
 18 46  1  1
 19 47  1  0
M  END
$$$$
[H]OC([H])([H])[C@@]1([H])O[C@@]([H])(n2c([H])nc3c(N([H])C([H])([H])c4c([H])c([H])c([H])c([H])c4[H])c([H])c([H])c([H])c32)[C@]([H])(O[H])[C@]1([H])O[H]
     RDKit          3D

 47 50  0  0  0  0  0  0  0  0999 V2000
   -7.0289   -0.1948    1.8842 O   0  0  0  0  0  0  0  0  0  0  0  0
   -5.6595    0.0607    1.9020 C   0  0  0  0  0  0  0  0  0  0  0  0
   -5.1731    0.3043    0.4662 C   0  0  1  0  0  0  0  0  0  0  0  0
   -3.8171    0.5496    0.5530 O   0  0  0  0  0  0  0  0  0  0  0  0
   -3.1747   -0.2397   -0.3801 C   0  0  2  0  0  0  0  0  0  0  0  0
   -3.9561   -1.5460   -0.2766 C   0  0  2  0  0  0  0  0  0  0  0  0
   -3.7074   -2.3917   -1.3384 O   0  0  0  0  0  0  0  0  0  0  0  0
   -5.3641   -0.9858   -0.2830 C   0  0  2  0  0  0  0  0  0  0  0  0
   -5.6710   -0.6596   -1.6024 O   0  0  0  0  0  0  0  0  0  0  0  0
   -1.7864   -0.4159   -0.0933 N   0  0  0  0  0  0  0  0  0  0  0  0
   -1.1543   -1.3184    0.6746 C   0  0  0  0  0  0  0  0  0  0  0  0
    0.1778   -1.0626    0.6205 N   0  0  0  0  0  0  0  0  0  0  0  0
    0.3952   -0.0107   -0.1712 C   0  0  0  0  0  0  0  0  0  0  0  0
    1.5581    0.6469   -0.5550 C   0  0  0  0  0  0  0  0  0  0  0  0
    2.8288    0.2197   -0.0863 N   0  0  0  0  0  0  0  0  0  0  0  0
    4.0049    0.9333   -0.5122 C   0  0  0  0  0  0  0  0  0  0  0  0
    5.2535    0.3696    0.0278 C   0  0  0  0  0  0  0  0  0  0  0  0
    5.3987   -0.9414    0.4128 C   0  0  0  0  0  0  0  0  0  0  0  0
    6.6001   -1.4046    0.9172 C   0  0  0  0  0  0  0  0  0  0  0  0
    7.6615   -0.5503    1.0366 C   0  0  0  0  0  0  0  0  0  0  0  0
    7.5577    0.7684    0.6628 C   0  0  0  0  0  0  0  0  0  0  0  0
    6.3611    1.2095    0.1657 C   0  0  0  0  0  0  0  0  0  0  0  0
    1.4479    1.7273   -1.4043 C   0  0  0  0  0  0  0  0  0  0  0  0
    0.2351    2.1635   -1.8737 C   0  0  0  0  0  0  0  0  0  0  0  0
   -0.8902    1.4894   -1.4730 C   0  0  0  0  0  0  0  0  0  0  0  0
   -0.8266    0.3990   -0.6210 C   0  0  0  0  0  0  0  0  0  0  0  0
   -7.3951   -0.0295    0.9778 H   0  0  0  0  0  0  0  0  0  0  0  0
   -5.0837   -0.7480    2.3786 H   0  0  0  0  0  0  0  0  0  0  0  0
   -5.4730    0.9786    2.5258 H   0  0  0  0  0  0  0  0  0  0  0  0
   -5.6734    1.1645    0.0187 H   0  0  0  0  0  0  0  0  0  0  0  0
   -3.3777    0.1606   -1.3839 H   0  0  0  0  0  0  0  0  0  0  0  0
   -3.7709   -2.0188    0.7147 H   0  0  0  0  0  0  0  0  0  0  0  0
   -3.3339   -3.2687   -1.0176 H   0  0  0  0  0  0  0  0  0  0  0  0
   -6.0968   -1.6603    0.1732 H   0  0  0  0  0  0  0  0  0  0  0  0
   -5.4727    0.3067   -1.7987 H   0  0  0  0  0  0  0  0  0  0  0  0
   -1.6345   -2.1065    1.2334 H   0  0  0  0  0  0  0  0  0  0  0  0
    2.9078   -0.5769    0.5437 H   0  0  0  0  0  0  0  0  0  0  0  0
    4.0125    0.9359   -1.6265 H   0  0  0  0  0  0  0  0  0  0  0  0
    3.9538    1.9976   -0.1767 H   0  0  0  0  0  0  0  0  0  0  0  0
    4.5886   -1.6409    0.3298 H   0  0  0  0  0  0  0  0  0  0  0  0
    6.6821   -2.4380    1.2104 H   0  0  0  0  0  0  0  0  0  0  0  0
    8.5842   -0.9545    1.4366 H   0  0  0  0  0  0  0  0  0  0  0  0
    8.4038    1.4310    0.7627 H   0  0  0  0  0  0  0  0  0  0  0  0
    6.2666    2.2547   -0.1345 H   0  0  0  0  0  0  0  0  0  0  0  0
    2.3583    2.2414   -1.7042 H   0  0  0  0  0  0  0  0  0  0  0  0
    0.1305    3.0241   -2.5520 H   0  0  0  0  0  0  0  0  0  0  0  0
   -1.8474    1.8272   -1.8384 H   0  0  0  0  0  0  0  0  0  0  0  0
  1  2  1  0
  2  3  1  0
  3  4  1  0
  4  5  1  0
  5  6  1  0
  6  7  1  0
  6  8  1  0
  8  9  1  0
  5 10  1  0
 10 11  1  0
 11 12  2  0
 12 13  1  0
 13 14  2  0
 14 15  1  0
 15 16  1  0
 16 17  1  0
 17 18  2  0
 18 19  1  0
 19 20  2  0
 20 21  1  0
 21 22  2  0
 14 23  1  0
 23 24  2  0
 24 25  1  0
 25 26  2  0
  8  3  1  0
 26 10  1  0
 26 13  1  0
 22 17  1  0
  1 27  1  0
  2 28  1  0
  2 29  1  0
  3 30  1  6
  5 31  1  6
  6 32  1  1
  7 33  1  0
  8 34  1  1
  9 35  1  0
 11 36  1  0
 15 37  1  0
 16 38  1  0
 16 39  1  0
 18 40  1  0
 19 41  1  0
 20 42  1  0
 21 43  1  0
 22 44  1  0
 23 45  1  0
 24 46  1  0
 25 47  1  0
M  END
$$$$
[H]OC(=O)C([H])([H])[C@@]([H])(C(=O)N([H])[C@@]([H])(C(=O)N1C([H])([H])C([H])([H])C([H])([H])[C@@]1([H])C(=O)N([H])[C@@]([H])(C(=O)N([H])[C@@]([H])(C([H])([H])C([H])(C([H])([H])[H])C([H])([H])[H])C([H])(C([H])([H])[H])C([H])([H])[H])C([H])([H])c1c([H])c([H])c(O[H])c([H])c1[H])C([H])([H])c1c([H])c([H])c([H])c([H])c1[H])N([H])C(=O)[C@@]([H])(N([H])C(=O)[C@@]([H])(N([H])C(=O)OC([H])([H])c1c([H])c([H])c([H])c([H])c1[H])C([H])([H])c1c([H])c([H])c([H])c([H])c1[H])C([H])([H])c1c([H])c([H])c([H])c([H])c1[H]
     RDKit          3D

152157  0  0  0  0  0  0  0  0999 V2000
  -12.6522   -3.5764    0.4493 C   0  0  0  0  0  0  0  0  0  0  0  0
  -12.9252   -2.1027    0.5329 C   0  0  0  0  0  0  0  0  0  0  0  0
  -14.0722   -1.7620   -0.3673 C   0  0  0  0  0  0  0  0  0  0  0  0
  -11.7279   -1.2471    0.4606 C   0  0  0  0  0  0  0  0  0  0  0  0
  -10.8667   -1.2931   -0.7296 C   0  0  2  0  0  0  0  0  0  0  0  0
   -9.7497   -0.3579   -0.4659 N   0  0  0  0  0  0  0  0  0  0  0  0
   -8.3920   -0.7091   -0.5706 C   0  0  0  0  0  0  0  0  0  0  0  0
   -8.0962   -1.8868   -0.9012 O   0  0  0  0  0  0  0  0  0  0  0  0
   -7.3280    0.2520   -0.3121 C   0  0  1  0  0  0  0  0  0  0  0  0
   -7.4098    0.8243    1.0642 C   0  0  0  0  0  0  0  0  0  0  0  0
   -7.3301   -0.1289    2.1704 C   0  0  0  0  0  0  0  0  0  0  0  0
   -6.1414   -0.6314    2.6615 C   0  0  0  0  0  0  0  0  0  0  0  0
   -6.0681   -1.5027    3.7222 C   0  0  0  0  0  0  0  0  0  0  0  0
   -7.2355   -1.9024    4.3380 C   0  0  0  0  0  0  0  0  0  0  0  0
   -7.2427   -2.7882    5.4224 O   0  0  0  0  0  0  0  0  0  0  0  0
   -8.4591   -1.4285    3.8878 C   0  0  0  0  0  0  0  0  0  0  0  0
   -8.4760   -0.5494    2.8116 C   0  0  0  0  0  0  0  0  0  0  0  0
   -5.9988   -0.2762   -0.5954 N   0  0  0  0  0  0  0  0  0  0  0  0
   -5.2031    0.2516   -1.6290 C   0  0  0  0  0  0  0  0  0  0  0  0
   -5.7603    1.2093   -2.3008 O   0  0  0  0  0  0  0  0  0  0  0  0
   -3.8605   -0.1214   -2.0377 C   0  0  2  0  0  0  0  0  0  0  0  0
   -3.9655   -1.0059   -3.2889 C   0  0  0  0  0  0  0  0  0  0  0  0
   -3.8475   -2.3964   -2.7737 C   0  0  0  0  0  0  0  0  0  0  0  0
   -3.2263   -2.2763   -1.4242 C   0  0  0  0  0  0  0  0  0  0  0  0
   -3.0417   -0.8535   -1.1427 N   0  0  0  0  0  0  0  0  0  0  0  0
   -2.1535   -0.3878   -0.1516 C   0  0  0  0  0  0  0  0  0  0  0  0
   -1.4658   -1.1841    0.5788 O   0  0  0  0  0  0  0  0  0  0  0  0
   -1.9189    1.0761    0.1499 C   0  0  1  0  0  0  0  0  0  0  0  0
   -2.8383    1.4700    1.2575 C   0  0  0  0  0  0  0  0  0  0  0  0
   -2.7736    2.8646    1.6762 C   0  0  0  0  0  0  0  0  0  0  0  0
   -3.6118    3.7729    1.0086 C   0  0  0  0  0  0  0  0  0  0  0  0
   -3.6321    5.0908    1.3742 C   0  0  0  0  0  0  0  0  0  0  0  0
   -2.8175    5.5179    2.4110 C   0  0  0  0  0  0  0  0  0  0  0  0
   -1.9773    4.6511    3.0913 C   0  0  0  0  0  0  0  0  0  0  0  0
   -1.9825    3.3344    2.6950 C   0  0  0  0  0  0  0  0  0  0  0  0
   -0.5385    1.2542    0.5820 N   0  0  0  0  0  0  0  0  0  0  0  0
    0.5501    1.5004   -0.2806 C   0  0  0  0  0  0  0  0  0  0  0  0
    0.3109    1.5482   -1.5048 O   0  0  0  0  0  0  0  0  0  0  0  0
    1.8749    1.6768    0.2943 C   0  0  2  0  0  0  0  0  0  0  0  0
    1.9827    3.0647    0.9431 C   0  0  0  0  0  0  0  0  0  0  0  0
    1.7756    4.1566   -0.0215 C   0  0  0  0  0  0  0  0  0  0  0  0
    1.8215    5.4958    0.4121 O   0  0  0  0  0  0  0  0  0  0  0  0
    1.5515    4.0115   -1.2376 O   0  0  0  0  0  0  0  0  0  0  0  0
    2.9966    1.5932   -0.6056 N   0  0  0  0  0  0  0  0  0  0  0  0
    4.1464    0.8118   -0.2938 C   0  0  0  0  0  0  0  0  0  0  0  0
    4.0858    0.2061    0.8471 O   0  0  0  0  0  0  0  0  0  0  0  0
    5.3070    0.6889   -1.1641 C   0  0  2  0  0  0  0  0  0  0  0  0
    4.8555    0.0307   -2.4735 C   0  0  0  0  0  0  0  0  0  0  0  0
    6.0273   -0.1275   -3.3838 C   0  0  0  0  0  0  0  0  0  0  0  0
    6.4295    0.8701   -4.2457 C   0  0  0  0  0  0  0  0  0  0  0  0
    7.5303    0.7020   -5.0789 C   0  0  0  0  0  0  0  0  0  0  0  0
    8.2567   -0.4690   -5.0738 C   0  0  0  0  0  0  0  0  0  0  0  0
    7.8532   -1.4810   -4.2047 C   0  0  0  0  0  0  0  0  0  0  0  0
    6.7610   -1.2930   -3.3883 C   0  0  0  0  0  0  0  0  0  0  0  0
    6.2955   -0.1438   -0.5101 N   0  0  0  0  0  0  0  0  0  0  0  0
    7.6408    0.2444   -0.2683 C   0  0  0  0  0  0  0  0  0  0  0  0
    8.0533    1.3736   -0.6275 O   0  0  0  0  0  0  0  0  0  0  0  0
    8.5853   -0.7086    0.4281 C   0  0  2  0  0  0  0  0  0  0  0  0
    7.9327   -0.9594    1.7879 C   0  0  0  0  0  0  0  0  0  0  0  0
    8.6793   -1.8624    2.6514 C   0  0  0  0  0  0  0  0  0  0  0  0
    8.4799   -3.2161    2.5449 C   0  0  0  0  0  0  0  0  0  0  0  0
    9.1573   -4.0860    3.3698 C   0  0  0  0  0  0  0  0  0  0  0  0
   10.0465   -3.5912    4.3127 C   0  0  0  0  0  0  0  0  0  0  0  0
   10.2454   -2.2164    4.4173 C   0  0  0  0  0  0  0  0  0  0  0  0
    9.5593   -1.3753    3.5856 C   0  0  0  0  0  0  0  0  0  0  0  0
    9.8610   -0.0883    0.5122 N   0  0  0  0  0  0  0  0  0  0  0  0
   11.0303   -0.5988   -0.1407 C   0  0  0  0  0  0  0  0  0  0  0  0
   10.8823   -1.6509   -0.8177 O   0  0  0  0  0  0  0  0  0  0  0  0
   12.2750   -0.0372   -0.0853 O   0  0  0  0  0  0  0  0  0  0  0  0
   13.4078   -0.5808   -0.7594 C   0  0  0  0  0  0  0  0  0  0  0  0
   14.5753    0.2879   -0.4555 C   0  0  0  0  0  0  0  0  0  0  0  0
   15.7069    0.2704   -1.2745 C   0  0  0  0  0  0  0  0  0  0  0  0
   16.8153    1.0409   -1.0144 C   0  0  0  0  0  0  0  0  0  0  0  0
   16.8362    1.8771    0.0949 C   0  0  0  0  0  0  0  0  0  0  0  0
   15.7360    1.9099    0.9080 C   0  0  0  0  0  0  0  0  0  0  0  0
   14.6186    1.1228    0.6352 C   0  0  0  0  0  0  0  0  0  0  0  0
  -11.4843   -0.7420   -1.9993 C   0  0  0  0  0  0  0  0  0  0  0  0
  -10.4196   -0.9308   -3.0968 C   0  0  0  0  0  0  0  0  0  0  0  0
  -11.7123    0.7525   -1.9492 C   0  0  0  0  0  0  0  0  0  0  0  0
  -12.6232   -4.0554    1.4704 H   0  0  0  0  0  0  0  0  0  0  0  0
  -11.6720   -3.8133   -0.0062 H   0  0  0  0  0  0  0  0  0  0  0  0
  -13.4231   -4.1312   -0.1121 H   0  0  0  0  0  0  0  0  0  0  0  0
  -13.3465   -1.9527    1.5850 H   0  0  0  0  0  0  0  0  0  0  0  0
  -14.1230   -0.6809   -0.5924 H   0  0  0  0  0  0  0  0  0  0  0  0
  -15.0602   -1.9605    0.1613 H   0  0  0  0  0  0  0  0  0  0  0  0
  -14.1372   -2.4176   -1.2635 H   0  0  0  0  0  0  0  0  0  0  0  0
  -12.0584   -0.1858    0.6090 H   0  0  0  0  0  0  0  0  0  0  0  0
  -11.0731   -1.4645    1.3496 H   0  0  0  0  0  0  0  0  0  0  0  0
  -10.3888   -2.2504   -0.9754 H   0  0  0  0  0  0  0  0  0  0  0  0
   -9.9874    0.6185   -0.1871 H   0  0  0  0  0  0  0  0  0  0  0  0
   -7.4135    1.1505   -1.0075 H   0  0  0  0  0  0  0  0  0  0  0  0
   -8.4019    1.3609    1.1192 H   0  0  0  0  0  0  0  0  0  0  0  0
   -6.6695    1.6726    1.2005 H   0  0  0  0  0  0  0  0  0  0  0  0
   -5.1891   -0.3491    2.2107 H   0  0  0  0  0  0  0  0  0  0  0  0
   -5.1139   -1.8926    4.0955 H   0  0  0  0  0  0  0  0  0  0  0  0
   -7.3089   -3.7896    5.2538 H   0  0  0  0  0  0  0  0  0  0  0  0
   -9.3893   -1.7412    4.3741 H   0  0  0  0  0  0  0  0  0  0  0  0
   -9.4674   -0.1893    2.5122 H   0  0  0  0  0  0  0  0  0  0  0  0
   -5.6202   -1.0694   -0.0287 H   0  0  0  0  0  0  0  0  0  0  0  0
   -3.2996    0.7769   -2.3831 H   0  0  0  0  0  0  0  0  0  0  0  0
   -4.9563   -0.8664   -3.7817 H   0  0  0  0  0  0  0  0  0  0  0  0
   -3.1915   -0.7444   -4.0185 H   0  0  0  0  0  0  0  0  0  0  0  0
   -4.8175   -2.9350   -2.7611 H   0  0  0  0  0  0  0  0  0  0  0  0
   -3.1168   -2.9290   -3.4497 H   0  0  0  0  0  0  0  0  0  0  0  0
   -2.1719   -2.6881   -1.4556 H   0  0  0  0  0  0  0  0  0  0  0  0
   -3.7920   -2.7848   -0.6139 H   0  0  0  0  0  0  0  0  0  0  0  0
   -2.0977    1.6113   -0.7562 H   0  0  0  0  0  0  0  0  0  0  0  0
   -2.7072    0.8099    2.1631 H   0  0  0  0  0  0  0  0  0  0  0  0
   -3.8932    1.2548    0.9429 H   0  0  0  0  0  0  0  0  0  0  0  0
   -4.2409    3.4375    0.2001 H   0  0  0  0  0  0  0  0  0  0  0  0
   -4.2824    5.8222    0.8653 H   0  0  0  0  0  0  0  0  0  0  0  0
   -2.8082    6.5573    2.7335 H   0  0  0  0  0  0  0  0  0  0  0  0
   -1.3472    4.9824    3.9027 H   0  0  0  0  0  0  0  0  0  0  0  0
   -1.3087    2.6564    3.2470 H   0  0  0  0  0  0  0  0  0  0  0  0
   -0.3684    1.1805    1.6052 H   0  0  0  0  0  0  0  0  0  0  0  0
    2.0391    0.9776    1.1829 H   0  0  0  0  0  0  0  0  0  0  0  0
    1.2713    3.1608    1.7970 H   0  0  0  0  0  0  0  0  0  0  0  0
    2.9955    3.1530    1.4091 H   0  0  0  0  0  0  0  0  0  0  0  0
    0.9579    6.0252    0.2791 H   0  0  0  0  0  0  0  0  0  0  0  0
    2.9786    2.1042   -1.4985 H   0  0  0  0  0  0  0  0  0  0  0  0
    5.7207    1.6621   -1.4650 H   0  0  0  0  0  0  0  0  0  0  0  0
    4.1354    0.7186   -2.9474 H   0  0  0  0  0  0  0  0  0  0  0  0
    4.4186   -0.9444   -2.2640 H   0  0  0  0  0  0  0  0  0  0  0  0
    5.8729    1.7879   -4.2609 H   0  0  0  0  0  0  0  0  0  0  0  0
    7.8322    1.5123   -5.7557 H   0  0  0  0  0  0  0  0  0  0  0  0
    9.1111   -0.6204   -5.7105 H   0  0  0  0  0  0  0  0  0  0  0  0
    8.4306   -2.3917   -4.2069 H   0  0  0  0  0  0  0  0  0  0  0  0
    6.4676   -2.0877   -2.7273 H   0  0  0  0  0  0  0  0  0  0  0  0
    5.9873   -1.0836   -0.2069 H   0  0  0  0  0  0  0  0  0  0  0  0
    8.5652   -1.6241   -0.1867 H   0  0  0  0  0  0  0  0  0  0  0  0
    7.7818    0.0437    2.2903 H   0  0  0  0  0  0  0  0  0  0  0  0
    6.8962   -1.2998    1.5823 H   0  0  0  0  0  0  0  0  0  0  0  0
    7.7945   -3.5853    1.8071 H   0  0  0  0  0  0  0  0  0  0  0  0
    8.9934   -5.1465    3.2806 H   0  0  0  0  0  0  0  0  0  0  0  0
   10.5975   -4.2587    4.9800 H   0  0  0  0  0  0  0  0  0  0  0  0
   10.9475   -1.8721    5.1698 H   0  0  0  0  0  0  0  0  0  0  0  0
    9.7256   -0.3167    3.6717 H   0  0  0  0  0  0  0  0  0  0  0  0
   10.0121    0.7840    1.0593 H   0  0  0  0  0  0  0  0  0  0  0  0
   13.5901   -1.6291   -0.4249 H   0  0  0  0  0  0  0  0  0  0  0  0
   13.2588   -0.5401   -1.8503 H   0  0  0  0  0  0  0  0  0  0  0  0
   15.7319   -0.3521   -2.1414 H   0  0  0  0  0  0  0  0  0  0  0  0
   17.7030    1.0427   -1.6409 H   0  0  0  0  0  0  0  0  0  0  0  0
   17.6828    2.4965    0.3366 H   0  0  0  0  0  0  0  0  0  0  0  0
   15.6874    2.5413    1.7922 H   0  0  0  0  0  0  0  0  0  0  0  0
   13.7509    1.1671    1.2963 H   0  0  0  0  0  0  0  0  0  0  0  0
  -12.3794   -1.2385   -2.3430 H   0  0  0  0  0  0  0  0  0  0  0  0
  -10.8342   -0.6670   -4.0960 H   0  0  0  0  0  0  0  0  0  0  0  0
   -9.5825   -0.2345   -2.9080 H   0  0  0  0  0  0  0  0  0  0  0  0
  -10.0397   -1.9560   -3.0301 H   0  0  0  0  0  0  0  0  0  0  0  0
  -11.8090    1.1668   -0.9453 H   0  0  0  0  0  0  0  0  0  0  0  0
  -12.6484    1.0369   -2.5003 H   0  0  0  0  0  0  0  0  0  0  0  0
  -10.9118    1.3309   -2.4769 H   0  0  0  0  0  0  0  0  0  0  0  0
  1  2  1  0
  2  3  1  0
  2  4  1  0
  4  5  1  0
  5  6  1  0
  6  7  1  0
  7  8  2  0
  7  9  1  0
  9 10  1  0
 10 11  1  0
 11 12  2  0
 12 13  1  0
 13 14  2  0
 14 15  1  0
 14 16  1  0
 16 17  2  0
  9 18  1  0
 18 19  1  0
 19 20  2  0
 19 21  1  0
 21 22  1  0
 22 23  1  0
 23 24  1  0
 24 25  1  0
 25 26  1  0
 26 27  2  0
 26 28  1  0
 28 29  1  0
 29 30  1  0
 30 31  2  0
 31 32  1  0
 32 33  2  0
 33 34  1  0
 34 35  2  0
 28 36  1  0
 36 37  1  0
 37 38  2  0
 37 39  1  0
 39 40  1  0
 40 41  1  0
 41 42  1  0
 41 43  2  0
 39 44  1  0
 44 45  1  0
 45 46  2  0
 45 47  1  0
 47 48  1  0
 48 49  1  0
 49 50  2  0
 50 51  1  0
 51 52  2  0
 52 53  1  0
 53 54  2  0
 47 55  1  0
 55 56  1  0
 56 57  2  0
 56 58  1  0
 58 59  1  0
 59 60  1  0
 60 61  2  0
 61 62  1  0
 62 63  2  0
 63 64  1  0
 64 65  2  0
 58 66  1  0
 66 67  1  0
 67 68  2  0
 67 69  1  0
 69 70  1  0
 70 71  1  0
 71 72  2  0
 72 73  1  0
 73 74  2  0
 74 75  1  0
 75 76  2  0
  5 77  1  0
 77 78  1  0
 77 79  1  0
 17 11  1  0
 25 21  1  0
 35 30  1  0
 54 49  1  0
 65 60  1  0
 76 71  1  0
  1 80  1  0
  1 81  1  0
  1 82  1  0
  2 83  1  0
  3 84  1  0
  3 85  1  0
  3 86  1  0
  4 87  1  0
  4 88  1  0
  5 89  1  6
  6 90  1  0
  9 91  1  6
 10 92  1  0
 10 93  1  0
 12 94  1  0
 13 95  1  0
 15 96  1  0
 16 97  1  0
 17 98  1  0
 18 99  1  0
 21100  1  6
 22101  1  0
 22102  1  0
 23103  1  0
 23104  1  0
 24105  1  0
 24106  1  0
 28107  1  6
 29108  1  0
 29109  1  0
 31110  1  0
 32111  1  0
 33112  1  0
 34113  1  0
 35114  1  0
 36115  1  0
 39116  1  1
 40117  1  0
 40118  1  0
 42119  1  0
 44120  1  0
 47121  1  6
 48122  1  0
 48123  1  0
 50124  1  0
 51125  1  0
 52126  1  0
 53127  1  0
 54128  1  0
 55129  1  0
 58130  1  6
 59131  1  0
 59132  1  0
 61133  1  0
 62134  1  0
 63135  1  0
 64136  1  0
 65137  1  0
 66138  1  0
 70139  1  0
 70140  1  0
 72141  1  0
 73142  1  0
 74143  1  0
 75144  1  0
 76145  1  0
 77146  1  0
 78147  1  0
 78148  1  0
 78149  1  0
 79150  1  0
 79151  1  0
 79152  1  0
M  END
$$$$
[H]c1nc(N([H])[H])c(C(=O)N([H])c2c([H])c([H])c(C3(N4C([H])([H])C([H])([H])OC([H])([H])C4([H])[H])C([H])([H])C3([H])[H])c([H])c2[H])nc1-c1c([H])nn(C([H])([H])[H])c1[H]
     RDKit          3D

 56 60  0  0  0  0  0  0  0  0999 V2000
    9.6065    0.0831    1.6901 C   0  0  0  0  0  0  0  0  0  0  0  0
    8.2252   -0.0747    1.2563 N   0  0  0  0  0  0  0  0  0  0  0  0
    7.6230    0.5178    0.1890 C   0  0  0  0  0  0  0  0  0  0  0  0
    6.2876    0.1135    0.1353 C   0  0  0  0  0  0  0  0  0  0  0  0
    6.1329   -0.7367    1.2110 C   0  0  0  0  0  0  0  0  0  0  0  0
    7.3186   -0.8204    1.8520 N   0  0  0  0  0  0  0  0  0  0  0  0
    5.3591    0.5461   -0.8820 C   0  0  0  0  0  0  0  0  0  0  0  0
    5.7730    1.2242   -2.0175 C   0  0  0  0  0  0  0  0  0  0  0  0
    4.9585    1.6434   -2.9789 N   0  0  0  0  0  0  0  0  0  0  0  0
    3.6191    1.3963   -2.8464 C   0  0  0  0  0  0  0  0  0  0  0  0
    2.7622    1.8613   -3.8989 N   0  0  0  0  0  0  0  0  0  0  0  0
    3.1885    0.7348   -1.7397 C   0  0  0  0  0  0  0  0  0  0  0  0
    4.0434    0.3107   -0.7700 N   0  0  0  0  0  0  0  0  0  0  0  0
    1.7331    0.5817   -1.4997 C   0  0  0  0  0  0  0  0  0  0  0  0
    0.9629    1.0525   -2.3555 O   0  0  0  0  0  0  0  0  0  0  0  0
    1.3065   -0.0753   -0.3103 N   0  0  0  0  0  0  0  0  0  0  0  0
   -0.0820   -0.2214    0.0441 C   0  0  0  0  0  0  0  0  0  0  0  0
   -1.0159    0.7627   -0.2717 C   0  0  0  0  0  0  0  0  0  0  0  0
   -2.3494    0.6546    0.0901 C   0  0  0  0  0  0  0  0  0  0  0  0
   -2.7615   -0.4366    0.7763 C   0  0  0  0  0  0  0  0  0  0  0  0
   -1.8749   -1.4300    1.1032 C   0  0  0  0  0  0  0  0  0  0  0  0
   -0.5306   -1.3127    0.7320 C   0  0  0  0  0  0  0  0  0  0  0  0
   -4.1846   -0.4832    1.2381 C   0  0  0  0  0  0  0  0  0  0  0  0
   -4.4234   -0.7496    2.7101 C   0  0  0  0  0  0  0  0  0  0  0  0
   -4.4521    0.6370    2.2580 C   0  0  0  0  0  0  0  0  0  0  0  0
   -5.2194   -0.8234    0.3309 N   0  0  0  0  0  0  0  0  0  0  0  0
   -5.2727    0.1406   -0.7557 C   0  0  0  0  0  0  0  0  0  0  0  0
   -6.4312   -0.0422   -1.6722 C   0  0  0  0  0  0  0  0  0  0  0  0
   -7.4348   -0.8892   -1.1363 O   0  0  0  0  0  0  0  0  0  0  0  0
   -7.6545   -0.4068    0.1330 C   0  0  0  0  0  0  0  0  0  0  0  0
   -6.5040   -0.9334    0.9956 C   0  0  0  0  0  0  0  0  0  0  0  0
    9.8885   -0.7650    2.3326 H   0  0  0  0  0  0  0  0  0  0  0  0
    9.6744    1.0073    2.3404 H   0  0  0  0  0  0  0  0  0  0  0  0
   10.2802    0.1916    0.8017 H   0  0  0  0  0  0  0  0  0  0  0  0
    8.1136    1.1922   -0.4910 H   0  0  0  0  0  0  0  0  0  0  0  0
    5.1876   -1.2396    1.4460 H   0  0  0  0  0  0  0  0  0  0  0  0
    6.8434    1.3997   -2.0677 H   0  0  0  0  0  0  0  0  0  0  0  0
    2.7271    1.4066   -4.8448 H   0  0  0  0  0  0  0  0  0  0  0  0
    2.1606    2.7036   -3.6481 H   0  0  0  0  0  0  0  0  0  0  0  0
    2.0696   -0.4465    0.3205 H   0  0  0  0  0  0  0  0  0  0  0  0
   -0.6621    1.6525   -0.8090 H   0  0  0  0  0  0  0  0  0  0  0  0
   -2.9660    1.4951   -0.2165 H   0  0  0  0  0  0  0  0  0  0  0  0
   -2.1868   -2.3335    1.6504 H   0  0  0  0  0  0  0  0  0  0  0  0
    0.1722   -2.1214    0.9951 H   0  0  0  0  0  0  0  0  0  0  0  0
   -5.2863   -1.3447    3.0491 H   0  0  0  0  0  0  0  0  0  0  0  0
   -3.5029   -1.0540    3.3114 H   0  0  0  0  0  0  0  0  0  0  0  0
   -3.5946    1.2937    2.5522 H   0  0  0  0  0  0  0  0  0  0  0  0
   -5.3812    1.2351    2.0855 H   0  0  0  0  0  0  0  0  0  0  0  0
   -5.3200    1.1567   -0.3368 H   0  0  0  0  0  0  0  0  0  0  0  0
   -4.3597   -0.0437   -1.3952 H   0  0  0  0  0  0  0  0  0  0  0  0
   -6.9801    0.9190   -1.8962 H   0  0  0  0  0  0  0  0  0  0  0  0
   -6.1616   -0.4995   -2.6603 H   0  0  0  0  0  0  0  0  0  0  0  0
   -8.6141   -0.6428    0.5850 H   0  0  0  0  0  0  0  0  0  0  0  0
   -7.4953    0.7081    0.1379 H   0  0  0  0  0  0  0  0  0  0  0  0
   -6.7293   -1.9992    1.2137 H   0  0  0  0  0  0  0  0  0  0  0  0
   -6.5863   -0.3692    1.9339 H   0  0  0  0  0  0  0  0  0  0  0  0
  1  2  1  0
  2  3  1  0
  3  4  2  0
  4  5  1  0
  5  6  2  0
  4  7  1  0
  7  8  2  0
  8  9  1  0
  9 10  2  0
 10 11  1  0
 10 12  1  0
 12 13  2  0
 12 14  1  0
 14 15  2  0
 14 16  1  0
 16 17  1  0
 17 18  2  0
 18 19  1  0
 19 20  2  0
 20 21  1  0
 21 22  2  0
 20 23  1  0
 23 24  1  0
 24 25  1  0
 23 26  1  0
 26 27  1  0
 27 28  1  0
 28 29  1  0
 29 30  1  0
 30 31  1  0
  6  2  1  0
 13  7  1  0
 22 17  1  0
 25 23  1  0
 31 26  1  0
  1 32  1  0
  1 33  1  0
  1 34  1  0
  3 35  1  0
  5 36  1  0
  8 37  1  0
 11 38  1  0
 11 39  1  0
 16 40  1  0
 18 41  1  0
 19 42  1  0
 21 43  1  0
 22 44  1  0
 24 45  1  0
 24 46  1  0
 25 47  1  0
 25 48  1  0
 27 49  1  0
 27 50  1  0
 28 51  1  0
 28 52  1  0
 30 53  1  0
 30 54  1  0
 31 55  1  0
 31 56  1  0
M  END
$$$$
[H]c1c([H])c(C(=O)N2C([H])([H])C([H])([H])N(S(=O)(=O)c3c([H])c([H])c(C([H])([H])[H])c([H])c3[H])C([H])([H])[C@@]2([H])C([H])([H])[H])c([H])c([H])c1Cl
     RDKit          3D

 47 49  0  0  0  0  0  0  0  0999 V2000
   -0.7422    2.5093    1.3786 C   0  0  0  0  0  0  0  0  0  0  0  0
   -0.6814    1.0486    1.3480 C   0  0  2  0  0  0  0  0  0  0  0  0
    0.4183    0.4752    0.4817 C   0  0  0  0  0  0  0  0  0  0  0  0
    0.6202   -0.8771    0.8869 N   0  0  0  0  0  0  0  0  0  0  0  0
   -0.4123   -1.4117    1.6993 C   0  0  0  0  0  0  0  0  0  0  0  0
   -1.8264   -1.0527    1.2649 C   0  0  0  0  0  0  0  0  0  0  0  0
   -1.9016    0.3407    0.8750 N   0  0  0  0  0  0  0  0  0  0  0  0
   -2.8637    0.9823    0.1185 C   0  0  0  0  0  0  0  0  0  0  0  0
   -2.6467    2.2252   -0.2302 O   0  0  0  0  0  0  0  0  0  0  0  0
   -4.1164    0.4697   -0.3649 C   0  0  0  0  0  0  0  0  0  0  0  0
   -4.6957   -0.7043    0.0136 C   0  0  0  0  0  0  0  0  0  0  0  0
   -5.8967   -1.1916   -0.5273 C   0  0  0  0  0  0  0  0  0  0  0  0
   -6.5217   -0.4562   -1.4799 C   0  0  0  0  0  0  0  0  0  0  0  0
   -8.0181   -1.0467   -2.1652 Cl  0  0  0  0  0  0  0  0  0  0  0  0
   -5.9790    0.7375   -1.8959 C   0  0  0  0  0  0  0  0  0  0  0  0
   -4.8059    1.2000   -1.3595 C   0  0  0  0  0  0  0  0  0  0  0  0
    2.1877   -1.0897    1.5287 S   0  0  0  0  0  0  0  0  0  0  0  0
    2.4385   -0.1925    2.7217 O   0  0  0  0  0  0  0  0  0  0  0  0
    2.3183   -2.5086    2.0592 O   0  0  0  0  0  0  0  0  0  0  0  0
    3.4416   -0.7468    0.3672 C   0  0  0  0  0  0  0  0  0  0  0  0
    3.8893   -1.7458   -0.4681 C   0  0  0  0  0  0  0  0  0  0  0  0
    4.8798   -1.4484   -1.3709 C   0  0  0  0  0  0  0  0  0  0  0  0
    5.4215   -0.1865   -1.4503 C   0  0  0  0  0  0  0  0  0  0  0  0
    6.4965    0.1489   -2.4255 C   0  0  0  0  0  0  0  0  0  0  0  0
    4.9559    0.8142   -0.5960 C   0  0  0  0  0  0  0  0  0  0  0  0
    3.9667    0.5198    0.3068 C   0  0  0  0  0  0  0  0  0  0  0  0
   -0.5167    3.0638    0.4563 H   0  0  0  0  0  0  0  0  0  0  0  0
    0.0648    2.8450    2.1234 H   0  0  0  0  0  0  0  0  0  0  0  0
   -1.6666    2.8912    1.8397 H   0  0  0  0  0  0  0  0  0  0  0  0
   -0.5708    0.6880    2.4186 H   0  0  0  0  0  0  0  0  0  0  0  0
    1.3142    1.1045    0.4580 H   0  0  0  0  0  0  0  0  0  0  0  0
    0.0585    0.4288   -0.5900 H   0  0  0  0  0  0  0  0  0  0  0  0
   -0.3711   -2.5441    1.5926 H   0  0  0  0  0  0  0  0  0  0  0  0
   -0.2314   -1.2368    2.7584 H   0  0  0  0  0  0  0  0  0  0  0  0
   -2.4417   -1.1847    2.1698 H   0  0  0  0  0  0  0  0  0  0  0  0
   -2.0934   -1.7362    0.4347 H   0  0  0  0  0  0  0  0  0  0  0  0
   -4.2615   -1.3072    0.7904 H   0  0  0  0  0  0  0  0  0  0  0  0
   -6.2798   -2.1392   -0.1625 H   0  0  0  0  0  0  0  0  0  0  0  0
   -6.5070    1.3043   -2.6627 H   0  0  0  0  0  0  0  0  0  0  0  0
   -4.4007    2.1402   -1.7055 H   0  0  0  0  0  0  0  0  0  0  0  0
    3.4801   -2.7607   -0.4313 H   0  0  0  0  0  0  0  0  0  0  0  0
    5.2588   -2.2157   -2.0485 H   0  0  0  0  0  0  0  0  0  0  0  0
    7.0852   -0.7809   -2.5709 H   0  0  0  0  0  0  0  0  0  0  0  0
    7.1100    0.9506   -1.9612 H   0  0  0  0  0  0  0  0  0  0  0  0
    6.0441    0.5226   -3.3561 H   0  0  0  0  0  0  0  0  0  0  0  0
    5.3629    1.8152   -0.6357 H   0  0  0  0  0  0  0  0  0  0  0  0
    3.6359    1.3381    0.9576 H   0  0  0  0  0  0  0  0  0  0  0  0
  1  2  1  0
  2  3  1  0
  3  4  1  0
  4  5  1  0
  5  6  1  0
  6  7  1  0
  7  8  1  0
  8  9  2  0
  8 10  1  0
 10 11  2  0
 11 12  1  0
 12 13  2  0
 13 14  1  0
 13 15  1  0
 15 16  2  0
  4 17  1  0
 17 18  2  0
 17 19  2  0
 17 20  1  0
 20 21  2  0
 21 22  1  0
 22 23  2  0
 23 24  1  0
 23 25  1  0
 25 26  2  0
  7  2  1  0
 16 10  1  0
 26 20  1  0
  1 27  1  0
  1 28  1  0
  1 29  1  0
  2 30  1  1
  3 31  1  0
  3 32  1  0
  5 33  1  0
  5 34  1  0
  6 35  1  0
  6 36  1  0
 11 37  1  0
 12 38  1  0
 15 39  1  0
 16 40  1  0
 21 41  1  0
 22 42  1  0
 24 43  1  0
 24 44  1  0
 24 45  1  0
 25 46  1  0
 26 47  1  0
M  END
$$$$
[H][C](N([H])C(=O)[C@@]([H])(N([H])C(=O)[C@@]([H])(N([H])C(=O)[C@@]([H])(N([H])C(=O)[C@@]([H])(N([H])C(=O)[C@@]([H])(N([H])C(=O)[C@@]([H])(N([H])C(=O)[C@@]([H])(N([H])C(=O)[C@@]([H])(N([H])C(=O)[C@]([H])(N([H])C(=O)[C@@]([H])(N([H])C(=O)C([H])(C([H])([H])[H])C([H])([H])[H])C([H])([H])[H])C([H])([H])[H])C([H])([H])[H])C([H])([H])[H])C([H])([H])[H])C([H])([H])[H])C([H])([H])c1c([H])c([H])c([H])c([H])c1[H])C([H])([H])[H])C([H])([H])c1c([H])c([H])c([H])c([H])c1[H])C([H])([H])[H])C([H])(C([H])([H])[H])C([H])([H])[H]
     RDKit          3D

146147  0  0  0  0  0  0  0  0999 V2000
  -15.7519   -5.6542   -3.3163 C   0  0  0  0  0  0  0  0  0  0  0  0
  -14.5281   -4.7984   -3.5069 C   0  0  0  0  0  0  0  0  0  0  0  0
  -14.9100   -3.6192   -4.4260 C   0  0  0  0  0  0  0  0  0  0  0  0
  -14.0172   -4.2466   -2.1873 C   0  0  0  0  0  3  0  0  0  0  0  0
  -12.7270   -3.6348   -2.3299 N   0  0  0  0  0  0  0  0  0  0  0  0
  -11.5204   -4.0762   -1.7474 C   0  0  0  0  0  0  0  0  0  0  0  0
  -11.4999   -5.0925   -1.0326 O   0  0  0  0  0  0  0  0  0  0  0  0
  -10.3001   -3.3027   -2.0080 C   0  0  2  0  0  0  0  0  0  0  0  0
  -10.0116   -3.2930   -3.5289 C   0  0  0  0  0  0  0  0  0  0  0  0
   -9.1260   -3.7975   -1.3072 N   0  0  0  0  0  0  0  0  0  0  0  0
   -8.1776   -2.8638   -0.8234 C   0  0  0  0  0  0  0  0  0  0  0  0
   -8.4311   -1.6368   -1.0383 O   0  0  0  0  0  0  0  0  0  0  0  0
   -6.9269   -3.1626   -0.1024 C   0  0  2  0  0  0  0  0  0  0  0  0
   -7.2271   -2.9181    1.4056 C   0  0  0  0  0  0  0  0  0  0  0  0
   -8.3193   -3.8034    1.8739 C   0  0  0  0  0  0  0  0  0  0  0  0
   -9.6447   -3.3864    1.8875 C   0  0  0  0  0  0  0  0  0  0  0  0
  -10.6709   -4.2092    2.3101 C   0  0  0  0  0  0  0  0  0  0  0  0
  -10.3998   -5.5111    2.7457 C   0  0  0  0  0  0  0  0  0  0  0  0
   -9.0972   -5.9453    2.7428 C   0  0  0  0  0  0  0  0  0  0  0  0
   -8.0890   -5.0820    2.3069 C   0  0  0  0  0  0  0  0  0  0  0  0
   -5.9566   -2.1996   -0.5394 N   0  0  0  0  0  0  0  0  0  0  0  0
   -4.5466   -2.2740   -0.5051 C   0  0  0  0  0  0  0  0  0  0  0  0
   -4.0196   -3.2853    0.0038 O   0  0  0  0  0  0  0  0  0  0  0  0
   -3.7097   -1.2067   -1.0481 C   0  0  2  0  0  0  0  0  0  0  0  0
   -3.0982   -1.6743   -2.4048 C   0  0  0  0  0  0  0  0  0  0  0  0
   -2.5692   -0.7698   -0.2877 N   0  0  0  0  0  0  0  0  0  0  0  0
   -2.1944    0.5977   -0.2965 C   0  0  0  0  0  0  0  0  0  0  0  0
   -2.9790    1.3190   -1.0489 O   0  0  0  0  0  0  0  0  0  0  0  0
   -1.0861    1.2759    0.3939 C   0  0  2  0  0  0  0  0  0  0  0  0
   -1.3440    1.5369    1.8564 C   0  0  0  0  0  0  0  0  0  0  0  0
   -1.5771    0.3669    2.6960 C   0  0  0  0  0  0  0  0  0  0  0  0
   -2.8280   -0.1516    2.9471 C   0  0  0  0  0  0  0  0  0  0  0  0
   -3.0294   -1.2408    3.7708 C   0  0  0  0  0  0  0  0  0  0  0  0
   -1.9312   -1.8548    4.3843 C   0  0  0  0  0  0  0  0  0  0  0  0
   -0.6725   -1.3503    4.1443 C   0  0  0  0  0  0  0  0  0  0  0  0
   -0.4965   -0.2619    3.3161 C   0  0  0  0  0  0  0  0  0  0  0  0
   -1.0144    2.6538   -0.2020 N   0  0  0  0  0  0  0  0  0  0  0  0
    0.1103    3.0886   -0.9337 C   0  0  0  0  0  0  0  0  0  0  0  0
    1.0656    2.2947   -1.0832 O   0  0  0  0  0  0  0  0  0  0  0  0
    0.1627    4.4314   -1.5049 C   0  0  2  0  0  0  0  0  0  0  0  0
   -1.0720    4.7248   -2.3040 C   0  0  0  0  0  0  0  0  0  0  0  0
    1.3913    4.7110   -2.2051 N   0  0  0  0  0  0  0  0  0  0  0  0
    2.4302    5.5072   -1.7052 C   0  0  0  0  0  0  0  0  0  0  0  0
    2.3094    6.0335   -0.5753 O   0  0  0  0  0  0  0  0  0  0  0  0
    3.6594    5.7319   -2.4732 C   0  0  2  0  0  0  0  0  0  0  0  0
    4.2231    4.3676   -2.9749 C   0  0  0  0  0  0  0  0  0  0  0  0
    4.7132    6.3380   -1.7130 N   0  0  0  0  0  0  0  0  0  0  0  0
    5.9214    6.8219   -2.2542 C   0  0  0  0  0  0  0  0  0  0  0  0
    6.2373    6.8073   -3.4515 O   0  0  0  0  0  0  0  0  0  0  0  0
    6.9848    7.4122   -1.3216 C   0  0  2  0  0  0  0  0  0  0  0  0
    7.1290    8.8484   -1.4777 C   0  0  0  0  0  0  0  0  0  0  0  0
    8.2495    6.7001   -1.6986 N   0  0  0  0  0  0  0  0  0  0  0  0
    8.3763    5.3860   -1.2165 C   0  0  0  0  0  0  0  0  0  0  0  0
    7.3816    4.9453   -0.5098 O   0  0  0  0  0  0  0  0  0  0  0  0
    9.4534    4.4119   -1.3846 C   0  0  2  0  0  0  0  0  0  0  0  0
   10.1394    4.3986   -2.7145 C   0  0  0  0  0  0  0  0  0  0  0  0
    8.9468    3.0802   -1.0131 N   0  0  0  0  0  0  0  0  0  0  0  0
    9.6294    2.1373   -0.2271 C   0  0  0  0  0  0  0  0  0  0  0  0
   10.7746    2.3497    0.2206 O   0  0  0  0  0  0  0  0  0  0  0  0
    8.8613    0.8578    0.0284 C   0  0  1  0  0  0  0  0  0  0  0  0
    7.9895    0.5061   -1.1202 C   0  0  0  0  0  0  0  0  0  0  0  0
    9.6106   -0.1733    0.6282 N   0  0  0  0  0  0  0  0  0  0  0  0
    9.7361   -0.4207    2.0236 C   0  0  0  0  0  0  0  0  0  0  0  0
    9.1852    0.2832    2.8980 O   0  0  0  0  0  0  0  0  0  0  0  0
   10.5621   -1.5759    2.4924 C   0  0  2  0  0  0  0  0  0  0  0  0
   10.0448   -2.8714    1.8620 C   0  0  0  0  0  0  0  0  0  0  0  0
   10.6210   -1.6597    3.9335 N   0  0  0  0  0  0  0  0  0  0  0  0
   11.8444   -1.4224    4.6138 C   0  0  0  0  0  0  0  0  0  0  0  0
   12.8788   -1.1260    3.9099 O   0  0  0  0  0  0  0  0  0  0  0  0
   11.9817   -1.4961    6.0742 C   0  0  0  0  0  0  0  0  0  0  0  0
   13.3624   -1.0040    6.4685 C   0  0  0  0  0  0  0  0  0  0  0  0
   11.9376   -2.9850    6.4704 C   0  0  0  0  0  0  0  0  0  0  0  0
  -15.4032   -6.7274   -3.2312 H   0  0  0  0  0  0  0  0  0  0  0  0
  -16.4274   -5.6032   -4.1720 H   0  0  0  0  0  0  0  0  0  0  0  0
  -16.2692   -5.4284   -2.3523 H   0  0  0  0  0  0  0  0  0  0  0  0
  -13.7806   -5.3727   -4.0668 H   0  0  0  0  0  0  0  0  0  0  0  0
  -15.4949   -2.9114   -3.7683 H   0  0  0  0  0  0  0  0  0  0  0  0
  -13.9991   -3.1017   -4.8194 H   0  0  0  0  0  0  0  0  0  0  0  0
  -15.4822   -3.9876   -5.2918 H   0  0  0  0  0  0  0  0  0  0  0  0
  -14.7426   -3.4749   -1.8737 H   0  0  0  0  0  0  0  0  0  0  0  0
  -12.6997   -2.7698   -2.9281 H   0  0  0  0  0  0  0  0  0  0  0  0
  -10.3797   -2.2132   -1.7587 H   0  0  0  0  0  0  0  0  0  0  0  0
  -10.5985   -4.0577   -4.0489 H   0  0  0  0  0  0  0  0  0  0  0  0
   -8.9272   -3.3747   -3.6543 H   0  0  0  0  0  0  0  0  0  0  0  0
  -10.3215   -2.2967   -3.8952 H   0  0  0  0  0  0  0  0  0  0  0  0
   -8.9422   -4.8181   -1.1372 H   0  0  0  0  0  0  0  0  0  0  0  0
   -6.5503   -4.1826   -0.1994 H   0  0  0  0  0  0  0  0  0  0  0  0
   -6.3229   -3.1438    1.9992 H   0  0  0  0  0  0  0  0  0  0  0  0
   -7.4790   -1.8464    1.5375 H   0  0  0  0  0  0  0  0  0  0  0  0
   -9.9089   -2.3779    1.5530 H   0  0  0  0  0  0  0  0  0  0  0  0
  -11.7082   -3.9154    2.3239 H   0  0  0  0  0  0  0  0  0  0  0  0
  -11.1716   -6.1866    3.0801 H   0  0  0  0  0  0  0  0  0  0  0  0
   -8.8810   -6.9481    3.0781 H   0  0  0  0  0  0  0  0  0  0  0  0
   -7.0643   -5.4440    2.3134 H   0  0  0  0  0  0  0  0  0  0  0  0
   -6.3377   -1.2916   -0.9451 H   0  0  0  0  0  0  0  0  0  0  0  0
   -4.2949   -0.2914   -1.3380 H   0  0  0  0  0  0  0  0  0  0  0  0
   -2.6745   -2.6740   -2.2925 H   0  0  0  0  0  0  0  0  0  0  0  0
   -2.3936   -0.8833   -2.7063 H   0  0  0  0  0  0  0  0  0  0  0  0
   -3.9012   -1.6819   -3.1496 H   0  0  0  0  0  0  0  0  0  0  0  0
   -2.0181   -1.4467    0.2480 H   0  0  0  0  0  0  0  0  0  0  0  0
   -0.1261    0.7723    0.2623 H   0  0  0  0  0  0  0  0  0  0  0  0
   -2.2282    2.2631    1.9472 H   0  0  0  0  0  0  0  0  0  0  0  0
   -0.5013    2.1811    2.2579 H   0  0  0  0  0  0  0  0  0  0  0  0
   -3.7337    0.2894    2.4977 H   0  0  0  0  0  0  0  0  0  0  0  0
   -4.0263   -1.6507    3.9709 H   0  0  0  0  0  0  0  0  0  0  0  0
   -2.0665   -2.7173    5.0402 H   0  0  0  0  0  0  0  0  0  0  0  0
    0.1358   -1.8550    4.6404 H   0  0  0  0  0  0  0  0  0  0  0  0
    0.4793    0.1146    3.1407 H   0  0  0  0  0  0  0  0  0  0  0  0
   -1.8685    3.2215   -0.0117 H   0  0  0  0  0  0  0  0  0  0  0  0
    0.1692    5.1378   -0.6145 H   0  0  0  0  0  0  0  0  0  0  0  0
   -1.9374    4.3424   -1.7163 H   0  0  0  0  0  0  0  0  0  0  0  0
   -1.1747    5.8193   -2.3640 H   0  0  0  0  0  0  0  0  0  0  0  0
   -1.0200    4.2932   -3.3250 H   0  0  0  0  0  0  0  0  0  0  0  0
    1.4657    4.2609   -3.1554 H   0  0  0  0  0  0  0  0  0  0  0  0
    3.4318    6.2255   -3.4375 H   0  0  0  0  0  0  0  0  0  0  0  0
    4.6290    3.8372   -2.1172 H   0  0  0  0  0  0  0  0  0  0  0  0
    3.4247    3.8263   -3.5092 H   0  0  0  0  0  0  0  0  0  0  0  0
    5.0480    4.6422   -3.6560 H   0  0  0  0  0  0  0  0  0  0  0  0
    4.5586    6.4308   -0.6842 H   0  0  0  0  0  0  0  0  0  0  0  0
    6.6990    7.0588   -0.3515 H   0  0  0  0  0  0  0  0  0  0  0  0
    6.5043    9.4431   -0.7527 H   0  0  0  0  0  0  0  0  0  0  0  0
    6.8236    9.2316   -2.4932 H   0  0  0  0  0  0  0  0  0  0  0  0
    8.1887    9.2227   -1.3057 H   0  0  0  0  0  0  0  0  0  0  0  0
    8.9521    7.1557   -2.2634 H   0  0  0  0  0  0  0  0  0  0  0  0
   10.2514    4.6189   -0.6145 H   0  0  0  0  0  0  0  0  0  0  0  0
   10.1601    5.3941   -3.2004 H   0  0  0  0  0  0  0  0  0  0  0  0
    9.6374    3.7205   -3.4471 H   0  0  0  0  0  0  0  0  0  0  0  0
   11.2217    4.1382   -2.5591 H   0  0  0  0  0  0  0  0  0  0  0  0
    7.9751    2.8102   -1.3818 H   0  0  0  0  0  0  0  0  0  0  0  0
    8.1536    1.2339    0.8713 H   0  0  0  0  0  0  0  0  0  0  0  0
    8.3748    0.8107   -2.1138 H   0  0  0  0  0  0  0  0  0  0  0  0
    7.7022   -0.5627   -1.0498 H   0  0  0  0  0  0  0  0  0  0  0  0
    7.0055    1.0617   -1.0031 H   0  0  0  0  0  0  0  0  0  0  0  0
   10.1375   -0.8542   -0.0070 H   0  0  0  0  0  0  0  0  0  0  0  0
   11.5869   -1.4161    2.0917 H   0  0  0  0  0  0  0  0  0  0  0  0
   10.5205   -3.1151    0.9181 H   0  0  0  0  0  0  0  0  0  0  0  0
   10.2674   -3.6779    2.5823 H   0  0  0  0  0  0  0  0  0  0  0  0
    8.9468   -2.7771    1.6532 H   0  0  0  0  0  0  0  0  0  0  0  0
    9.7496   -1.8969    4.4619 H   0  0  0  0  0  0  0  0  0  0  0  0
   11.1956   -0.9189    6.5931 H   0  0  0  0  0  0  0  0  0  0  0  0
   13.7868   -1.5696    7.3189 H   0  0  0  0  0  0  0  0  0  0  0  0
   14.0478   -1.0677    5.5786 H   0  0  0  0  0  0  0  0  0  0  0  0
   13.3353    0.0661    6.7658 H   0  0  0  0  0  0  0  0  0  0  0  0
   12.5889   -3.5145    5.7381 H   0  0  0  0  0  0  0  0  0  0  0  0
   10.9002   -3.3399    6.4813 H   0  0  0  0  0  0  0  0  0  0  0  0
   12.3977   -3.1270    7.4735 H   0  0  0  0  0  0  0  0  0  0  0  0
  1  2  1  0
  2  3  1  0
  2  4  1  0
  4  5  1  0
  5  6  1  0
  6  7  2  0
  6  8  1  0
  8  9  1  0
  8 10  1  0
 10 11  1  0
 11 12  2  0
 11 13  1  0
 13 14  1  0
 14 15  1  0
 15 16  2  0
 16 17  1  0
 17 18  2  0
 18 19  1  0
 19 20  2  0
 13 21  1  0
 21 22  1  0
 22 23  2  0
 22 24  1  0
 24 25  1  0
 24 26  1  0
 26 27  1  0
 27 28  2  0
 27 29  1  0
 29 30  1  0
 30 31  1  0
 31 32  2  0
 32 33  1  0
 33 34  2  0
 34 35  1  0
 35 36  2  0
 29 37  1  0
 37 38  1  0
 38 39  2  0
 38 40  1  0
 40 41  1  0
 40 42  1  0
 42 43  1  0
 43 44  2  0
 43 45  1  0
 45 46  1  0
 45 47  1  0
 47 48  1  0
 48 49  2  0
 48 50  1  0
 50 51  1  0
 50 52  1  0
 52 53  1  0
 53 54  2  0
 53 55  1  0
 55 56  1  0
 55 57  1  0
 57 58  1  0
 58 59  2  0
 58 60  1  0
 60 61  1  0
 60 62  1  0
 62 63  1  0
 63 64  2  0
 63 65  1  0
 65 66  1  0
 65 67  1  0
 67 68  1  0
 68 69  2  0
 68 70  1  0
 70 71  1  0
 70 72  1  0
 20 15  1  0
 36 31  1  0
  1 73  1  0
  1 74  1  0
  1 75  1  0
  2 76  1  0
  3 77  1  0
  3 78  1  0
  3 79  1  0
  4 80  1  0
  5 81  1  0
  8 82  1  1
  9 83  1  0
  9 84  1  0
  9 85  1  0
 10 86  1  0
 13 87  1  1
 14 88  1  0
 14 89  1  0
 16 90  1  0
 17 91  1  0
 18 92  1  0
 19 93  1  0
 20 94  1  0
 21 95  1  0
 24 96  1  6
 25 97  1  0
 25 98  1  0
 25 99  1  0
 26100  1  0
 29101  1  1
 30102  1  0
 30103  1  0
 32104  1  0
 33105  1  0
 34106  1  0
 35107  1  0
 36108  1  0
 37109  1  0
 40110  1  1
 41111  1  0
 41112  1  0
 41113  1  0
 42114  1  0
 45115  1  6
 46116  1  0
 46117  1  0
 46118  1  0
 47119  1  0
 50120  1  1
 51121  1  0
 51122  1  0
 51123  1  0
 52124  1  0
 55125  1  1
 56126  1  0
 56127  1  0
 56128  1  0
 57129  1  0
 60130  1  1
 61131  1  0
 61132  1  0
 61133  1  0
 62134  1  0
 65135  1  6
 66136  1  0
 66137  1  0
 66138  1  0
 67139  1  0
 70140  1  0
 71141  1  0
 71142  1  0
 71143  1  0
 72144  1  0
 72145  1  0
 72146  1  0
M  RAD  1   4   2
M  END
$$$$
[H]c1c([H])c(S(=O)(=O)N2C([H])([H])C([H])([H])N(C(=O)c3c([H])c(Cl)c([H])c([H])c3C([H])([H])[H])C([H])([H])[C@@]2([H])C([H])([H])[H])c([H])c([H])c1Cl
     RDKit          3D

 47 49  0  0  0  0  0  0  0  0999 V2000
    0.6664    1.5641    0.6728 C   0  0  0  0  0  0  0  0  0  0  0  0
    0.6758    0.1578    0.0590 C   0  0  2  0  0  0  0  0  0  0  0  0
   -0.7398   -0.3101   -0.1934 C   0  0  0  0  0  0  0  0  0  0  0  0
   -1.4059   -0.5544    1.0689 N   0  0  0  0  0  0  0  0  0  0  0  0
   -0.7412   -1.1061    2.2197 C   0  0  0  0  0  0  0  0  0  0  0  0
    0.7410   -1.0347    2.1698 C   0  0  0  0  0  0  0  0  0  0  0  0
    1.3322   -0.7012    0.9474 N   0  0  0  0  0  0  0  0  0  0  0  0
    2.6082   -1.6150    0.3807 S   0  0  0  0  0  0  0  0  0  0  0  0
    2.2651   -2.5236   -0.7819 O   0  0  0  0  0  0  0  0  0  0  0  0
    3.2315   -2.4787    1.4343 O   0  0  0  0  0  0  0  0  0  0  0  0
    3.8858   -0.5271   -0.1831 C   0  0  0  0  0  0  0  0  0  0  0  0
    4.8567   -0.1187    0.7142 C   0  0  0  0  0  0  0  0  0  0  0  0
    5.8910    0.7234    0.3802 C   0  0  0  0  0  0  0  0  0  0  0  0
    5.9492    1.1747   -0.9183 C   0  0  0  0  0  0  0  0  0  0  0  0
    7.2661    2.2490   -1.3513 Cl  0  0  0  0  0  0  0  0  0  0  0  0
    4.9874    0.7822   -1.8455 C   0  0  0  0  0  0  0  0  0  0  0  0
    3.9535   -0.0742   -1.4652 C   0  0  0  0  0  0  0  0  0  0  0  0
   -2.7802   -0.2336    1.1757 C   0  0  0  0  0  0  0  0  0  0  0  0
   -3.4259   -0.4221    2.2530 O   0  0  0  0  0  0  0  0  0  0  0  0
   -3.5293    0.3328    0.0477 C   0  0  0  0  0  0  0  0  0  0  0  0
   -3.5990    1.6985   -0.1234 C   0  0  0  0  0  0  0  0  0  0  0  0
   -4.3054    2.2290   -1.1878 C   0  0  0  0  0  0  0  0  0  0  0  0
   -4.4055    3.9631   -1.4221 Cl  0  0  0  0  0  0  0  0  0  0  0  0
   -4.9412    1.3791   -2.0789 C   0  0  0  0  0  0  0  0  0  0  0  0
   -4.8775    0.0172   -1.9167 C   0  0  0  0  0  0  0  0  0  0  0  0
   -4.1678   -0.5010   -0.8483 C   0  0  0  0  0  0  0  0  0  0  0  0
   -4.0970   -1.9769   -0.6704 C   0  0  0  0  0  0  0  0  0  0  0  0
    0.3079    1.4728    1.7230 H   0  0  0  0  0  0  0  0  0  0  0  0
   -0.0230    2.2331    0.1244 H   0  0  0  0  0  0  0  0  0  0  0  0
    1.7169    1.9100    0.6532 H   0  0  0  0  0  0  0  0  0  0  0  0
    1.2204    0.2291   -0.8845 H   0  0  0  0  0  0  0  0  0  0  0  0
   -1.2400    0.4763   -0.7849 H   0  0  0  0  0  0  0  0  0  0  0  0
   -0.6872   -1.2531   -0.7557 H   0  0  0  0  0  0  0  0  0  0  0  0
   -1.0695   -2.1526    2.3233 H   0  0  0  0  0  0  0  0  0  0  0  0
   -1.1669   -0.5655    3.1121 H   0  0  0  0  0  0  0  0  0  0  0  0
    1.2014   -1.9954    2.5431 H   0  0  0  0  0  0  0  0  0  0  0  0
    1.0631   -0.2768    2.9437 H   0  0  0  0  0  0  0  0  0  0  0  0
    4.7931   -0.4872    1.7369 H   0  0  0  0  0  0  0  0  0  0  0  0
    6.6019    0.9884    1.1451 H   0  0  0  0  0  0  0  0  0  0  0  0
    5.0628    1.1508   -2.8420 H   0  0  0  0  0  0  0  0  0  0  0  0
    3.2030   -0.3807   -2.1886 H   0  0  0  0  0  0  0  0  0  0  0  0
   -3.1119    2.4026    0.5566 H   0  0  0  0  0  0  0  0  0  0  0  0
   -5.5006    1.7924   -2.9217 H   0  0  0  0  0  0  0  0  0  0  0  0
   -5.3664   -0.6300   -2.6026 H   0  0  0  0  0  0  0  0  0  0  0  0
   -4.2551   -2.1801    0.4259 H   0  0  0  0  0  0  0  0  0  0  0  0
   -3.1207   -2.3782   -1.0076 H   0  0  0  0  0  0  0  0  0  0  0  0
   -4.9234   -2.4494   -1.2452 H   0  0  0  0  0  0  0  0  0  0  0  0
  1  2  1  0
  2  3  1  0
  3  4  1  0
  4  5  1  0
  5  6  1  0
  6  7  1  0
  7  8  1  0
  8  9  2  0
  8 10  2  0
  8 11  1  0
 11 12  2  0
 12 13  1  0
 13 14  2  0
 14 15  1  0
 14 16  1  0
 16 17  2  0
  4 18  1  0
 18 19  2  0
 18 20  1  0
 20 21  2  0
 21 22  1  0
 22 23  1  0
 22 24  2  0
 24 25  1  0
 25 26  2  0
 26 27  1  0
  7  2  1  0
 17 11  1  0
 26 20  1  0
  1 28  1  0
  1 29  1  0
  1 30  1  0
  2 31  1  6
  3 32  1  0
  3 33  1  0
  5 34  1  0
  5 35  1  0
  6 36  1  0
  6 37  1  0
 12 38  1  0
 13 39  1  0
 16 40  1  0
 17 41  1  0
 21 42  1  0
 24 43  1  0
 25 44  1  0
 27 45  1  0
 27 46  1  0
 27 47  1  0
M  END
$$$$
[H]O[C@]([H])(C([H])([H])[H])[C@]([H])(C(=O)N([H])[C@]([H])(C(=O)N([H])[H])C([H])([H])c1c([H])n([H])c2c([H])c([H])c([H])c([H])c12)N([H])C(=O)[C@]([H])(N([H])C(=O)C(C([H])([H])[H])(C([H])([H])[H])C([H])([H])[H])C([H])([H])c1c([H])c([H])c([H])c([H])c1[H]
     RDKit          3D

 76 78  0  0  0  0  0  0  0  0999 V2000
    2.1875    1.3393    2.5570 C   0  0  0  0  0  0  0  0  0  0  0  0
    2.0058   -0.0668    2.0203 C   0  0  1  0  0  0  0  0  0  0  0  0
    1.5904   -0.8336    3.1380 O   0  0  0  0  0  0  0  0  0  0  0  0
    1.0111   -0.1475    0.9232 C   0  0  1  0  0  0  0  0  0  0  0  0
   -0.2970    0.3496    1.2844 N   0  0  0  0  0  0  0  0  0  0  0  0
   -1.4426   -0.4206    0.9971 C   0  0  0  0  0  0  0  0  0  0  0  0
   -1.3083   -1.5419    0.4191 O   0  0  0  0  0  0  0  0  0  0  0  0
   -2.8146    0.0369    1.3468 C   0  0  1  0  0  0  0  0  0  0  0  0
   -2.9845    1.4471    0.8627 C   0  0  0  0  0  0  0  0  0  0  0  0
   -4.3141    2.0215    1.1513 C   0  0  0  0  0  0  0  0  0  0  0  0
   -5.3478    2.0691    0.2630 C   0  0  0  0  0  0  0  0  0  0  0  0
   -6.5980    2.5927    0.5916 C   0  0  0  0  0  0  0  0  0  0  0  0
   -6.8047    3.0807    1.8561 C   0  0  0  0  0  0  0  0  0  0  0  0
   -5.7754    3.0474    2.7840 C   0  0  0  0  0  0  0  0  0  0  0  0
   -4.5423    2.5247    2.4370 C   0  0  0  0  0  0  0  0  0  0  0  0
   -3.8071   -0.8957    0.9142 N   0  0  0  0  0  0  0  0  0  0  0  0
   -4.0236   -1.1461   -0.4836 C   0  0  0  0  0  0  0  0  0  0  0  0
   -3.3435   -0.5391   -1.3575 O   0  0  0  0  0  0  0  0  0  0  0  0
   -5.0448   -2.1205   -0.9351 C   0  0  0  0  0  0  0  0  0  0  0  0
   -5.0720   -2.2237   -2.4308 C   0  0  0  0  0  0  0  0  0  0  0  0
   -6.3703   -1.7875   -0.3236 C   0  0  0  0  0  0  0  0  0  0  0  0
   -4.6153   -3.4925   -0.3798 C   0  0  0  0  0  0  0  0  0  0  0  0
    1.4652    0.4345   -0.3768 C   0  0  0  0  0  0  0  0  0  0  0  0
    0.7850    1.2661   -1.0007 O   0  0  0  0  0  0  0  0  0  0  0  0
    2.7311    0.0257   -0.9569 N   0  0  0  0  0  0  0  0  0  0  0  0
    3.1624    0.5559   -2.2131 C   0  0  1  0  0  0  0  0  0  0  0  0
    4.4061    1.3351   -2.1776 C   0  0  0  0  0  0  0  0  0  0  0  0
    5.6035    0.6255   -1.7154 C   0  0  0  0  0  0  0  0  0  0  0  0
    6.4994   -0.0175   -2.5773 C   0  0  0  0  0  0  0  0  0  0  0  0
    7.4745   -0.6033   -1.8700 N   0  0  0  0  0  0  0  0  0  0  0  0
    7.2761   -0.3804   -0.5364 C   0  0  0  0  0  0  0  0  0  0  0  0
    7.9973   -0.7528    0.5726 C   0  0  0  0  0  0  0  0  0  0  0  0
    7.5712   -0.3654    1.8110 C   0  0  0  0  0  0  0  0  0  0  0  0
    6.4175    0.3950    1.8951 C   0  0  0  0  0  0  0  0  0  0  0  0
    5.7008    0.7636    0.7851 C   0  0  0  0  0  0  0  0  0  0  0  0
    6.1133    0.3819   -0.4699 C   0  0  0  0  0  0  0  0  0  0  0  0
    3.1656   -0.5009   -3.2741 C   0  0  0  0  0  0  0  0  0  0  0  0
    3.5566   -0.2559   -4.6045 N   0  0  0  0  0  0  0  0  0  0  0  0
    2.8017   -1.6525   -2.9484 O   0  0  0  0  0  0  0  0  0  0  0  0
    2.9057    1.2419    3.4255 H   0  0  0  0  0  0  0  0  0  0  0  0
    1.2485    1.8104    2.8637 H   0  0  0  0  0  0  0  0  0  0  0  0
    2.7234    2.0107    1.8321 H   0  0  0  0  0  0  0  0  0  0  0  0
    2.9972   -0.4701    1.7615 H   0  0  0  0  0  0  0  0  0  0  0  0
    1.3155   -1.7254    2.7897 H   0  0  0  0  0  0  0  0  0  0  0  0
    0.8732   -1.2535    0.6872 H   0  0  0  0  0  0  0  0  0  0  0  0
   -0.4075    1.2816    1.7655 H   0  0  0  0  0  0  0  0  0  0  0  0
   -2.9103    0.1174    2.4842 H   0  0  0  0  0  0  0  0  0  0  0  0
   -2.2303    2.0655    1.4149 H   0  0  0  0  0  0  0  0  0  0  0  0
   -2.7218    1.5593   -0.2139 H   0  0  0  0  0  0  0  0  0  0  0  0
   -5.1923    1.6958   -0.7454 H   0  0  0  0  0  0  0  0  0  0  0  0
   -7.3883    2.6041   -0.1722 H   0  0  0  0  0  0  0  0  0  0  0  0
   -7.7664    3.4979    2.1543 H   0  0  0  0  0  0  0  0  0  0  0  0
   -5.9352    3.4306    3.7933 H   0  0  0  0  0  0  0  0  0  0  0  0
   -3.7173    2.4912    3.1480 H   0  0  0  0  0  0  0  0  0  0  0  0
   -4.3994   -1.4186    1.5983 H   0  0  0  0  0  0  0  0  0  0  0  0
   -5.1184   -3.2927   -2.7332 H   0  0  0  0  0  0  0  0  0  0  0  0
   -5.9579   -1.6867   -2.8244 H   0  0  0  0  0  0  0  0  0  0  0  0
   -4.1653   -1.7300   -2.8692 H   0  0  0  0  0  0  0  0  0  0  0  0
   -6.8375   -2.6901    0.1354 H   0  0  0  0  0  0  0  0  0  0  0  0
   -6.3321   -0.9835    0.4224 H   0  0  0  0  0  0  0  0  0  0  0  0
   -7.0703   -1.4335   -1.1424 H   0  0  0  0  0  0  0  0  0  0  0  0
   -4.3426   -3.3508    0.6778 H   0  0  0  0  0  0  0  0  0  0  0  0
   -3.7037   -3.8378   -0.9148 H   0  0  0  0  0  0  0  0  0  0  0  0
   -5.4318   -4.2334   -0.4940 H   0  0  0  0  0  0  0  0  0  0  0  0
    3.3121   -0.6646   -0.4553 H   0  0  0  0  0  0  0  0  0  0  0  0
    2.3555    1.2843   -2.5955 H   0  0  0  0  0  0  0  0  0  0  0  0
    4.2162    2.2256   -1.4848 H   0  0  0  0  0  0  0  0  0  0  0  0
    4.5976    1.8498   -3.1599 H   0  0  0  0  0  0  0  0  0  0  0  0
    6.4497   -0.0595   -3.6557 H   0  0  0  0  0  0  0  0  0  0  0  0
    8.2891   -1.1562   -2.2061 H   0  0  0  0  0  0  0  0  0  0  0  0
    8.8841   -1.3398    0.4702 H   0  0  0  0  0  0  0  0  0  0  0  0
    8.1215   -0.6449    2.7309 H   0  0  0  0  0  0  0  0  0  0  0  0
    6.0992    0.6949    2.8925 H   0  0  0  0  0  0  0  0  0  0  0  0
    4.8034    1.3611    0.8396 H   0  0  0  0  0  0  0  0  0  0  0  0
    4.0547   -1.0042   -5.1253 H   0  0  0  0  0  0  0  0  0  0  0  0
    3.3656    0.6364   -5.0729 H   0  0  0  0  0  0  0  0  0  0  0  0
  1  2  1  0
  2  3  1  0
  2  4  1  0
  4  5  1  0
  5  6  1  0
  6  7  2  0
  6  8  1  0
  8  9  1  0
  9 10  1  0
 10 11  2  0
 11 12  1  0
 12 13  2  0
 13 14  1  0
 14 15  2  0
  8 16  1  0
 16 17  1  0
 17 18  2  0
 17 19  1  0
 19 20  1  0
 19 21  1  0
 19 22  1  0
  4 23  1  0
 23 24  2  0
 23 25  1  0
 25 26  1  0
 26 27  1  0
 27 28  1  0
 28 29  2  0
 29 30  1  0
 30 31  1  0
 31 32  2  0
 32 33  1  0
 33 34  2  0
 34 35  1  0
 35 36  2  0
 26 37  1  0
 37 38  1  0
 37 39  2  0
 15 10  1  0
 36 28  1  0
 36 31  1  0
  1 40  1  0
  1 41  1  0
  1 42  1  0
  2 43  1  6
  3 44  1  0
  4 45  1  6
  5 46  1  0
  8 47  1  1
  9 48  1  0
  9 49  1  0
 11 50  1  0
 12 51  1  0
 13 52  1  0
 14 53  1  0
 15 54  1  0
 16 55  1  0
 20 56  1  0
 20 57  1  0
 20 58  1  0
 21 59  1  0
 21 60  1  0
 21 61  1  0
 22 62  1  0
 22 63  1  0
 22 64  1  0
 25 65  1  0
 26 66  1  6
 27 67  1  0
 27 68  1  0
 29 69  1  0
 30 70  1  0
 32 71  1  0
 33 72  1  0
 34 73  1  0
 35 74  1  0
 38 75  1  0
 38 76  1  0
M  END
$$$$
[H]OC(=O)[C@]1([H])C([H])([H])C([H])([H])[C@@]([H])(n2c([H])c(-c3c([H])c([H])c([H])c(N([H])C(=O)N([H])c4c([H])c([H])c([H])c(C(F)(F)F)c4[H])c3[H])c3c(N([H])[H])nc([H])nc32)C([H])([H])C1([H])[H]
     RDKit          3D

 64 68  0  0  0  0  0  0  0  0999 V2000
    0.1859   -3.0052    1.7264 N   0  0  0  0  0  0  0  0  0  0  0  0
    1.4734   -2.4360    1.8698 C   0  0  0  0  0  0  0  0  0  0  0  0
    2.2459   -2.8038    2.9431 N   0  0  0  0  0  0  0  0  0  0  0  0
    3.4900   -2.3433    3.1112 C   0  0  0  0  0  0  0  0  0  0  0  0
    4.0567   -1.4948    2.2387 N   0  0  0  0  0  0  0  0  0  0  0  0
    3.3317   -1.1091    1.1775 C   0  0  0  0  0  0  0  0  0  0  0  0
    3.7448   -0.2686    0.1934 N   0  0  0  0  0  0  0  0  0  0  0  0
    2.7016   -0.1835   -0.6404 C   0  0  0  0  0  0  0  0  0  0  0  0
    1.6270   -0.9712   -0.1878 C   0  0  0  0  0  0  0  0  0  0  0  0
    0.3278   -1.0842   -0.8322 C   0  0  0  0  0  0  0  0  0  0  0  0
    0.2661   -1.4319   -2.2045 C   0  0  0  0  0  0  0  0  0  0  0  0
   -0.9578   -1.5453   -2.8008 C   0  0  0  0  0  0  0  0  0  0  0  0
   -2.1525   -1.3389   -2.1277 C   0  0  0  0  0  0  0  0  0  0  0  0
   -2.1400   -0.9975   -0.7895 C   0  0  0  0  0  0  0  0  0  0  0  0
   -3.2907   -0.8133   -0.0001 N   0  0  0  0  0  0  0  0  0  0  0  0
   -4.6133   -0.5648   -0.3657 C   0  0  0  0  0  0  0  0  0  0  0  0
   -4.9483   -0.4508   -1.5637 O   0  0  0  0  0  0  0  0  0  0  0  0
   -5.5798   -0.4481    0.6656 N   0  0  0  0  0  0  0  0  0  0  0  0
   -6.9306   -0.2001    0.3669 C   0  0  0  0  0  0  0  0  0  0  0  0
   -7.7832   -1.2653    0.1318 C   0  0  0  0  0  0  0  0  0  0  0  0
   -9.1312   -1.0345   -0.1445 C   0  0  0  0  0  0  0  0  0  0  0  0
   -9.6078    0.2649   -0.1814 C   0  0  0  0  0  0  0  0  0  0  0  0
   -8.7785    1.3414    0.0481 C   0  0  0  0  0  0  0  0  0  0  0  0
   -7.4668    1.0757    0.3148 C   0  0  0  0  0  0  0  0  0  0  0  0
   -9.3336    2.7167    0.0040 C   0  0  0  0  0  0  0  0  0  0  0  0
   -8.8068    3.4035    1.0837 F   0  0  0  0  0  0  0  0  0  0  0  0
   -8.8310    3.2923   -1.1423 F   0  0  0  0  0  0  0  0  0  0  0  0
  -10.7028    2.7057    0.0196 F   0  0  0  0  0  0  0  0  0  0  0  0
   -0.8713   -0.8885   -0.2148 C   0  0  0  0  0  0  0  0  0  0  0  0
    2.0468   -1.5564    0.9669 C   0  0  0  0  0  0  0  0  0  0  0  0
    5.0624    0.3457    0.0476 C   0  0  1  0  0  0  0  0  0  0  0  0
    5.4904    0.3105   -1.3749 C   0  0  0  0  0  0  0  0  0  0  0  0
    6.1509    1.5546   -1.8678 C   0  0  0  0  0  0  0  0  0  0  0  0
    6.9175    2.2934   -0.8026 C   0  0  1  0  0  0  0  0  0  0  0  0
    5.9006    2.7442    0.2124 C   0  0  0  0  0  0  0  0  0  0  0  0
    5.1746    1.6000    0.7846 C   0  0  0  0  0  0  0  0  0  0  0  0
    8.0196    1.4790   -0.2564 C   0  0  0  0  0  0  0  0  0  0  0  0
    8.8492    2.0306    0.7091 O   0  0  0  0  0  0  0  0  0  0  0  0
    8.2412    0.3135   -0.6239 O   0  0  0  0  0  0  0  0  0  0  0  0
   -0.6281   -2.7704    2.3228 H   0  0  0  0  0  0  0  0  0  0  0  0
   -0.0068   -3.7349    0.9723 H   0  0  0  0  0  0  0  0  0  0  0  0
    4.0823   -2.6578    3.9843 H   0  0  0  0  0  0  0  0  0  0  0  0
    2.6185    0.3949   -1.5743 H   0  0  0  0  0  0  0  0  0  0  0  0
    1.1852   -1.5968   -2.7335 H   0  0  0  0  0  0  0  0  0  0  0  0
   -1.0174   -1.8175   -3.8693 H   0  0  0  0  0  0  0  0  0  0  0  0
   -3.0674   -1.4603   -2.6783 H   0  0  0  0  0  0  0  0  0  0  0  0
   -3.1149   -0.8942    1.0507 H   0  0  0  0  0  0  0  0  0  0  0  0
   -5.3106   -0.5540    1.6696 H   0  0  0  0  0  0  0  0  0  0  0  0
   -7.3815   -2.2840    0.1584 H   0  0  0  0  0  0  0  0  0  0  0  0
   -9.8155   -1.8517   -0.3227 H   0  0  0  0  0  0  0  0  0  0  0  0
  -10.6573    0.4062   -0.4088 H   0  0  0  0  0  0  0  0  0  0  0  0
   -6.7963    1.8891    0.4845 H   0  0  0  0  0  0  0  0  0  0  0  0
   -0.8531   -0.5620    0.8281 H   0  0  0  0  0  0  0  0  0  0  0  0
    5.7403   -0.4073    0.5788 H   0  0  0  0  0  0  0  0  0  0  0  0
    4.5840    0.1413   -2.0112 H   0  0  0  0  0  0  0  0  0  0  0  0
    6.1577   -0.5345   -1.6424 H   0  0  0  0  0  0  0  0  0  0  0  0
    6.8805    1.3563   -2.6899 H   0  0  0  0  0  0  0  0  0  0  0  0
    5.4047    2.2664   -2.2671 H   0  0  0  0  0  0  0  0  0  0  0  0
    7.3640    3.1866   -1.3393 H   0  0  0  0  0  0  0  0  0  0  0  0
    6.4654    3.2851    1.0178 H   0  0  0  0  0  0  0  0  0  0  0  0
    5.2613    3.4871   -0.3407 H   0  0  0  0  0  0  0  0  0  0  0  0
    4.1232    1.9926    1.0181 H   0  0  0  0  0  0  0  0  0  0  0  0
    5.5560    1.4417    1.8506 H   0  0  0  0  0  0  0  0  0  0  0  0
    9.8474    2.0412    0.4614 H   0  0  0  0  0  0  0  0  0  0  0  0
  1  2  1  0
  2  3  2  0
  3  4  1  0
  4  5  2  0
  5  6  1  0
  6  7  1  0
  7  8  1  0
  8  9  2  0
  9 10  1  0
 10 11  2  0
 11 12  1  0
 12 13  2  0
 13 14  1  0
 14 15  1  0
 15 16  1  0
 16 17  2  0
 16 18  1  0
 18 19  1  0
 19 20  2  0
 20 21  1  0
 21 22  2  0
 22 23  1  0
 23 24  2  0
 23 25  1  0
 25 26  1  0
 25 27  1  0
 25 28  1  0
 14 29  2  0
  9 30  1  0
  7 31  1  0
 31 32  1  0
 32 33  1  0
 33 34  1  0
 34 35  1  0
 35 36  1  0
 34 37  1  0
 37 38  1  0
 37 39  2  0
 30  2  1  0
 36 31  1  0
 30  6  2  0
 29 10  1  0
 24 19  1  0
  1 40  1  0
  1 41  1  0
  4 42  1  0
  8 43  1  0
 11 44  1  0
 12 45  1  0
 13 46  1  0
 15 47  1  0
 18 48  1  0
 20 49  1  0
 21 50  1  0
 22 51  1  0
 24 52  1  0
 29 53  1  0
 31 54  1  1
 32 55  1  0
 32 56  1  0
 33 57  1  0
 33 58  1  0
 34 59  1  6
 35 60  1  0
 35 61  1  0
 36 62  1  0
 36 63  1  0
 38 64  1  0
M  END
$$$$
[H]c1c([H])c([H])c(-c2c([H])c([H])c(S(=O)(=O)N3C([H])([H])C([H])([H])C([H])([H])[C@@]3([H])c3c([H])c([H])c(N([H])C(=O)c4c([H])c([H])c(OC([H])([H])[H])c([H])c4[H])c([H])c3[H])c([H])c2[H])c([H])c1[H]
     RDKit          3D

 65 69  0  0  0  0  0  0  0  0999 V2000
   10.5424    3.3518    0.6905 C   0  0  0  0  0  0  0  0  0  0  0  0
   10.3275    2.5290   -0.4426 O   0  0  0  0  0  0  0  0  0  0  0  0
    9.0992    1.9177   -0.6150 C   0  0  0  0  0  0  0  0  0  0  0  0
    8.0790    2.0912    0.2916 C   0  0  0  0  0  0  0  0  0  0  0  0
    6.8367    1.4708    0.1138 C   0  0  0  0  0  0  0  0  0  0  0  0
    6.6480    0.6831   -0.9815 C   0  0  0  0  0  0  0  0  0  0  0  0
    7.6593    0.4876   -1.9167 C   0  0  0  0  0  0  0  0  0  0  0  0
    8.8931    1.1184   -1.7177 C   0  0  0  0  0  0  0  0  0  0  0  0
    5.3207    0.0231   -1.1433 C   0  0  0  0  0  0  0  0  0  0  0  0
    5.0758   -0.2533   -2.3585 O   0  0  0  0  0  0  0  0  0  0  0  0
    4.5066   -0.2267   -0.0480 N   0  0  0  0  0  0  0  0  0  0  0  0
    3.2489   -0.8231   -0.0506 C   0  0  0  0  0  0  0  0  0  0  0  0
    2.5031   -0.9715   -1.1795 C   0  0  0  0  0  0  0  0  0  0  0  0
    1.2447   -1.6009   -1.1300 C   0  0  0  0  0  0  0  0  0  0  0  0
    0.7329   -2.0792    0.0391 C   0  0  0  0  0  0  0  0  0  0  0  0
    1.4803   -1.9301    1.1724 C   0  0  0  0  0  0  0  0  0  0  0  0
    2.6973   -1.3240    1.1370 C   0  0  0  0  0  0  0  0  0  0  0  0
   -0.5626   -2.7311    0.0681 C   0  0  2  0  0  0  0  0  0  0  0  0
   -1.3817   -2.5869   -1.1881 C   0  0  0  0  0  0  0  0  0  0  0  0
   -2.7121   -3.1720   -0.6952 C   0  0  0  0  0  0  0  0  0  0  0  0
   -2.6489   -3.0954    0.8004 C   0  0  0  0  0  0  0  0  0  0  0  0
   -1.4619   -2.3354    1.0980 N   0  0  0  0  0  0  0  0  0  0  0  0
   -1.7191   -0.6736    1.2967 S   0  0  0  0  0  0  0  0  0  0  0  0
   -1.4751   -0.3189    2.7600 O   0  0  0  0  0  0  0  0  0  0  0  0
   -0.6897    0.1601    0.5393 O   0  0  0  0  0  0  0  0  0  0  0  0
   -3.3312   -0.1291    0.9364 C   0  0  0  0  0  0  0  0  0  0  0  0
   -3.6520    0.3247   -0.3211 C   0  0  0  0  0  0  0  0  0  0  0  0
   -4.9227    0.7651   -0.6427 C   0  0  0  0  0  0  0  0  0  0  0  0
   -5.9124    0.7584    0.3080 C   0  0  0  0  0  0  0  0  0  0  0  0
   -5.6082    0.3075    1.5715 C   0  0  0  0  0  0  0  0  0  0  0  0
   -4.3373   -0.1277    1.8748 C   0  0  0  0  0  0  0  0  0  0  0  0
   -7.2799    1.2272   -0.0223 C   0  0  0  0  0  0  0  0  0  0  0  0
   -8.0572    1.8241    0.9577 C   0  0  0  0  0  0  0  0  0  0  0  0
   -9.3311    2.2752    0.7033 C   0  0  0  0  0  0  0  0  0  0  0  0
   -9.8703    2.1371   -0.5658 C   0  0  0  0  0  0  0  0  0  0  0  0
   -9.0973    1.5452   -1.5345 C   0  0  0  0  0  0  0  0  0  0  0  0
   -7.8107    1.0883   -1.2823 C   0  0  0  0  0  0  0  0  0  0  0  0
    9.7628    4.1584    0.6251 H   0  0  0  0  0  0  0  0  0  0  0  0
   10.3242    2.7401    1.5905 H   0  0  0  0  0  0  0  0  0  0  0  0
   11.5585    3.7711    0.6855 H   0  0  0  0  0  0  0  0  0  0  0  0
    8.1845    2.7029    1.1683 H   0  0  0  0  0  0  0  0  0  0  0  0
    6.0726    1.6470    0.8534 H   0  0  0  0  0  0  0  0  0  0  0  0
    7.4959   -0.1376   -2.7780 H   0  0  0  0  0  0  0  0  0  0  0  0
    9.6777    0.9644   -2.4467 H   0  0  0  0  0  0  0  0  0  0  0  0
    4.8836    0.0665    0.9024 H   0  0  0  0  0  0  0  0  0  0  0  0
    2.8509   -0.5984   -2.1446 H   0  0  0  0  0  0  0  0  0  0  0  0
    0.7318   -1.6701   -2.0792 H   0  0  0  0  0  0  0  0  0  0  0  0
    1.1350   -2.2877    2.1444 H   0  0  0  0  0  0  0  0  0  0  0  0
    3.3121   -1.1972    2.0431 H   0  0  0  0  0  0  0  0  0  0  0  0
   -0.4046   -3.8343    0.1939 H   0  0  0  0  0  0  0  0  0  0  0  0
   -0.9991   -3.2295   -2.0151 H   0  0  0  0  0  0  0  0  0  0  0  0
   -1.4995   -1.5768   -1.5621 H   0  0  0  0  0  0  0  0  0  0  0  0
   -3.5798   -2.6972   -1.1485 H   0  0  0  0  0  0  0  0  0  0  0  0
   -2.7739   -4.2553   -1.0017 H   0  0  0  0  0  0  0  0  0  0  0  0
   -3.5624   -2.6664    1.2533 H   0  0  0  0  0  0  0  0  0  0  0  0
   -2.4862   -4.1165    1.2199 H   0  0  0  0  0  0  0  0  0  0  0  0
   -2.9080    0.3473   -1.0963 H   0  0  0  0  0  0  0  0  0  0  0  0
   -5.1301    1.1161   -1.6536 H   0  0  0  0  0  0  0  0  0  0  0  0
   -6.3991    0.3073    2.3134 H   0  0  0  0  0  0  0  0  0  0  0  0
   -4.1157   -0.4850    2.8942 H   0  0  0  0  0  0  0  0  0  0  0  0
   -7.6448    1.9367    1.9523 H   0  0  0  0  0  0  0  0  0  0  0  0
   -9.9411    2.7463    1.4818 H   0  0  0  0  0  0  0  0  0  0  0  0
  -10.8714    2.4900   -0.7718 H   0  0  0  0  0  0  0  0  0  0  0  0
   -9.5063    1.4291   -2.5377 H   0  0  0  0  0  0  0  0  0  0  0  0
   -7.2018    0.6221   -2.0457 H   0  0  0  0  0  0  0  0  0  0  0  0
  1  2  1  0
  2  3  1  0
  3  4  2  0
  4  5  1  0
  5  6  2  0
  6  7  1  0
  7  8  2  0
  6  9  1  0
  9 10  2  0
  9 11  1  0
 11 12  1  0
 12 13  2  0
 13 14  1  0
 14 15  2  0
 15 16  1  0
 16 17  2  0
 15 18  1  0
 18 19  1  0
 19 20  1  0
 20 21  1  0
 21 22  1  0
 22 23  1  0
 23 24  2  0
 23 25  2  0
 23 26  1  0
 26 27  2  0
 27 28  1  0
 28 29  2  0
 29 30  1  0
 30 31  2  0
 29 32  1  0
 32 33  2  0
 33 34  1  0
 34 35  2  0
 35 36  1  0
 36 37  2  0
  8  3  1  0
 17 12  1  0
 22 18  1  0
 31 26  1  0
 37 32  1  0
  1 38  1  0
  1 39  1  0
  1 40  1  0
  4 41  1  0
  5 42  1  0
  7 43  1  0
  8 44  1  0
 11 45  1  0
 13 46  1  0
 14 47  1  0
 16 48  1  0
 17 49  1  0
 18 50  1  1
 19 51  1  0
 19 52  1  0
 20 53  1  0
 20 54  1  0
 21 55  1  0
 21 56  1  0
 27 57  1  0
 28 58  1  0
 30 59  1  0
 31 60  1  0
 33 61  1  0
 34 62  1  0
 35 63  1  0
 36 64  1  0
 37 65  1  0
M  END
$$$$
[H]OC(=O)C([H])([H])[C@@]([H])(C(=O)N([H])[C@]([H])(C(=O)N([H])[C@]([H])(C(=O)N([H])[C@]([H])(C(=O)N1C([H])([H])C([H])([H])C([H])([H])[C@@]1([H])C(=O)N([H])[C@]([H])(C(=O)N([H])[H])C([H])([H])[H])C([H])([H])c1c([H])c([H])c([H])c([H])c1[H])C([H])([H])C(=O)O[H])C([H])([H])c1c([H])c([H])c([H])c([H])c1[H])N([H])C(=O)[C@@]([H])(N([H])C(=O)C([H])([H])[H])C([H])([H])c1c([H])c([H])c([H])c([H])c1[H]
     RDKit          3D

119122  0  0  0  0  0  0  0  0999 V2000
   11.6024   -1.0968    1.3732 C   0  0  0  0  0  0  0  0  0  0  0  0
   11.0847    0.1454    0.6287 C   0  0  2  0  0  0  0  0  0  0  0  0
    9.6320    0.0862    0.7397 N   0  0  0  0  0  0  0  0  0  0  0  0
    8.8930    1.0066    1.4660 C   0  0  0  0  0  0  0  0  0  0  0  0
    9.6093    1.9595    2.0157 O   0  0  0  0  0  0  0  0  0  0  0  0
    7.4557    1.0739    1.7124 C   0  0  2  0  0  0  0  0  0  0  0  0
    7.2976    1.2654    3.2534 C   0  0  0  0  0  0  0  0  0  0  0  0
    7.2638   -0.1537    3.7491 C   0  0  0  0  0  0  0  0  0  0  0  0
    7.2682   -1.0207    2.5204 C   0  0  0  0  0  0  0  0  0  0  0  0
    6.6821   -0.1109    1.4998 N   0  0  0  0  0  0  0  0  0  0  0  0
    5.5917   -0.4799    0.7298 C   0  0  0  0  0  0  0  0  0  0  0  0
    5.2376   -1.7558    0.9266 O   0  0  0  0  0  0  0  0  0  0  0  0
    4.7252    0.1623   -0.2167 C   0  0  2  0  0  0  0  0  0  0  0  0
    4.9702    1.3690   -0.9908 C   0  0  0  0  0  0  0  0  0  0  0  0
    6.0470    1.3851   -1.9921 C   0  0  0  0  0  0  0  0  0  0  0  0
    5.8565    0.7382   -3.2299 C   0  0  0  0  0  0  0  0  0  0  0  0
    6.7722    0.7716   -4.2435 C   0  0  0  0  0  0  0  0  0  0  0  0
    7.9529    1.4566   -4.0974 C   0  0  0  0  0  0  0  0  0  0  0  0
    8.1676    2.0960   -2.9055 C   0  0  0  0  0  0  0  0  0  0  0  0
    7.2368    2.0561   -1.8899 C   0  0  0  0  0  0  0  0  0  0  0  0
    3.3666   -0.0696    0.2351 N   0  0  0  0  0  0  0  0  0  0  0  0
    2.3193   -0.7352   -0.4305 C   0  0  0  0  0  0  0  0  0  0  0  0
    2.5472   -1.1957   -1.5837 O   0  0  0  0  0  0  0  0  0  0  0  0
    1.0308   -0.8503    0.2533 C   0  0  2  0  0  0  0  0  0  0  0  0
    1.1846   -1.4775    1.6160 C   0  0  0  0  0  0  0  0  0  0  0  0
    1.7460   -2.8408    1.6058 C   0  0  0  0  0  0  0  0  0  0  0  0
    1.9786   -3.5441    2.7743 O   0  0  0  0  0  0  0  0  0  0  0  0
    2.0189   -3.3785    0.5133 O   0  0  0  0  0  0  0  0  0  0  0  0
   -0.0648   -1.4217   -0.4863 N   0  0  0  0  0  0  0  0  0  0  0  0
   -1.3078   -0.7778   -0.5754 C   0  0  0  0  0  0  0  0  0  0  0  0
   -1.3329    0.3569    0.0851 O   0  0  0  0  0  0  0  0  0  0  0  0
   -2.5683   -1.0934   -1.2302 C   0  0  2  0  0  0  0  0  0  0  0  0
   -2.5491   -1.0175   -2.7427 C   0  0  0  0  0  0  0  0  0  0  0  0
   -1.6103   -1.8929   -3.4110 C   0  0  0  0  0  0  0  0  0  0  0  0
   -1.8741   -3.1926   -3.7056 C   0  0  0  0  0  0  0  0  0  0  0  0
   -0.9914   -3.9855   -4.3665 C   0  0  0  0  0  0  0  0  0  0  0  0
    0.2378   -3.4771   -4.7689 C   0  0  0  0  0  0  0  0  0  0  0  0
    0.5416   -2.1616   -4.4863 C   0  0  0  0  0  0  0  0  0  0  0  0
   -0.3687   -1.3889   -3.8198 C   0  0  0  0  0  0  0  0  0  0  0  0
   -3.5734   -0.0985   -0.8175 N   0  0  0  0  0  0  0  0  0  0  0  0
   -4.8768   -0.3717   -0.3824 C   0  0  0  0  0  0  0  0  0  0  0  0
   -5.2991   -1.5668   -0.3708 O   0  0  0  0  0  0  0  0  0  0  0  0
   -5.7032    0.7610    0.0598 C   0  0  2  0  0  0  0  0  0  0  0  0
   -4.9119    1.3564    1.2601 C   0  0  0  0  0  0  0  0  0  0  0  0
   -4.7231    0.3939    2.3358 C   0  0  0  0  0  0  0  0  0  0  0  0
   -5.2192   -0.9029    2.3958 O   0  0  0  0  0  0  0  0  0  0  0  0
   -4.0409    0.7515    3.3361 O   0  0  0  0  0  0  0  0  0  0  0  0
   -7.0323    0.4689    0.4765 N   0  0  0  0  0  0  0  0  0  0  0  0
   -8.0453    1.4685    0.5152 C   0  0  0  0  0  0  0  0  0  0  0  0
   -7.6709    2.6337    0.1472 O   0  0  0  0  0  0  0  0  0  0  0  0
   -9.4360    1.2959    0.9316 C   0  0  2  0  0  0  0  0  0  0  0  0
  -10.1907    0.3214    0.0488 C   0  0  0  0  0  0  0  0  0  0  0  0
  -11.5920    0.1781    0.4811 C   0  0  0  0  0  0  0  0  0  0  0  0
  -11.9299   -0.8108    1.3772 C   0  0  0  0  0  0  0  0  0  0  0  0
  -13.2166   -0.9840    1.8346 C   0  0  0  0  0  0  0  0  0  0  0  0
  -14.2096   -0.1406    1.3842 C   0  0  0  0  0  0  0  0  0  0  0  0
  -13.8963    0.8445    0.4963 C   0  0  0  0  0  0  0  0  0  0  0  0
  -12.5899    1.0033    0.0457 C   0  0  0  0  0  0  0  0  0  0  0  0
  -10.0825    2.6034    0.9153 N   0  0  0  0  0  0  0  0  0  0  0  0
  -10.4952    3.1631    2.1472 C   0  0  0  0  0  0  0  0  0  0  0  0
  -11.1540    4.4920    2.1267 C   0  0  0  0  0  0  0  0  0  0  0  0
  -10.3025    2.5356    3.2373 O   0  0  0  0  0  0  0  0  0  0  0  0
   11.6117    0.1291   -0.7354 C   0  0  0  0  0  0  0  0  0  0  0  0
   13.0399    0.2353   -0.9408 N   0  0  0  0  0  0  0  0  0  0  0  0
   10.9284    0.0292   -1.7867 O   0  0  0  0  0  0  0  0  0  0  0  0
   12.6937   -1.0330    1.5097 H   0  0  0  0  0  0  0  0  0  0  0  0
   11.0371   -1.2712    2.2979 H   0  0  0  0  0  0  0  0  0  0  0  0
   11.4209   -1.9400    0.6543 H   0  0  0  0  0  0  0  0  0  0  0  0
   11.4310    1.0195    1.2362 H   0  0  0  0  0  0  0  0  0  0  0  0
    9.1759   -0.7091    0.2148 H   0  0  0  0  0  0  0  0  0  0  0  0
    7.0059    1.9671    1.2811 H   0  0  0  0  0  0  0  0  0  0  0  0
    8.1964    1.7581    3.6230 H   0  0  0  0  0  0  0  0  0  0  0  0
    6.3986    1.8486    3.4607 H   0  0  0  0  0  0  0  0  0  0  0  0
    6.3064   -0.3136    4.2890 H   0  0  0  0  0  0  0  0  0  0  0  0
    8.1409   -0.3629    4.4077 H   0  0  0  0  0  0  0  0  0  0  0  0
    8.2383   -1.3985    2.2526 H   0  0  0  0  0  0  0  0  0  0  0  0
    6.6018   -1.9002    2.6867 H   0  0  0  0  0  0  0  0  0  0  0  0
    4.7327   -0.6572   -1.1314 H   0  0  0  0  0  0  0  0  0  0  0  0
    5.1517    2.2832   -0.3363 H   0  0  0  0  0  0  0  0  0  0  0  0
    3.9940    1.6222   -1.5333 H   0  0  0  0  0  0  0  0  0  0  0  0
    4.9358    0.2022   -3.3451 H   0  0  0  0  0  0  0  0  0  0  0  0
    6.5761    0.2534   -5.1897 H   0  0  0  0  0  0  0  0  0  0  0  0
    8.6877    1.4819   -4.9131 H   0  0  0  0  0  0  0  0  0  0  0  0
    9.0864    2.6389   -2.7822 H   0  0  0  0  0  0  0  0  0  0  0  0
    7.4371    2.5833   -0.9643 H   0  0  0  0  0  0  0  0  0  0  0  0
    3.1577    0.3206    1.2030 H   0  0  0  0  0  0  0  0  0  0  0  0
    0.7097    0.2214    0.4978 H   0  0  0  0  0  0  0  0  0  0  0  0
    1.8626   -0.8380    2.2553 H   0  0  0  0  0  0  0  0  0  0  0  0
    0.2174   -1.5106    2.1647 H   0  0  0  0  0  0  0  0  0  0  0  0
    1.6981   -3.2076    3.6839 H   0  0  0  0  0  0  0  0  0  0  0  0
    0.0491   -2.3518   -0.9581 H   0  0  0  0  0  0  0  0  0  0  0  0
   -3.0070   -2.0869   -0.9935 H   0  0  0  0  0  0  0  0  0  0  0  0
   -3.5800   -1.3071   -3.0574 H   0  0  0  0  0  0  0  0  0  0  0  0
   -2.4064    0.0494   -3.0352 H   0  0  0  0  0  0  0  0  0  0  0  0
   -2.8328   -3.6164   -3.3952 H   0  0  0  0  0  0  0  0  0  0  0  0
   -1.1874   -5.0236   -4.6042 H   0  0  0  0  0  0  0  0  0  0  0  0
    0.9496   -4.0725   -5.2850 H   0  0  0  0  0  0  0  0  0  0  0  0
    1.5173   -1.7803   -4.8039 H   0  0  0  0  0  0  0  0  0  0  0  0
   -0.1301   -0.3555   -3.6006 H   0  0  0  0  0  0  0  0  0  0  0  0
   -3.2361    0.8805   -0.8816 H   0  0  0  0  0  0  0  0  0  0  0  0
   -5.6769    1.5708   -0.6679 H   0  0  0  0  0  0  0  0  0  0  0  0
   -3.9342    1.6456    0.8386 H   0  0  0  0  0  0  0  0  0  0  0  0
   -5.3991    2.3015    1.5721 H   0  0  0  0  0  0  0  0  0  0  0  0
   -4.4949   -1.6304    2.5064 H   0  0  0  0  0  0  0  0  0  0  0  0
   -7.2902   -0.4976    0.7594 H   0  0  0  0  0  0  0  0  0  0  0  0
   -9.4434    0.9165    1.9788 H   0  0  0  0  0  0  0  0  0  0  0  0
   -9.6984   -0.6669    0.1788 H   0  0  0  0  0  0  0  0  0  0  0  0
  -10.1924    0.6777   -0.9933 H   0  0  0  0  0  0  0  0  0  0  0  0
  -11.1518   -1.4900    1.7458 H   0  0  0  0  0  0  0  0  0  0  0  0
  -13.4017   -1.7956    2.5482 H   0  0  0  0  0  0  0  0  0  0  0  0
  -15.2178   -0.3052    1.7661 H   0  0  0  0  0  0  0  0  0  0  0  0
  -14.6616    1.5035    0.1399 H   0  0  0  0  0  0  0  0  0  0  0  0
  -12.4132    1.7971   -0.6542 H   0  0  0  0  0  0  0  0  0  0  0  0
  -10.2121    3.0711    0.0102 H   0  0  0  0  0  0  0  0  0  0  0  0
  -11.0061    5.0809    3.0529 H   0  0  0  0  0  0  0  0  0  0  0  0
  -12.2393    4.3264    2.0254 H   0  0  0  0  0  0  0  0  0  0  0  0
  -10.7291    5.0537    1.2765 H   0  0  0  0  0  0  0  0  0  0  0  0
   13.5378   -0.6495   -1.1372 H   0  0  0  0  0  0  0  0  0  0  0  0
   13.5548    1.1284   -0.8983 H   0  0  0  0  0  0  0  0  0  0  0  0
  1  2  1  0
  2  3  1  0
  3  4  1  0
  4  5  2  0
  4  6  1  0
  6  7  1  0
  7  8  1  0
  8  9  1  0
  9 10  1  0
 10 11  1  0
 11 12  2  0
 11 13  1  0
 13 14  1  0
 14 15  1  0
 15 16  2  0
 16 17  1  0
 17 18  2  0
 18 19  1  0
 19 20  2  0
 13 21  1  0
 21 22  1  0
 22 23  2  0
 22 24  1  0
 24 25  1  0
 25 26  1  0
 26 27  1  0
 26 28  2  0
 24 29  1  0
 29 30  1  0
 30 31  2  0
 30 32  1  0
 32 33  1  0
 33 34  1  0
 34 35  2  0
 35 36  1  0
 36 37  2  0
 37 38  1  0
 38 39  2  0
 32 40  1  0
 40 41  1  0
 41 42  2  0
 41 43  1  0
 43 44  1  0
 44 45  1  0
 45 46  1  0
 45 47  2  0
 43 48  1  0
 48 49  1  0
 49 50  2  0
 49 51  1  0
 51 52  1  0
 52 53  1  0
 53 54  2  0
 54 55  1  0
 55 56  2  0
 56 57  1  0
 57 58  2  0
 51 59  1  0
 59 60  1  0
 60 61  1  0
 60 62  2  0
  2 63  1  0
 63 64  1  0
 63 65  2  0
 10  6  1  0
 20 15  1  0
 39 34  1  0
 58 53  1  0
  1 66  1  0
  1 67  1  0
  1 68  1  0
  2 69  1  1
  3 70  1  0
  6 71  1  6
  7 72  1  0
  7 73  1  0
  8 74  1  0
  8 75  1  0
  9 76  1  0
  9 77  1  0
 13 78  1  6
 14 79  1  0
 14 80  1  0
 16 81  1  0
 17 82  1  0
 18 83  1  0
 19 84  1  0
 20 85  1  0
 21 86  1  0
 24 87  1  1
 25 88  1  0
 25 89  1  0
 27 90  1  0
 29 91  1  0
 32 92  1  6
 33 93  1  0
 33 94  1  0
 35 95  1  0
 36 96  1  0
 37 97  1  0
 38 98  1  0
 39 99  1  0
 40100  1  0
 43101  1  6
 44102  1  0
 44103  1  0
 46104  1  0
 48105  1  0
 51106  1  1
 52107  1  0
 52108  1  0
 54109  1  0
 55110  1  0
 56111  1  0
 57112  1  0
 58113  1  0
 59114  1  0
 61115  1  0
 61116  1  0
 61117  1  0
 64118  1  0
 64119  1  0
M  END
$$$$
[H]OC(=O)C([H])([H])[C@@]([H])(C(=O)N([H])[C@@]([H])(C(=O)N1C([H])([H])C([H])([H])C([H])([H])[C@@]1([H])C(=O)N([H])[C@]([H])(C(=O)N([H])[H])C([H])([H])[H])C([H])([H])c1c([H])c([H])c(O[H])c([H])c1[H])N([H])C(=O)[C@@]([H])(N([H])C(=O)[C@]([H])(N([H])C(=O)[C@@]([H])(N([H])C(=O)[C@]([H])(N([H])C(=O)[C@@]([H])(N([H])C(=O)C([H])([H])[H])C([H])([H])[H])C([H])([H])[H])C([H])([H])c1c([H])c([H])c([H])c([H])c1[H])C([H])([H])[H])C([H])([H])c1c([H])c([H])c([H])c([H])c1[H]
     RDKit          3D

137140  0  0  0  0  0  0  0  0999 V2000
  -13.5411   -2.4468    4.2595 C   0  0  0  0  0  0  0  0  0  0  0  0
  -12.7516   -2.4495    2.9778 C   0  0  2  0  0  0  0  0  0  0  0  0
  -12.1039   -1.1505    2.8120 N   0  0  0  0  0  0  0  0  0  0  0  0
  -10.7072   -1.0027    2.8450 C   0  0  0  0  0  0  0  0  0  0  0  0
  -10.0036   -2.0407    3.0148 O   0  0  0  0  0  0  0  0  0  0  0  0
  -10.0460    0.2979    2.6899 C   0  0  2  0  0  0  0  0  0  0  0  0
  -11.0503    1.4137    2.7686 C   0  0  0  0  0  0  0  0  0  0  0  0
  -11.4496    1.6546    1.3482 C   0  0  0  0  0  0  0  0  0  0  0  0
  -10.5939    0.7069    0.5095 C   0  0  0  0  0  0  0  0  0  0  0  0
   -9.4738    0.4622    1.3623 N   0  0  0  0  0  0  0  0  0  0  0  0
   -8.0966    0.3517    1.0685 C   0  0  0  0  0  0  0  0  0  0  0  0
   -7.2895    0.0697    2.0050 O   0  0  0  0  0  0  0  0  0  0  0  0
   -7.5375    0.5418   -0.2937 C   0  0  1  0  0  0  0  0  0  0  0  0
   -7.5549    2.0083   -0.7068 C   0  0  0  0  0  0  0  0  0  0  0  0
   -7.0360    2.1766   -2.0905 C   0  0  0  0  0  0  0  0  0  0  0  0
   -5.7618    2.5285   -2.4261 C   0  0  0  0  0  0  0  0  0  0  0  0
   -5.3184    2.6387   -3.7524 C   0  0  0  0  0  0  0  0  0  0  0  0
   -6.1820    2.3878   -4.7931 C   0  0  0  0  0  0  0  0  0  0  0  0
   -5.8083    2.4783   -6.1245 O   0  0  0  0  0  0  0  0  0  0  0  0
   -7.4699    2.0340   -4.4666 C   0  0  0  0  0  0  0  0  0  0  0  0
   -7.9122    1.9234   -3.1651 C   0  0  0  0  0  0  0  0  0  0  0  0
   -6.2029   -0.0169   -0.3390 N   0  0  0  0  0  0  0  0  0  0  0  0
   -5.0327    0.4399    0.2592 C   0  0  0  0  0  0  0  0  0  0  0  0
   -5.1018    1.5048    0.9762 O   0  0  0  0  0  0  0  0  0  0  0  0
   -3.7521   -0.2420    0.0901 C   0  0  2  0  0  0  0  0  0  0  0  0
   -3.4942   -1.1781    1.2866 C   0  0  0  0  0  0  0  0  0  0  0  0
   -4.4979   -2.2325    1.4415 C   0  0  0  0  0  0  0  0  0  0  0  0
   -4.7227   -3.0998    0.3701 O   0  0  0  0  0  0  0  0  0  0  0  0
   -5.1906   -2.4295    2.4810 O   0  0  0  0  0  0  0  0  0  0  0  0
   -2.6245    0.6805    0.1262 N   0  0  0  0  0  0  0  0  0  0  0  0
   -1.3579    0.4235   -0.4374 C   0  0  0  0  0  0  0  0  0  0  0  0
   -1.1330   -0.6448   -1.0120 O   0  0  0  0  0  0  0  0  0  0  0  0
   -0.2442    1.4393   -0.3483 C   0  0  2  0  0  0  0  0  0  0  0  0
   -0.2354    2.3128   -1.5533 C   0  0  0  0  0  0  0  0  0  0  0  0
    0.7533    3.3747   -1.6350 C   0  0  0  0  0  0  0  0  0  0  0  0
    1.9422    3.2554   -2.2823 C   0  0  0  0  0  0  0  0  0  0  0  0
    2.8949    4.2454   -2.3979 C   0  0  0  0  0  0  0  0  0  0  0  0
    2.6546    5.4628   -1.8261 C   0  0  0  0  0  0  0  0  0  0  0  0
    1.4492    5.6395   -1.1496 C   0  0  0  0  0  0  0  0  0  0  0  0
    0.5174    4.6293   -1.0512 C   0  0  0  0  0  0  0  0  0  0  0  0
    0.9625    0.8192    0.0464 N   0  0  0  0  0  0  0  0  0  0  0  0
    1.8146   -0.0010   -0.7219 C   0  0  0  0  0  0  0  0  0  0  0  0
    1.5920   -0.2683   -1.9168 O   0  0  0  0  0  0  0  0  0  0  0  0
    3.0185   -0.5663   -0.0797 C   0  0  1  0  0  0  0  0  0  0  0  0
    2.5464   -1.7944    0.7540 C   0  0  0  0  0  0  0  0  0  0  0  0
    4.0697   -0.9713   -0.9625 N   0  0  0  0  0  0  0  0  0  0  0  0
    5.4172   -0.7148   -0.4794 C   0  0  0  0  0  0  0  0  0  0  0  0
    5.5286   -0.1652    0.6734 O   0  0  0  0  0  0  0  0  0  0  0  0
    6.6257   -1.0441   -1.2109 C   0  0  2  0  0  0  0  0  0  0  0  0
    6.7514   -2.5254   -1.5601 C   0  0  0  0  0  0  0  0  0  0  0  0
    6.7813   -3.3561   -0.3461 C   0  0  0  0  0  0  0  0  0  0  0  0
    5.6703   -3.9651    0.2022 C   0  0  0  0  0  0  0  0  0  0  0  0
    5.7089   -4.7181    1.3498 C   0  0  0  0  0  0  0  0  0  0  0  0
    6.9019   -4.9006    2.0230 C   0  0  0  0  0  0  0  0  0  0  0  0
    8.0275   -4.2901    1.4760 C   0  0  0  0  0  0  0  0  0  0  0  0
    7.9783   -3.5451    0.3353 C   0  0  0  0  0  0  0  0  0  0  0  0
    7.7740   -0.7007   -0.3627 N   0  0  0  0  0  0  0  0  0  0  0  0
    8.9107   -0.0783   -0.8941 C   0  0  0  0  0  0  0  0  0  0  0  0
    8.9525    0.1671   -2.1209 O   0  0  0  0  0  0  0  0  0  0  0  0
   10.0482    0.2804   -0.0246 C   0  0  1  0  0  0  0  0  0  0  0  0
    9.9464   -0.3623    1.3729 C   0  0  0  0  0  0  0  0  0  0  0  0
   11.2972   -0.0400   -0.6336 N   0  0  0  0  0  0  0  0  0  0  0  0
   12.4681    0.7203   -0.3598 C   0  0  0  0  0  0  0  0  0  0  0  0
   12.3845    1.6915    0.4241 O   0  0  0  0  0  0  0  0  0  0  0  0
   13.7701    0.3744   -0.9724 C   0  0  2  0  0  0  0  0  0  0  0  0
   13.7684   -1.0933   -1.4016 C   0  0  0  0  0  0  0  0  0  0  0  0
   14.7902    0.5583    0.0204 N   0  0  0  0  0  0  0  0  0  0  0  0
   15.8815    1.4022   -0.1284 C   0  0  0  0  0  0  0  0  0  0  0  0
   16.8794    1.4963    1.0020 C   0  0  0  0  0  0  0  0  0  0  0  0
   16.0881    2.0892   -1.1454 O   0  0  0  0  0  0  0  0  0  0  0  0
  -13.5129   -2.8553    1.7977 C   0  0  0  0  0  0  0  0  0  0  0  0
  -14.2233   -4.0912    1.8178 N   0  0  0  0  0  0  0  0  0  0  0  0
  -13.5917   -2.1740    0.7334 O   0  0  0  0  0  0  0  0  0  0  0  0
  -14.5551   -2.0164    4.0666 H   0  0  0  0  0  0  0  0  0  0  0  0
  -13.0387   -1.7051    4.9430 H   0  0  0  0  0  0  0  0  0  0  0  0
  -13.6078   -3.4428    4.7432 H   0  0  0  0  0  0  0  0  0  0  0  0
  -11.9259   -3.2033    3.1245 H   0  0  0  0  0  0  0  0  0  0  0  0
  -12.7201   -0.3429    2.6651 H   0  0  0  0  0  0  0  0  0  0  0  0
   -9.2346    0.4362    3.4679 H   0  0  0  0  0  0  0  0  0  0  0  0
  -11.8729    1.2210    3.4721 H   0  0  0  0  0  0  0  0  0  0  0  0
  -10.4575    2.3204    3.0880 H   0  0  0  0  0  0  0  0  0  0  0  0
  -12.5203    1.4740    1.1440 H   0  0  0  0  0  0  0  0  0  0  0  0
  -11.1932    2.6923    1.0026 H   0  0  0  0  0  0  0  0  0  0  0  0
  -10.4114    1.0784   -0.4836 H   0  0  0  0  0  0  0  0  0  0  0  0
  -11.1417   -0.2874    0.4463 H   0  0  0  0  0  0  0  0  0  0  0  0
   -8.2090    0.0150   -1.0072 H   0  0  0  0  0  0  0  0  0  0  0  0
   -8.5717    2.3976   -0.6475 H   0  0  0  0  0  0  0  0  0  0  0  0
   -6.8946    2.6412   -0.0566 H   0  0  0  0  0  0  0  0  0  0  0  0
   -5.0554    2.7593   -1.6411 H   0  0  0  0  0  0  0  0  0  0  0  0
   -4.3140    2.9130   -3.9979 H   0  0  0  0  0  0  0  0  0  0  0  0
   -4.9201    2.7286   -6.4877 H   0  0  0  0  0  0  0  0  0  0  0  0
   -8.1573    1.8342   -5.2978 H   0  0  0  0  0  0  0  0  0  0  0  0
   -8.9185    1.6469   -2.9223 H   0  0  0  0  0  0  0  0  0  0  0  0
   -6.1118   -0.9112   -0.9192 H   0  0  0  0  0  0  0  0  0  0  0  0
   -3.7570   -0.9168   -0.7673 H   0  0  0  0  0  0  0  0  0  0  0  0
   -2.4954   -1.6595    1.1640 H   0  0  0  0  0  0  0  0  0  0  0  0
   -3.4736   -0.5716    2.2139 H   0  0  0  0  0  0  0  0  0  0  0  0
   -3.9398   -3.3943   -0.2262 H   0  0  0  0  0  0  0  0  0  0  0  0
   -2.7844    1.5819    0.6073 H   0  0  0  0  0  0  0  0  0  0  0  0
   -0.5432    2.1299    0.5125 H   0  0  0  0  0  0  0  0  0  0  0  0
   -0.0839    1.5973   -2.4329 H   0  0  0  0  0  0  0  0  0  0  0  0
   -1.2864    2.6987   -1.7755 H   0  0  0  0  0  0  0  0  0  0  0  0
    2.2048    2.3240   -2.7730 H   0  0  0  0  0  0  0  0  0  0  0  0
    3.8256    4.0834   -2.9299 H   0  0  0  0  0  0  0  0  0  0  0  0
    3.3902    6.2863   -1.8936 H   0  0  0  0  0  0  0  0  0  0  0  0
    1.3262    6.6345   -0.7241 H   0  0  0  0  0  0  0  0  0  0  0  0
   -0.3978    4.8466   -0.5107 H   0  0  0  0  0  0  0  0  0  0  0  0
    1.3303    0.9575    1.0623 H   0  0  0  0  0  0  0  0  0  0  0  0
    3.3602    0.1326    0.7160 H   0  0  0  0  0  0  0  0  0  0  0  0
    2.3253   -2.6505    0.0798 H   0  0  0  0  0  0  0  0  0  0  0  0
    3.3881   -2.0006    1.4348 H   0  0  0  0  0  0  0  0  0  0  0  0
    1.6654   -1.4901    1.3410 H   0  0  0  0  0  0  0  0  0  0  0  0
    3.8994   -1.4110   -1.8632 H   0  0  0  0  0  0  0  0  0  0  0  0
    6.7217   -0.4310   -2.1214 H   0  0  0  0  0  0  0  0  0  0  0  0
    7.6306   -2.6614   -2.2045 H   0  0  0  0  0  0  0  0  0  0  0  0
    5.8094   -2.7892   -2.1159 H   0  0  0  0  0  0  0  0  0  0  0  0
    4.7303   -3.8386   -0.3087 H   0  0  0  0  0  0  0  0  0  0  0  0
    4.8282   -5.1893    1.7504 H   0  0  0  0  0  0  0  0  0  0  0  0
    6.9785   -5.4771    2.9234 H   0  0  0  0  0  0  0  0  0  0  0  0
    8.9830   -4.4145    1.9903 H   0  0  0  0  0  0  0  0  0  0  0  0
    8.8878   -3.0861   -0.0556 H   0  0  0  0  0  0  0  0  0  0  0  0
    7.7197   -0.9378    0.6436 H   0  0  0  0  0  0  0  0  0  0  0  0
   10.0413    1.3862    0.1977 H   0  0  0  0  0  0  0  0  0  0  0  0
    8.9954   -0.0050    1.8023 H   0  0  0  0  0  0  0  0  0  0  0  0
   10.0832   -1.4385    1.3495 H   0  0  0  0  0  0  0  0  0  0  0  0
   10.7822    0.1291    1.9657 H   0  0  0  0  0  0  0  0  0  0  0  0
   11.4033   -0.8488   -1.3109 H   0  0  0  0  0  0  0  0  0  0  0  0
   13.9355    0.9618   -1.8833 H   0  0  0  0  0  0  0  0  0  0  0  0
   14.8301   -1.3992   -1.4795 H   0  0  0  0  0  0  0  0  0  0  0  0
   13.2844   -1.1876   -2.3996 H   0  0  0  0  0  0  0  0  0  0  0  0
   13.2441   -1.7332   -0.6590 H   0  0  0  0  0  0  0  0  0  0  0  0
   14.6681    0.0064    0.9077 H   0  0  0  0  0  0  0  0  0  0  0  0
   16.3402    1.2175    1.9366 H   0  0  0  0  0  0  0  0  0  0  0  0
   17.2559    2.5276    1.1401 H   0  0  0  0  0  0  0  0  0  0  0  0
   17.7376    0.8517    0.7808 H   0  0  0  0  0  0  0  0  0  0  0  0
  -15.1071   -4.1695    2.3597 H   0  0  0  0  0  0  0  0  0  0  0  0
  -13.8653   -4.9151    1.3046 H   0  0  0  0  0  0  0  0  0  0  0  0
  1  2  1  0
  2  3  1  0
  3  4  1  0
  4  5  2  0
  4  6  1  0
  6  7  1  0
  7  8  1  0
  8  9  1  0
  9 10  1  0
 10 11  1  0
 11 12  2  0
 11 13  1  0
 13 14  1  0
 14 15  1  0
 15 16  2  0
 16 17  1  0
 17 18  2  0
 18 19  1  0
 18 20  1  0
 20 21  2  0
 13 22  1  0
 22 23  1  0
 23 24  2  0
 23 25  1  0
 25 26  1  0
 26 27  1  0
 27 28  1  0
 27 29  2  0
 25 30  1  0
 30 31  1  0
 31 32  2  0
 31 33  1  0
 33 34  1  0
 34 35  1  0
 35 36  2  0
 36 37  1  0
 37 38  2  0
 38 39  1  0
 39 40  2  0
 33 41  1  0
 41 42  1  0
 42 43  2  0
 42 44  1  0
 44 45  1  0
 44 46  1  0
 46 47  1  0
 47 48  2  0
 47 49  1  0
 49 50  1  0
 50 51  1  0
 51 52  2  0
 52 53  1  0
 53 54  2  0
 54 55  1  0
 55 56  2  0
 49 57  1  0
 57 58  1  0
 58 59  2  0
 58 60  1  0
 60 61  1  0
 60 62  1  0
 62 63  1  0
 63 64  2  0
 63 65  1  0
 65 66  1  0
 65 67  1  0
 67 68  1  0
 68 69  1  0
 68 70  2  0
  2 71  1  0
 71 72  1  0
 71 73  2  0
 10  6  1  0
 21 15  1  0
 40 35  1  0
 56 51  1  0
  1 74  1  0
  1 75  1  0
  1 76  1  0
  2 77  1  1
  3 78  1  0
  6 79  1  1
  7 80  1  0
  7 81  1  0
  8 82  1  0
  8 83  1  0
  9 84  1  0
  9 85  1  0
 13 86  1  6
 14 87  1  0
 14 88  1  0
 16 89  1  0
 17 90  1  0
 19 91  1  0
 20 92  1  0
 21 93  1  0
 22 94  1  0
 25 95  1  6
 26 96  1  0
 26 97  1  0
 28 98  1  0
 30 99  1  0
 33100  1  1
 34101  1  0
 34102  1  0
 36103  1  0
 37104  1  0
 38105  1  0
 39106  1  0
 40107  1  0
 41108  1  0
 44109  1  1
 45110  1  0
 45111  1  0
 45112  1  0
 46113  1  0
 49114  1  6
 50115  1  0
 50116  1  0
 52117  1  0
 53118  1  0
 54119  1  0
 55120  1  0
 56121  1  0
 57122  1  0
 60123  1  1
 61124  1  0
 61125  1  0
 61126  1  0
 62127  1  0
 65128  1  6
 66129  1  0
 66130  1  0
 66131  1  0
 67132  1  0
 69133  1  0
 69134  1  0
 69135  1  0
 72136  1  0
 72137  1  0
M  END
$$$$
[H]c1nc(N([H])c2c([H])c([H])c(N3C([H])([H])C([H])([H])C([H])([H])[C@@]([H])(N4C([H])([H])C([H])([H])N(C([H])([H])[H])C([H])([H])C4([H])[H])C3([H])[H])c([H])c2OC([H])([H])[H])nc(N([H])c2c([H])c([H])c([H])c([H])c2S(=O)(=O)C(C([H])([H])[H])(C([H])([H])[H])C([H])([H])[H])c1Cl
     RDKit          3D

 85 89  0  0  0  0  0  0  0  0999 V2000
   -2.3915   -4.3467   -3.0450 C   0  0  0  0  0  0  0  0  0  0  0  0
   -1.3582   -3.9811   -2.1755 O   0  0  0  0  0  0  0  0  0  0  0  0
   -1.3009   -2.6835   -1.6985 C   0  0  0  0  0  0  0  0  0  0  0  0
   -2.2501   -1.7493   -2.0702 C   0  0  0  0  0  0  0  0  0  0  0  0
   -2.2308   -0.4534   -1.6216 C   0  0  0  0  0  0  0  0  0  0  0  0
   -1.1971   -0.1210   -0.7624 C   0  0  0  0  0  0  0  0  0  0  0  0
   -0.2510   -1.0590   -0.3937 C   0  0  0  0  0  0  0  0  0  0  0  0
   -0.2587   -2.3528   -0.8352 C   0  0  0  0  0  0  0  0  0  0  0  0
    0.6536   -3.3202   -0.4254 N   0  0  0  0  0  0  0  0  0  0  0  0
    1.9159   -3.2218    0.1780 C   0  0  0  0  0  0  0  0  0  0  0  0
    2.5041   -4.4218    0.5105 N   0  0  0  0  0  0  0  0  0  0  0  0
    3.7147   -4.4683    1.0495 C   0  0  0  0  0  0  0  0  0  0  0  0
    4.3819   -3.2853    1.2731 C   0  0  0  0  0  0  0  0  0  0  0  0
    5.9874   -3.3083    1.9998 Cl  0  0  0  0  0  0  0  0  0  0  0  0
    3.8269   -2.0343    0.9499 C   0  0  0  0  0  0  0  0  0  0  0  0
    4.5689   -0.8677    1.2318 N   0  0  0  0  0  0  0  0  0  0  0  0
    4.3058    0.4643    0.9652 C   0  0  0  0  0  0  0  0  0  0  0  0
    3.2239    0.8775    0.2440 C   0  0  0  0  0  0  0  0  0  0  0  0
    2.9007    2.2202    0.0129 C   0  0  0  0  0  0  0  0  0  0  0  0
    3.7114    3.1883    0.5355 C   0  0  0  0  0  0  0  0  0  0  0  0
    4.7947    2.7943    1.2532 C   0  0  0  0  0  0  0  0  0  0  0  0
    5.1409    1.4517    1.4974 C   0  0  0  0  0  0  0  0  0  0  0  0
    6.6309    1.1685    2.3053 S   0  0  0  0  0  0  0  0  0  0  0  0
    6.9858    2.4576    3.0883 O   0  0  0  0  0  0  0  0  0  0  0  0
    6.5696    0.1345    3.3996 O   0  0  0  0  0  0  0  0  0  0  0  0
    8.0171    0.8558    1.2862 C   0  0  0  0  0  0  0  0  0  0  0  0
    9.2694    0.5883    2.1436 C   0  0  0  0  0  0  0  0  0  0  0  0
    7.9060   -0.2467    0.3064 C   0  0  0  0  0  0  0  0  0  0  0  0
    8.4205    2.1655    0.5325 C   0  0  0  0  0  0  0  0  0  0  0  0
    2.6050   -2.1055    0.4145 N   0  0  0  0  0  0  0  0  0  0  0  0
   -3.1966    0.4869   -2.0265 N   0  0  0  0  0  0  0  0  0  0  0  0
   -3.8583    0.3629   -3.2943 C   0  0  0  0  0  0  0  0  0  0  0  0
   -5.3648    0.4939   -3.1450 C   0  0  0  0  0  0  0  0  0  0  0  0
   -5.5652    1.8774   -2.5158 C   0  0  0  0  0  0  0  0  0  0  0  0
   -5.0799    1.7185   -1.0784 C   0  0  2  0  0  0  0  0  0  0  0  0
   -3.5762    1.6210   -1.1711 C   0  0  0  0  0  0  0  0  0  0  0  0
   -5.7110    0.5923   -0.5152 N   0  0  0  0  0  0  0  0  0  0  0  0
   -7.1252    0.6667   -0.4179 C   0  0  0  0  0  0  0  0  0  0  0  0
   -7.4799    1.3319    0.8964 C   0  0  0  0  0  0  0  0  0  0  0  0
   -7.0770    0.5417    2.0254 N   0  0  0  0  0  0  0  0  0  0  0  0
   -6.9859    1.2342    3.2597 C   0  0  0  0  0  0  0  0  0  0  0  0
   -6.0256   -0.3874    1.7413 C   0  0  0  0  0  0  0  0  0  0  0  0
   -5.1223   -0.0205    0.6103 C   0  0  0  0  0  0  0  0  0  0  0  0
   -2.3809   -3.8030   -3.9999 H   0  0  0  0  0  0  0  0  0  0  0  0
   -3.3526   -4.1131   -2.5452 H   0  0  0  0  0  0  0  0  0  0  0  0
   -2.4058   -5.4321   -3.2591 H   0  0  0  0  0  0  0  0  0  0  0  0
   -3.0274   -2.1090   -2.7397 H   0  0  0  0  0  0  0  0  0  0  0  0
   -1.1468    0.8872   -0.3869 H   0  0  0  0  0  0  0  0  0  0  0  0
    0.5163   -0.7066    0.3141 H   0  0  0  0  0  0  0  0  0  0  0  0
    0.3255   -4.3398   -0.6034 H   0  0  0  0  0  0  0  0  0  0  0  0
    4.2228   -5.3892    1.3306 H   0  0  0  0  0  0  0  0  0  0  0  0
    5.4744   -1.0563    1.7569 H   0  0  0  0  0  0  0  0  0  0  0  0
    2.5439    0.1986   -0.2376 H   0  0  0  0  0  0  0  0  0  0  0  0
    2.0389    2.5204   -0.5597 H   0  0  0  0  0  0  0  0  0  0  0  0
    3.4957    4.2513    0.3816 H   0  0  0  0  0  0  0  0  0  0  0  0
    5.4250    3.5698    1.6575 H   0  0  0  0  0  0  0  0  0  0  0  0
    8.9580   -0.0908    2.9559 H   0  0  0  0  0  0  0  0  0  0  0  0
    9.5775    1.5533    2.5900 H   0  0  0  0  0  0  0  0  0  0  0  0
   10.0752    0.1627    1.5004 H   0  0  0  0  0  0  0  0  0  0  0  0
    8.7797   -0.1787   -0.4114 H   0  0  0  0  0  0  0  0  0  0  0  0
    7.9708   -1.2071    0.8124 H   0  0  0  0  0  0  0  0  0  0  0  0
    7.0221   -0.1910   -0.3547 H   0  0  0  0  0  0  0  0  0  0  0  0
    8.5035    2.9574    1.2753 H   0  0  0  0  0  0  0  0  0  0  0  0
    9.4136    1.9367    0.1007 H   0  0  0  0  0  0  0  0  0  0  0  0
    7.7121    2.3442   -0.2845 H   0  0  0  0  0  0  0  0  0  0  0  0
   -3.4977    1.1360   -4.0230 H   0  0  0  0  0  0  0  0  0  0  0  0
   -3.6549   -0.6009   -3.7730 H   0  0  0  0  0  0  0  0  0  0  0  0
   -5.8075    0.4360   -4.1399 H   0  0  0  0  0  0  0  0  0  0  0  0
   -5.6815   -0.3059   -2.4576 H   0  0  0  0  0  0  0  0  0  0  0  0
   -6.6104    2.1442   -2.6122 H   0  0  0  0  0  0  0  0  0  0  0  0
   -4.8756    2.5596   -3.0729 H   0  0  0  0  0  0  0  0  0  0  0  0
   -5.3150    2.6838   -0.5775 H   0  0  0  0  0  0  0  0  0  0  0  0
   -3.2313    2.5251   -1.7152 H   0  0  0  0  0  0  0  0  0  0  0  0
   -3.0550    1.5982   -0.2138 H   0  0  0  0  0  0  0  0  0  0  0  0
   -7.5014   -0.3960   -0.3165 H   0  0  0  0  0  0  0  0  0  0  0  0
   -7.6655    1.1653   -1.2149 H   0  0  0  0  0  0  0  0  0  0  0  0
   -8.5842    1.4282    0.9217 H   0  0  0  0  0  0  0  0  0  0  0  0
   -7.0648    2.3516    0.9926 H   0  0  0  0  0  0  0  0  0  0  0  0
   -7.5852    0.7708    4.0796 H   0  0  0  0  0  0  0  0  0  0  0  0
   -5.9480    1.4119    3.5970 H   0  0  0  0  0  0  0  0  0  0  0  0
   -7.4397    2.2580    3.1154 H   0  0  0  0  0  0  0  0  0  0  0  0
   -5.4207   -0.4859    2.6889 H   0  0  0  0  0  0  0  0  0  0  0  0
   -6.5014   -1.3951    1.6097 H   0  0  0  0  0  0  0  0  0  0  0  0
   -4.2538    0.5309    1.0404 H   0  0  0  0  0  0  0  0  0  0  0  0
   -4.6764   -1.0016    0.2593 H   0  0  0  0  0  0  0  0  0  0  0  0
  1  2  1  0
  2  3  1  0
  3  4  2  0
  4  5  1  0
  5  6  2  0
  6  7  1  0
  7  8  2  0
  8  9  1  0
  9 10  1  0
 10 11  2  0
 11 12  1  0
 12 13  2  0
 13 14  1  0
 13 15  1  0
 15 16  1  0
 16 17  1  0
 17 18  2  0
 18 19  1  0
 19 20  2  0
 20 21  1  0
 21 22  2  0
 22 23  1  0
 23 24  2  0
 23 25  2  0
 23 26  1  0
 26 27  1  0
 26 28  1  0
 26 29  1  0
 15 30  2  0
  5 31  1  0
 31 32  1  0
 32 33  1  0
 33 34  1  0
 34 35  1  0
 35 36  1  0
 35 37  1  0
 37 38  1  0
 38 39  1  0
 39 40  1  0
 40 41  1  0
 40 42  1  0
 42 43  1  0
  8  3  1  0
 30 10  1  0
 36 31  1  0
 43 37  1  0
 22 17  1  0
  1 44  1  0
  1 45  1  0
  1 46  1  0
  4 47  1  0
  6 48  1  0
  7 49  1  0
  9 50  1  0
 12 51  1  0
 16 52  1  0
 18 53  1  0
 19 54  1  0
 20 55  1  0
 21 56  1  0
 27 57  1  0
 27 58  1  0
 27 59  1  0
 28 60  1  0
 28 61  1  0
 28 62  1  0
 29 63  1  0
 29 64  1  0
 29 65  1  0
 32 66  1  0
 32 67  1  0
 33 68  1  0
 33 69  1  0
 34 70  1  0
 34 71  1  0
 35 72  1  1
 36 73  1  0
 36 74  1  0
 38 75  1  0
 38 76  1  0
 39 77  1  0
 39 78  1  0
 41 79  1  0
 41 80  1  0
 41 81  1  0
 42 82  1  0
 42 83  1  0
 43 84  1  0
 43 85  1  0
M  END
$$$$
[H]c1c([H])c(S(=O)(=O)N([H])[C@]([H])(C(=O)OC(C([H])([H])[H])(C([H])([H])[H])C([H])([H])[H])C([H])(C([H])([H])[H])C([H])([H])[H])c([H])c([H])c1C(F)(F)F
     RDKit          3D

 47 47  0  0  0  0  0  0  0  0999 V2000
   -1.8324   -2.4408    1.2715 C   0  0  0  0  0  0  0  0  0  0  0  0
   -1.7357   -2.3533   -0.2530 C   0  0  0  0  0  0  0  0  0  0  0  0
   -1.2282   -3.6799   -0.7534 C   0  0  0  0  0  0  0  0  0  0  0  0
   -0.7400   -1.2743   -0.6404 C   0  0  2  0  0  0  0  0  0  0  0  0
    0.5336   -1.5298   -0.1428 N   0  0  0  0  0  0  0  0  0  0  0  0
    1.8412   -1.5957   -1.1828 S   0  0  0  0  0  0  0  0  0  0  0  0
    1.4321   -1.3308   -2.6439 O   0  0  0  0  0  0  0  0  0  0  0  0
    2.4476   -2.9694   -1.1940 O   0  0  0  0  0  0  0  0  0  0  0  0
    3.0436   -0.3564   -0.8012 C   0  0  0  0  0  0  0  0  0  0  0  0
    4.0525   -0.0188   -1.6531 C   0  0  0  0  0  0  0  0  0  0  0  0
    5.0014    0.9515   -1.2888 C   0  0  0  0  0  0  0  0  0  0  0  0
    4.9567    1.5940   -0.0773 C   0  0  0  0  0  0  0  0  0  0  0  0
    3.9242    1.2372    0.7688 C   0  0  0  0  0  0  0  0  0  0  0  0
    2.9864    0.2867    0.4286 C   0  0  0  0  0  0  0  0  0  0  0  0
    5.9638    2.5984    0.3478 C   0  0  0  0  0  0  0  0  0  0  0  0
    7.1881    1.9294    0.5408 F   0  0  0  0  0  0  0  0  0  0  0  0
    6.1753    3.5018   -0.6575 F   0  0  0  0  0  0  0  0  0  0  0  0
    5.6091    3.1215    1.5516 F   0  0  0  0  0  0  0  0  0  0  0  0
   -1.2889    0.0544   -0.2218 C   0  0  0  0  0  0  0  0  0  0  0  0
   -0.5253    1.0270   -0.1122 O   0  0  0  0  0  0  0  0  0  0  0  0
   -2.5981    0.2540    0.0493 O   0  0  0  0  0  0  0  0  0  0  0  0
   -3.3599    1.3207    0.4202 C   0  0  0  0  0  0  0  0  0  0  0  0
   -2.9813    2.0290    1.7005 C   0  0  0  0  0  0  0  0  0  0  0  0
   -4.7754    0.7658    0.6723 C   0  0  0  0  0  0  0  0  0  0  0  0
   -3.5506    2.3966   -0.6692 C   0  0  0  0  0  0  0  0  0  0  0  0
   -1.4201   -3.3929    1.6456 H   0  0  0  0  0  0  0  0  0  0  0  0
   -2.8810   -2.3922    1.6093 H   0  0  0  0  0  0  0  0  0  0  0  0
   -1.2161   -1.6501    1.7529 H   0  0  0  0  0  0  0  0  0  0  0  0
   -2.7206   -2.1926   -0.6891 H   0  0  0  0  0  0  0  0  0  0  0  0
   -1.3766   -3.7911   -1.8577 H   0  0  0  0  0  0  0  0  0  0  0  0
   -0.1823   -3.8662   -0.4587 H   0  0  0  0  0  0  0  0  0  0  0  0
   -1.7991   -4.5063   -0.2689 H   0  0  0  0  0  0  0  0  0  0  0  0
   -0.6852   -1.2106   -1.7553 H   0  0  0  0  0  0  0  0  0  0  0  0
    0.6733   -1.5029    0.8602 H   0  0  0  0  0  0  0  0  0  0  0  0
    4.1300   -0.4926   -2.6049 H   0  0  0  0  0  0  0  0  0  0  0  0
    5.8032    1.2198   -1.9642 H   0  0  0  0  0  0  0  0  0  0  0  0
    3.8839    1.7440    1.7114 H   0  0  0  0  0  0  0  0  0  0  0  0
    2.1729   -0.0036    1.0842 H   0  0  0  0  0  0  0  0  0  0  0  0
   -2.3462    1.4777    2.3887 H   0  0  0  0  0  0  0  0  0  0  0  0
   -3.9128    2.3254    2.2686 H   0  0  0  0  0  0  0  0  0  0  0  0
   -2.5416    3.0296    1.4230 H   0  0  0  0  0  0  0  0  0  0  0  0
   -5.0172    0.8783    1.7263 H   0  0  0  0  0  0  0  0  0  0  0  0
   -4.8288   -0.3186    0.4117 H   0  0  0  0  0  0  0  0  0  0  0  0
   -5.5105    1.3490    0.0710 H   0  0  0  0  0  0  0  0  0  0  0  0
   -2.6037    2.4305   -1.2305 H   0  0  0  0  0  0  0  0  0  0  0  0
   -4.3246    1.9871   -1.3715 H   0  0  0  0  0  0  0  0  0  0  0  0
   -3.8370    3.3595   -0.2122 H   0  0  0  0  0  0  0  0  0  0  0  0
  1  2  1  0
  2  3  1  0
  2  4  1  0
  4  5  1  0
  5  6  1  0
  6  7  2  0
  6  8  2  0
  6  9  1  0
  9 10  2  0
 10 11  1  0
 11 12  2  0
 12 13  1  0
 13 14  2  0
 12 15  1  0
 15 16  1  0
 15 17  1  0
 15 18  1  0
  4 19  1  0
 19 20  2  0
 19 21  1  0
 21 22  1  0
 22 23  1  0
 22 24  1  0
 22 25  1  0
 14  9  1  0
  1 26  1  0
  1 27  1  0
  1 28  1  0
  2 29  1  0
  3 30  1  0
  3 31  1  0
  3 32  1  0
  4 33  1  6
  5 34  1  0
 10 35  1  0
 11 36  1  0
 13 37  1  0
 14 38  1  0
 23 39  1  0
 23 40  1  0
 23 41  1  0
 24 42  1  0
 24 43  1  0
 24 44  1  0
 25 45  1  0
 25 46  1  0
 25 47  1  0
M  END
$$$$
[H]c1c([H])c([H])c(C([H])([H])OC(=O)N([H])[C@]([H])(C(=O)N([H])[C@]([H])(C(=O)N([H])[C@]([H])(C(=O)N([H])[C@]([H])(C(=O)N([H])[H])C([H])([H])c2c([H])c([H])c([H])c([H])c2[H])C([H])(C([H])([H])[H])C([H])([H])[H])C([H])([H])c2c([H])c([H])c([H])c([H])c2[H])C([H])(C([H])([H])[H])C([H])([H])[H])c([H])c1[H]
     RDKit          3D

 92 94  0  0  0  0  0  0  0  0999 V2000
   -4.2541    0.2363    3.0886 C   0  0  0  0  0  0  0  0  0  0  0  0
   -3.7547   -0.6684    2.0149 C   0  0  0  0  0  0  0  0  0  0  0  0
   -4.6108   -1.9387    2.0984 C   0  0  0  0  0  0  0  0  0  0  0  0
   -3.8445   -0.1188    0.5968 C   0  0  2  0  0  0  0  0  0  0  0  0
   -5.0888    0.1188    0.0158 N   0  0  0  0  0  0  0  0  0  0  0  0
   -6.3735    0.3931    0.4510 C   0  0  0  0  0  0  0  0  0  0  0  0
   -6.8523    0.4947    1.5846 O   0  0  0  0  0  0  0  0  0  0  0  0
   -7.3575    0.6033   -0.5784 O   0  0  0  0  0  0  0  0  0  0  0  0
   -8.6745    0.8708   -0.2476 C   0  0  0  0  0  0  0  0  0  0  0  0
   -8.7975    2.1299    0.5209 C   0  0  0  0  0  0  0  0  0  0  0  0
   -9.9293    2.3964    1.2761 C   0  0  0  0  0  0  0  0  0  0  0  0
  -10.0585    3.5553    1.9756 C   0  0  0  0  0  0  0  0  0  0  0  0
   -9.0947    4.5370    1.9892 C   0  0  0  0  0  0  0  0  0  0  0  0
   -7.9552    4.2771    1.2333 C   0  0  0  0  0  0  0  0  0  0  0  0
   -7.8103    3.1078    0.5191 C   0  0  0  0  0  0  0  0  0  0  0  0
   -2.9294   -0.8780   -0.2842 C   0  0  0  0  0  0  0  0  0  0  0  0
   -3.4054   -1.8910   -0.9406 O   0  0  0  0  0  0  0  0  0  0  0  0
   -1.5739   -0.5285   -0.4169 N   0  0  0  0  0  0  0  0  0  0  0  0
   -0.6900   -1.3623   -1.2928 C   0  0  1  0  0  0  0  0  0  0  0  0
   -0.8945   -0.8670   -2.6925 C   0  0  0  0  0  0  0  0  0  0  0  0
   -0.1674   -1.5751   -3.7506 C   0  0  0  0  0  0  0  0  0  0  0  0
   -0.6900   -2.7758   -4.2569 C   0  0  0  0  0  0  0  0  0  0  0  0
   -0.0804   -3.4612   -5.2733 C   0  0  0  0  0  0  0  0  0  0  0  0
    1.0842   -2.9888   -5.8439 C   0  0  0  0  0  0  0  0  0  0  0  0
    1.6311   -1.8206   -5.3832 C   0  0  0  0  0  0  0  0  0  0  0  0
    0.9856   -1.1488   -4.3477 C   0  0  0  0  0  0  0  0  0  0  0  0
    0.6266   -1.2653   -0.7031 C   0  0  0  0  0  0  0  0  0  0  0  0
    0.7545   -0.4795    0.3116 O   0  0  0  0  0  0  0  0  0  0  0  0
    1.8375   -1.9107   -1.0598 N   0  0  0  0  0  0  0  0  0  0  0  0
    3.0617   -1.6472   -0.2704 C   0  0  1  0  0  0  0  0  0  0  0  0
    4.0149   -2.7621   -0.2885 C   0  0  0  0  0  0  0  0  0  0  0  0
    4.5560   -3.1167   -1.6424 C   0  0  0  0  0  0  0  0  0  0  0  0
    5.0160   -2.8229    0.8284 C   0  0  0  0  0  0  0  0  0  0  0  0
    3.5559   -0.2856   -0.5710 C   0  0  0  0  0  0  0  0  0  0  0  0
    2.9805    0.3906   -1.4374 O   0  0  0  0  0  0  0  0  0  0  0  0
    4.6593    0.2657    0.1110 N   0  0  0  0  0  0  0  0  0  0  0  0
    5.0704    1.6490   -0.2104 C   0  0  1  0  0  0  0  0  0  0  0  0
    5.2821    2.4783    1.0058 C   0  0  0  0  0  0  0  0  0  0  0  0
    6.3112    2.0037    1.9579 C   0  0  0  0  0  0  0  0  0  0  0  0
    7.6129    2.4435    1.8658 C   0  0  0  0  0  0  0  0  0  0  0  0
    8.6173    2.0260    2.7328 C   0  0  0  0  0  0  0  0  0  0  0  0
    8.2429    1.1378    3.7021 C   0  0  0  0  0  0  0  0  0  0  0  0
    6.9518    0.6647    3.8413 C   0  0  0  0  0  0  0  0  0  0  0  0
    6.0102    1.1072    2.9659 C   0  0  0  0  0  0  0  0  0  0  0  0
    6.3126    1.5828   -1.0106 C   0  0  0  0  0  0  0  0  0  0  0  0
    6.8311    2.7736   -1.5681 N   0  0  0  0  0  0  0  0  0  0  0  0
    6.8773    0.5021   -1.1877 O   0  0  0  0  0  0  0  0  0  0  0  0
   -4.4900    1.2742    2.7686 H   0  0  0  0  0  0  0  0  0  0  0  0
   -3.4281    0.2892    3.8815 H   0  0  0  0  0  0  0  0  0  0  0  0
   -5.1388   -0.1510    3.6454 H   0  0  0  0  0  0  0  0  0  0  0  0
   -2.7220   -0.9440    2.1862 H   0  0  0  0  0  0  0  0  0  0  0  0
   -5.3340   -1.8892    2.9464 H   0  0  0  0  0  0  0  0  0  0  0  0
   -3.9359   -2.7839    2.2810 H   0  0  0  0  0  0  0  0  0  0  0  0
   -5.1192   -2.1148    1.1187 H   0  0  0  0  0  0  0  0  0  0  0  0
   -3.3461    0.9180    0.7723 H   0  0  0  0  0  0  0  0  0  0  0  0
   -5.0241    0.0920   -1.1097 H   0  0  0  0  0  0  0  0  0  0  0  0
   -9.0990    0.0083    0.3508 H   0  0  0  0  0  0  0  0  0  0  0  0
   -9.2907    0.9838   -1.1733 H   0  0  0  0  0  0  0  0  0  0  0  0
  -10.7096    1.6426    1.2866 H   0  0  0  0  0  0  0  0  0  0  0  0
  -10.9736    3.7142    2.5420 H   0  0  0  0  0  0  0  0  0  0  0  0
   -9.2012    5.4478    2.5394 H   0  0  0  0  0  0  0  0  0  0  0  0
   -7.1873    5.0456    1.2356 H   0  0  0  0  0  0  0  0  0  0  0  0
   -6.9073    2.9479   -0.0650 H   0  0  0  0  0  0  0  0  0  0  0  0
   -1.2088    0.2966    0.0911 H   0  0  0  0  0  0  0  0  0  0  0  0
   -1.1879   -2.3744   -1.2280 H   0  0  0  0  0  0  0  0  0  0  0  0
   -0.7399    0.2326   -2.8051 H   0  0  0  0  0  0  0  0  0  0  0  0
   -2.0035   -0.9957   -2.8908 H   0  0  0  0  0  0  0  0  0  0  0  0
   -1.6120   -3.2125   -3.8587 H   0  0  0  0  0  0  0  0  0  0  0  0
   -0.4735   -4.3997   -5.6800 H   0  0  0  0  0  0  0  0  0  0  0  0
    1.6095   -3.4806   -6.6463 H   0  0  0  0  0  0  0  0  0  0  0  0
    2.5492   -1.4065   -5.8060 H   0  0  0  0  0  0  0  0  0  0  0  0
    1.4764   -0.2151   -4.0293 H   0  0  0  0  0  0  0  0  0  0  0  0
    1.8452   -2.5753   -1.8408 H   0  0  0  0  0  0  0  0  0  0  0  0
    2.6625   -1.5233    0.7933 H   0  0  0  0  0  0  0  0  0  0  0  0
    3.3348   -3.6889   -0.0478 H   0  0  0  0  0  0  0  0  0  0  0  0
    4.6051   -4.2149   -1.8095 H   0  0  0  0  0  0  0  0  0  0  0  0
    3.9384   -2.7225   -2.4638 H   0  0  0  0  0  0  0  0  0  0  0  0
    5.6314   -2.7800   -1.7690 H   0  0  0  0  0  0  0  0  0  0  0  0
    4.6157   -2.2611    1.7224 H   0  0  0  0  0  0  0  0  0  0  0  0
    5.9555   -2.3714    0.4999 H   0  0  0  0  0  0  0  0  0  0  0  0
    5.2067   -3.8640    1.1771 H   0  0  0  0  0  0  0  0  0  0  0  0
    5.2292   -0.1767    0.8292 H   0  0  0  0  0  0  0  0  0  0  0  0
    4.2453    2.1355   -0.7934 H   0  0  0  0  0  0  0  0  0  0  0  0
    4.3157    2.6982    1.5478 H   0  0  0  0  0  0  0  0  0  0  0  0
    5.6134    3.4914    0.6219 H   0  0  0  0  0  0  0  0  0  0  0  0
    7.9582    3.1522    1.1094 H   0  0  0  0  0  0  0  0  0  0  0  0
    9.6390    2.3787    2.6490 H   0  0  0  0  0  0  0  0  0  0  0  0
    8.9939    0.7668    4.4133 H   0  0  0  0  0  0  0  0  0  0  0  0
    6.7407   -0.0465    4.6527 H   0  0  0  0  0  0  0  0  0  0  0  0
    4.9849    0.7736    3.0244 H   0  0  0  0  0  0  0  0  0  0  0  0
    6.1446    3.4708   -1.9141 H   0  0  0  0  0  0  0  0  0  0  0  0
    7.8413    2.9993   -1.6560 H   0  0  0  0  0  0  0  0  0  0  0  0
  1  2  1  0
  2  3  1  0
  2  4  1  0
  4  5  1  0
  5  6  1  0
  6  7  2  0
  6  8  1  0
  8  9  1  0
  9 10  1  0
 10 11  2  0
 11 12  1  0
 12 13  2  0
 13 14  1  0
 14 15  2  0
  4 16  1  0
 16 17  2  0
 16 18  1  0
 18 19  1  0
 19 20  1  0
 20 21  1  0
 21 22  2  0
 22 23  1  0
 23 24  2  0
 24 25  1  0
 25 26  2  0
 19 27  1  0
 27 28  2  0
 27 29  1  0
 29 30  1  0
 30 31  1  0
 31 32  1  0
 31 33  1  0
 30 34  1  0
 34 35  2  0
 34 36  1  0
 36 37  1  0
 37 38  1  0
 38 39  1  0
 39 40  2  0
 40 41  1  0
 41 42  2  0
 42 43  1  0
 43 44  2  0
 37 45  1  0
 45 46  1  0
 45 47  2  0
 15 10  1  0
 26 21  1  0
 44 39  1  0
  1 48  1  0
  1 49  1  0
  1 50  1  0
  2 51  1  0
  3 52  1  0
  3 53  1  0
  3 54  1  0
  4 55  1  1
  5 56  1  0
  9 57  1  0
  9 58  1  0
 11 59  1  0
 12 60  1  0
 13 61  1  0
 14 62  1  0
 15 63  1  0
 18 64  1  0
 19 65  1  6
 20 66  1  0
 20 67  1  0
 22 68  1  0
 23 69  1  0
 24 70  1  0
 25 71  1  0
 26 72  1  0
 29 73  1  0
 30 74  1  1
 31 75  1  0
 32 76  1  0
 32 77  1  0
 32 78  1  0
 33 79  1  0
 33 80  1  0
 33 81  1  0
 36 82  1  0
 37 83  1  6
 38 84  1  0
 38 85  1  0
 40 86  1  0
 41 87  1  0
 42 88  1  0
 43 89  1  0
 44 90  1  0
 46 91  1  0
 46 92  1  0
M  END
$$$$
[H]OC(=O)[C@@]([H])(N([H])C(=O)[C@@]([H])(N([H])C(=O)[C@@]([H])(N([H])C(=O)[C@@]([H])(N([H])C(=O)[C@@]([H])(N([H])C(=O)[C@@]([H])(N([H])C(=O)[C@@]([H])(N([H])C(=O)N([H])c1c([H])c([H])c(C(F)(F)F)c([H])c1F)C([H])([H])C([H])(C([H])([H])[H])C([H])([H])[H])C([H])(C([H])([H])[H])C([H])([H])[H])C([H])([H])[H])C([H])([H])[H])C([H])([H])[H])C([H])(C([H])([H])[H])C([H])([H])[H])C([H])([H])[H]
     RDKit          3D

111111  0  0  0  0  0  0  0  0999 V2000
   -6.5335    1.8367   -2.7334 C   0  0  0  0  0  0  0  0  0  0  0  0
   -6.4480    1.4562   -1.2312 C   0  0  0  0  0  0  0  0  0  0  0  0
   -7.2579    2.5057   -0.5511 C   0  0  0  0  0  0  0  0  0  0  0  0
   -6.8554    0.0643   -1.1432 C   0  0  0  0  0  0  0  0  0  0  0  0
   -6.8721   -0.6092    0.2357 C   0  0  2  0  0  0  0  0  0  0  0  0
   -7.7857    0.0763    1.1169 N   0  0  0  0  0  0  0  0  0  0  0  0
   -9.2007   -0.0071    0.9584 C   0  0  0  0  0  0  0  0  0  0  0  0
   -9.5634   -0.7182   -0.0253 O   0  0  0  0  0  0  0  0  0  0  0  0
  -10.1035    0.6512    1.8142 N   0  0  0  0  0  0  0  0  0  0  0  0
  -11.4751    0.6697    1.6417 C   0  0  0  0  0  0  0  0  0  0  0  0
  -12.1777    0.3605    0.4942 C   0  0  0  0  0  0  0  0  0  0  0  0
  -13.5371    0.4711    0.3925 C   0  0  0  0  0  0  0  0  0  0  0  0
  -14.2949    0.9038    1.4424 C   0  0  0  0  0  0  0  0  0  0  0  0
  -13.6235    1.2207    2.6063 C   0  0  0  0  0  0  0  0  0  0  0  0
  -12.2684    1.1124    2.7137 C   0  0  0  0  0  0  0  0  0  0  0  0
  -11.6532    1.4479    3.8964 F   0  0  0  0  0  0  0  0  0  0  0  0
  -15.7828    1.0366    1.3021 C   0  0  0  0  0  0  0  0  0  0  0  0
  -16.0274    2.0330    0.3641 F   0  0  0  0  0  0  0  0  0  0  0  0
  -16.2186   -0.1722    0.7683 F   0  0  0  0  0  0  0  0  0  0  0  0
  -16.3370    1.3105    2.5164 F   0  0  0  0  0  0  0  0  0  0  0  0
   -5.5053   -0.7305    0.7357 C   0  0  0  0  0  0  0  0  0  0  0  0
   -5.0837   -0.1475    1.7416 O   0  0  0  0  0  0  0  0  0  0  0  0
   -4.5434   -1.5518    0.0597 N   0  0  0  0  0  0  0  0  0  0  0  0
   -3.1498   -1.6758    0.4511 C   0  0  1  0  0  0  0  0  0  0  0  0
   -2.8033   -2.9328    1.1539 C   0  0  0  0  0  0  0  0  0  0  0  0
   -3.0194   -4.2060    0.4133 C   0  0  0  0  0  0  0  0  0  0  0  0
   -1.3227   -2.8871    1.5690 C   0  0  0  0  0  0  0  0  0  0  0  0
   -2.3297   -1.4142   -0.7423 C   0  0  0  0  0  0  0  0  0  0  0  0
   -2.7345   -1.8784   -1.8509 O   0  0  0  0  0  0  0  0  0  0  0  0
   -1.1366   -0.6723   -0.7223 N   0  0  0  0  0  0  0  0  0  0  0  0
   -0.4133   -0.4466   -1.9648 C   0  0  1  0  0  0  0  0  0  0  0  0
   -0.7802    0.9302   -2.4721 C   0  0  0  0  0  0  0  0  0  0  0  0
    1.0192   -0.6730   -1.7989 C   0  0  0  0  0  0  0  0  0  0  0  0
    1.4663   -1.6577   -1.1142 O   0  0  0  0  0  0  0  0  0  0  0  0
    1.9278    0.2325   -2.4287 N   0  0  0  0  0  0  0  0  0  0  0  0
    3.3344   -0.0186   -2.3193 C   0  0  1  0  0  0  0  0  0  0  0  0
    4.1159    0.4359   -3.5164 C   0  0  0  0  0  0  0  0  0  0  0  0
    3.8527    0.6210   -1.0558 C   0  0  0  0  0  0  0  0  0  0  0  0
    3.1305    1.3340   -0.3338 O   0  0  0  0  0  0  0  0  0  0  0  0
    5.1955    0.3663   -0.7229 N   0  0  0  0  0  0  0  0  0  0  0  0
    5.9142    0.8369    0.4384 C   0  0  1  0  0  0  0  0  0  0  0  0
    5.8156   -0.2051    1.5634 C   0  0  0  0  0  0  0  0  0  0  0  0
    7.3197    0.9711    0.0827 C   0  0  0  0  0  0  0  0  0  0  0  0
    7.6770    0.8788   -1.1347 O   0  0  0  0  0  0  0  0  0  0  0  0
    8.3264    1.1912    1.0198 N   0  0  0  0  0  0  0  0  0  0  0  0
    9.7451    1.3059    0.6307 C   0  0  1  0  0  0  0  0  0  0  0  0
   10.4921    2.1214    1.6126 C   0  0  0  0  0  0  0  0  0  0  0  0
    9.9059    3.5150    1.7618 C   0  0  0  0  0  0  0  0  0  0  0  0
   11.9222    2.3197    1.1742 C   0  0  0  0  0  0  0  0  0  0  0  0
   10.2096   -0.1182    0.5971 C   0  0  0  0  0  0  0  0  0  0  0  0
    9.3982   -1.0241    1.0077 O   0  0  0  0  0  0  0  0  0  0  0  0
   11.4504   -0.5817    0.1535 N   0  0  0  0  0  0  0  0  0  0  0  0
   11.8301   -1.9870    0.1484 C   0  0  1  0  0  0  0  0  0  0  0  0
   12.1355   -2.5017   -1.2185 C   0  0  0  0  0  0  0  0  0  0  0  0
   12.8982   -2.1964    1.1316 C   0  0  0  0  0  0  0  0  0  0  0  0
   13.4551   -3.4650    1.4048 O   0  0  0  0  0  0  0  0  0  0  0  0
   13.3628   -1.2347    1.7755 O   0  0  0  0  0  0  0  0  0  0  0  0
   -7.4813    1.4307   -3.0944 H   0  0  0  0  0  0  0  0  0  0  0  0
   -6.4504    2.9386   -2.8543 H   0  0  0  0  0  0  0  0  0  0  0  0
   -5.6769    1.3516   -3.2284 H   0  0  0  0  0  0  0  0  0  0  0  0
   -5.3703    1.6711   -1.0026 H   0  0  0  0  0  0  0  0  0  0  0  0
   -7.2496    2.5284    0.5320 H   0  0  0  0  0  0  0  0  0  0  0  0
   -7.0160    3.5267   -0.9939 H   0  0  0  0  0  0  0  0  0  0  0  0
   -8.3089    2.3482   -0.8730 H   0  0  0  0  0  0  0  0  0  0  0  0
   -7.8584   -0.0802   -1.5656 H   0  0  0  0  0  0  0  0  0  0  0  0
   -6.1619   -0.5538   -1.7546 H   0  0  0  0  0  0  0  0  0  0  0  0
   -7.2887   -1.5910   -0.0106 H   0  0  0  0  0  0  0  0  0  0  0  0
   -7.4190    0.6351    1.8922 H   0  0  0  0  0  0  0  0  0  0  0  0
   -9.6816    1.1677    2.6272 H   0  0  0  0  0  0  0  0  0  0  0  0
  -11.5965    0.0318   -0.3789 H   0  0  0  0  0  0  0  0  0  0  0  0
  -14.0354    0.2178   -0.5257 H   0  0  0  0  0  0  0  0  0  0  0  0
  -14.2144    1.5517    3.4426 H   0  0  0  0  0  0  0  0  0  0  0  0
   -4.8552   -2.0863   -0.7596 H   0  0  0  0  0  0  0  0  0  0  0  0
   -2.9790   -0.8482    1.1844 H   0  0  0  0  0  0  0  0  0  0  0  0
   -3.3470   -2.9477    2.1358 H   0  0  0  0  0  0  0  0  0  0  0  0
   -3.9530   -4.7510    0.6991 H   0  0  0  0  0  0  0  0  0  0  0  0
   -2.2072   -4.9689    0.6562 H   0  0  0  0  0  0  0  0  0  0  0  0
   -2.9262   -4.0376   -0.6676 H   0  0  0  0  0  0  0  0  0  0  0  0
   -1.0205   -1.8924    1.9330 H   0  0  0  0  0  0  0  0  0  0  0  0
   -1.1525   -3.5828    2.4422 H   0  0  0  0  0  0  0  0  0  0  0  0
   -0.6451   -3.2478    0.7709 H   0  0  0  0  0  0  0  0  0  0  0  0
   -0.7971   -0.2958    0.1904 H   0  0  0  0  0  0  0  0  0  0  0  0
   -0.7831   -1.1977   -2.7391 H   0  0  0  0  0  0  0  0  0  0  0  0
   -0.3707    1.0861   -3.4977 H   0  0  0  0  0  0  0  0  0  0  0  0
   -1.9128    0.9068   -2.5770 H   0  0  0  0  0  0  0  0  0  0  0  0
   -0.5584    1.7420   -1.7817 H   0  0  0  0  0  0  0  0  0  0  0  0
    1.5719    1.0449   -2.9464 H   0  0  0  0  0  0  0  0  0  0  0  0
    3.5402   -1.1216   -2.1298 H   0  0  0  0  0  0  0  0  0  0  0  0
    5.2014    0.2112   -3.4141 H   0  0  0  0  0  0  0  0  0  0  0  0
    4.0076    1.5286   -3.6707 H   0  0  0  0  0  0  0  0  0  0  0  0
    3.7747   -0.0631   -4.4472 H   0  0  0  0  0  0  0  0  0  0  0  0
    5.7574   -0.2404   -1.3798 H   0  0  0  0  0  0  0  0  0  0  0  0
    5.4304    1.7395    0.8573 H   0  0  0  0  0  0  0  0  0  0  0  0
    6.8007   -0.2549    2.0498 H   0  0  0  0  0  0  0  0  0  0  0  0
    5.0486    0.0696    2.3151 H   0  0  0  0  0  0  0  0  0  0  0  0
    5.5982   -1.1856    1.1059 H   0  0  0  0  0  0  0  0  0  0  0  0
    8.1289    1.2734    2.0249 H   0  0  0  0  0  0  0  0  0  0  0  0
    9.8018    1.7054   -0.3861 H   0  0  0  0  0  0  0  0  0  0  0  0
   10.5434    1.6486    2.6216 H   0  0  0  0  0  0  0  0  0  0  0  0
   10.3635    4.0258    2.6665 H   0  0  0  0  0  0  0  0  0  0  0  0
    8.8344    3.4264    2.0190 H   0  0  0  0  0  0  0  0  0  0  0  0
   10.1225    4.1713    0.9248 H   0  0  0  0  0  0  0  0  0  0  0  0
   11.9708    2.3874    0.0704 H   0  0  0  0  0  0  0  0  0  0  0  0
   12.5600    1.5227    1.5796 H   0  0  0  0  0  0  0  0  0  0  0  0
   12.3300    3.2913    1.5711 H   0  0  0  0  0  0  0  0  0  0  0  0
   12.1730    0.0639   -0.2168 H   0  0  0  0  0  0  0  0  0  0  0  0
   10.9248   -2.5548    0.5187 H   0  0  0  0  0  0  0  0  0  0  0  0
   12.6900   -3.4554   -1.1355 H   0  0  0  0  0  0  0  0  0  0  0  0
   12.7595   -1.8206   -1.8436 H   0  0  0  0  0  0  0  0  0  0  0  0
   11.1725   -2.7520   -1.7206 H   0  0  0  0  0  0  0  0  0  0  0  0
   13.1481   -4.2184    0.7764 H   0  0  0  0  0  0  0  0  0  0  0  0
  1  2  1  0
  2  3  1  0
  2  4  1  0
  4  5  1  0
  5  6  1  0
  6  7  1  0
  7  8  2  0
  7  9  1  0
  9 10  1  0
 10 11  2  0
 11 12  1  0
 12 13  2  0
 13 14  1  0
 14 15  2  0
 15 16  1  0
 13 17  1  0
 17 18  1  0
 17 19  1  0
 17 20  1  0
  5 21  1  0
 21 22  2  0
 21 23  1  0
 23 24  1  0
 24 25  1  0
 25 26  1  0
 25 27  1  0
 24 28  1  0
 28 29  2  0
 28 30  1  0
 30 31  1  0
 31 32  1  0
 31 33  1  0
 33 34  2  0
 33 35  1  0
 35 36  1  0
 36 37  1  0
 36 38  1  0
 38 39  2  0
 38 40  1  0
 40 41  1  0
 41 42  1  0
 41 43  1  0
 43 44  2  0
 43 45  1  0
 45 46  1  0
 46 47  1  0
 47 48  1  0
 47 49  1  0
 46 50  1  0
 50 51  2  0
 50 52  1  0
 52 53  1  0
 53 54  1  0
 53 55  1  0
 55 56  1  0
 55 57  2  0
 15 10  1  0
  1 58  1  0
  1 59  1  0
  1 60  1  0
  2 61  1  0
  3 62  1  0
  3 63  1  0
  3 64  1  0
  4 65  1  0
  4 66  1  0
  5 67  1  6
  6 68  1  0
  9 69  1  0
 11 70  1  0
 12 71  1  0
 14 72  1  0
 23 73  1  0
 24 74  1  1
 25 75  1  0
 26 76  1  0
 26 77  1  0
 26 78  1  0
 27 79  1  0
 27 80  1  0
 27 81  1  0
 30 82  1  0
 31 83  1  6
 32 84  1  0
 32 85  1  0
 32 86  1  0
 35 87  1  0
 36 88  1  1
 37 89  1  0
 37 90  1  0
 37 91  1  0
 40 92  1  0
 41 93  1  1
 42 94  1  0
 42 95  1  0
 42 96  1  0
 45 97  1  0
 46 98  1  6
 47 99  1  0
 48100  1  0
 48101  1  0
 48102  1  0
 49103  1  0
 49104  1  0
 49105  1  0
 52106  1  0
 53107  1  1
 54108  1  0
 54109  1  0
 54110  1  0
 56111  1  0
M  END
$$$$
[H]c1c([H])c([H])c(N2C([H])([H])C([H])([H])N(S(=O)(=O)c3c([H])c([H])c(C([H])([H])n4c(C([H])([H])[H])nc5c([H])c([H])c([H])c([H])c54)c([H])c3[H])C([H])([H])C2([H])[H])c([H])c1[H]
     RDKit          3D

 58 62  0  0  0  0  0  0  0  0999 V2000
   -5.3113   -3.0554   -0.2570 C   0  0  0  0  0  0  0  0  0  0  0  0
   -5.8080   -1.7216    0.1448 C   0  0  0  0  0  0  0  0  0  0  0  0
   -6.9900   -1.2090   -0.2609 N   0  0  0  0  0  0  0  0  0  0  0  0
   -7.1458   -0.0044    0.2778 C   0  0  0  0  0  0  0  0  0  0  0  0
   -8.1912    0.8940    0.1552 C   0  0  0  0  0  0  0  0  0  0  0  0
   -8.1294    2.0988    0.8226 C   0  0  0  0  0  0  0  0  0  0  0  0
   -7.0314    2.3829    1.5957 C   0  0  0  0  0  0  0  0  0  0  0  0
   -6.0115    1.4699    1.6960 C   0  0  0  0  0  0  0  0  0  0  0  0
   -6.0298    0.2553    1.0479 C   0  0  0  0  0  0  0  0  0  0  0  0
   -5.2062   -0.8181    0.9570 N   0  0  0  0  0  0  0  0  0  0  0  0
   -3.9314   -0.9346    1.6261 C   0  0  0  0  0  0  0  0  0  0  0  0
   -2.7769   -0.4473    0.8714 C   0  0  0  0  0  0  0  0  0  0  0  0
   -2.0292   -1.2900    0.0692 C   0  0  0  0  0  0  0  0  0  0  0  0
   -0.9239   -0.8301   -0.6559 C   0  0  0  0  0  0  0  0  0  0  0  0
   -0.5413    0.4861   -0.5938 C   0  0  0  0  0  0  0  0  0  0  0  0
   -1.2690    1.3427    0.1974 C   0  0  0  0  0  0  0  0  0  0  0  0
   -2.3645    0.8719    0.9120 C   0  0  0  0  0  0  0  0  0  0  0  0
    0.8419    1.0962   -1.4912 S   0  0  0  0  0  0  0  0  0  0  0  0
    1.0251    0.2806   -2.7450 O   0  0  0  0  0  0  0  0  0  0  0  0
    0.5543    2.5000   -1.8766 O   0  0  0  0  0  0  0  0  0  0  0  0
    2.2246    0.9457   -0.4982 N   0  0  0  0  0  0  0  0  0  0  0  0
    2.5567   -0.3603   -0.1192 C   0  0  0  0  0  0  0  0  0  0  0  0
    3.9498   -0.6255    0.3055 C   0  0  0  0  0  0  0  0  0  0  0  0
    4.9654    0.1645   -0.3099 N   0  0  0  0  0  0  0  0  0  0  0  0
    4.6125    1.3465   -1.0243 C   0  0  0  0  0  0  0  0  0  0  0  0
    3.2447    1.8849   -0.7224 C   0  0  0  0  0  0  0  0  0  0  0  0
    6.3188   -0.2199   -0.2099 C   0  0  0  0  0  0  0  0  0  0  0  0
    6.7320   -1.3221    0.5371 C   0  0  0  0  0  0  0  0  0  0  0  0
    8.0536   -1.6916    0.6271 C   0  0  0  0  0  0  0  0  0  0  0  0
    9.0244   -0.9723   -0.0284 C   0  0  0  0  0  0  0  0  0  0  0  0
    8.6479    0.1191   -0.7725 C   0  0  0  0  0  0  0  0  0  0  0  0
    7.2991    0.4833   -0.8551 C   0  0  0  0  0  0  0  0  0  0  0  0
   -6.1363   -3.7869   -0.3802 H   0  0  0  0  0  0  0  0  0  0  0  0
   -4.7100   -2.9660   -1.1820 H   0  0  0  0  0  0  0  0  0  0  0  0
   -4.6514   -3.4980    0.5431 H   0  0  0  0  0  0  0  0  0  0  0  0
   -9.0567    0.6746   -0.4518 H   0  0  0  0  0  0  0  0  0  0  0  0
   -8.9552    2.8178    0.7306 H   0  0  0  0  0  0  0  0  0  0  0  0
   -6.9477    3.3152    2.1327 H   0  0  0  0  0  0  0  0  0  0  0  0
   -5.1564    1.7257    2.3184 H   0  0  0  0  0  0  0  0  0  0  0  0
   -3.8296   -2.0248    1.9043 H   0  0  0  0  0  0  0  0  0  0  0  0
   -3.9469   -0.4091    2.6196 H   0  0  0  0  0  0  0  0  0  0  0  0
   -2.3160   -2.3293    0.0174 H   0  0  0  0  0  0  0  0  0  0  0  0
   -0.3686   -1.5342   -1.2732 H   0  0  0  0  0  0  0  0  0  0  0  0
   -1.0096    2.4087    0.2867 H   0  0  0  0  0  0  0  0  0  0  0  0
   -2.9061    1.5920    1.5305 H   0  0  0  0  0  0  0  0  0  0  0  0
    1.8782   -0.6729    0.7276 H   0  0  0  0  0  0  0  0  0  0  0  0
    2.2767   -1.0608   -0.9545 H   0  0  0  0  0  0  0  0  0  0  0  0
    4.0708   -0.5583    1.4064 H   0  0  0  0  0  0  0  0  0  0  0  0
    4.1846   -1.7030    0.0560 H   0  0  0  0  0  0  0  0  0  0  0  0
    4.7973    1.1868   -2.1017 H   0  0  0  0  0  0  0  0  0  0  0  0
    5.3501    2.1439   -0.7092 H   0  0  0  0  0  0  0  0  0  0  0  0
    2.9540    2.5323   -1.5989 H   0  0  0  0  0  0  0  0  0  0  0  0
    3.3144    2.5976    0.1445 H   0  0  0  0  0  0  0  0  0  0  0  0
    5.9468   -1.8730    1.0462 H   0  0  0  0  0  0  0  0  0  0  0  0
    8.3380   -2.5559    1.2182 H   0  0  0  0  0  0  0  0  0  0  0  0
   10.0769   -1.2209    0.0101 H   0  0  0  0  0  0  0  0  0  0  0  0
    9.3821    0.7173   -1.3077 H   0  0  0  0  0  0  0  0  0  0  0  0
    7.0607    1.3610   -1.4638 H   0  0  0  0  0  0  0  0  0  0  0  0
  1  2  1  0
  2  3  2  0
  3  4  1  0
  4  5  2  0
  5  6  1  0
  6  7  2  0
  7  8  1  0
  8  9  2  0
  9 10  1  0
 10 11  1  0
 11 12  1  0
 12 13  2  0
 13 14  1  0
 14 15  2  0
 15 16  1  0
 16 17  2  0
 15 18  1  0
 18 19  2  0
 18 20  2  0
 18 21  1  0
 21 22  1  0
 22 23  1  0
 23 24  1  0
 24 25  1  0
 25 26  1  0
 24 27  1  0
 27 28  2  0
 28 29  1  0
 29 30  2  0
 30 31  1  0
 31 32  2  0
 10  2  1  0
 17 12  1  0
 26 21  1  0
 32 27  1  0
  9  4  1  0
  1 33  1  0
  1 34  1  0
  1 35  1  0
  5 36  1  0
  6 37  1  0
  7 38  1  0
  8 39  1  0
 11 40  1  0
 11 41  1  0
 13 42  1  0
 14 43  1  0
 16 44  1  0
 17 45  1  0
 22 46  1  0
 22 47  1  0
 23 48  1  0
 23 49  1  0
 25 50  1  0
 25 51  1  0
 26 52  1  0
 26 53  1  0
 28 54  1  0
 29 55  1  0
 30 56  1  0
 31 57  1  0
 32 58  1  0
M  END
$$$$
[H]OC(=O)C([H])([H])[C@@]([H])(C(=O)N([H])[C@]([H])(C(=O)N1C([H])([H])C([H])([H])C([H])([H])[C@@]1([H])C(=O)N([H])[C@@]([H])(C(=O)N1C([H])([H])C([H])([H])C([H])([H])[C@@]1([H])C(=O)N([H])[C@@]([H])(C([H])([H])[H])C(C([H])([H])[H])(C([H])([H])[H])C([H])([H])[H])C([H])([H])c1c([H])c([H])c(O[H])c([H])c1[H])C([H])([H])c1c([H])c([H])c([H])c([H])c1[H])N([H])C(=O)[C@]([H])(N([H])C(=O)OC([H])([H])c1c([H])c([H])c([H])c([H])c1[H])C([H])([H])c1c([H])c([H])c([H])c([H])c1[H]
     RDKit          3D

140145  0  0  0  0  0  0  0  0999 V2000
  -12.2214    0.9789    0.2254 C   0  0  0  0  0  0  0  0  0  0  0  0
  -11.1837    0.2877   -0.5845 C   0  0  2  0  0  0  0  0  0  0  0  0
  -10.0897    1.1902   -0.7984 N   0  0  0  0  0  0  0  0  0  0  0  0
   -8.7612    0.8822   -0.8422 C   0  0  0  0  0  0  0  0  0  0  0  0
   -8.3747   -0.3258   -0.7024 O   0  0  0  0  0  0  0  0  0  0  0  0
   -7.6757    1.8719   -1.0416 C   0  0  2  0  0  0  0  0  0  0  0  0
   -7.9449    2.7624   -2.2349 C   0  0  0  0  0  0  0  0  0  0  0  0
   -7.5903    1.8318   -3.3618 C   0  0  0  0  0  0  0  0  0  0  0  0
   -6.6021    0.8710   -2.8036 C   0  0  0  0  0  0  0  0  0  0  0  0
   -6.4422    1.1986   -1.3567 N   0  0  0  0  0  0  0  0  0  0  0  0
   -5.3280    0.8654   -0.6259 C   0  0  0  0  0  0  0  0  0  0  0  0
   -4.4768    0.1392   -1.4576 O   0  0  0  0  0  0  0  0  0  0  0  0
   -4.7403    0.9865    0.6518 C   0  0  1  0  0  0  0  0  0  0  0  0
   -5.4224    1.4119    1.8518 C   0  0  0  0  0  0  0  0  0  0  0  0
   -6.5336    0.7767    2.4951 C   0  0  0  0  0  0  0  0  0  0  0  0
   -7.8022    1.3035    2.6486 C   0  0  0  0  0  0  0  0  0  0  0  0
   -8.8385    0.6500    3.2656 C   0  0  0  0  0  0  0  0  0  0  0  0
   -8.6459   -0.6196    3.7792 C   0  0  0  0  0  0  0  0  0  0  0  0
   -9.6623   -1.3227    4.4120 O   0  0  0  0  0  0  0  0  0  0  0  0
   -7.4059   -1.1869    3.6526 C   0  0  0  0  0  0  0  0  0  0  0  0
   -6.4083   -0.5106    3.0397 C   0  0  0  0  0  0  0  0  0  0  0  0
   -3.8625   -0.1967    0.9310 N   0  0  0  0  0  0  0  0  0  0  0  0
   -2.6046   -0.0812    1.4637 C   0  0  0  0  0  0  0  0  0  0  0  0
   -2.0991    1.0101    1.7630 O   0  0  0  0  0  0  0  0  0  0  0  0
   -1.7655   -1.3202    1.7105 C   0  0  2  0  0  0  0  0  0  0  0  0
   -2.6485   -2.2133    2.5520 C   0  0  0  0  0  0  0  0  0  0  0  0
   -1.6674   -2.8269    3.5625 C   0  0  0  0  0  0  0  0  0  0  0  0
   -0.8415   -1.5829    3.8370 C   0  0  0  0  0  0  0  0  0  0  0  0
   -0.5762   -1.0744    2.4409 N   0  0  0  0  0  0  0  0  0  0  0  0
    0.6787   -0.4953    2.1683 C   0  0  0  0  0  0  0  0  0  0  0  0
    1.4841   -0.4989    3.2034 O   0  0  0  0  0  0  0  0  0  0  0  0
    1.2344    0.1142    0.9415 C   0  0  2  0  0  0  0  0  0  0  0  0
    1.1816   -0.7137   -0.2793 C   0  0  0  0  0  0  0  0  0  0  0  0
    1.7126   -0.1716   -1.5187 C   0  0  0  0  0  0  0  0  0  0  0  0
    0.9564    0.6903   -2.3201 C   0  0  0  0  0  0  0  0  0  0  0  0
    1.4506    1.1427   -3.5336 C   0  0  0  0  0  0  0  0  0  0  0  0
    2.7097    0.7564   -3.9909 C   0  0  0  0  0  0  0  0  0  0  0  0
    3.4552   -0.0832   -3.2133 C   0  0  0  0  0  0  0  0  0  0  0  0
    2.9274   -0.5217   -1.9982 C   0  0  0  0  0  0  0  0  0  0  0  0
    2.5314    0.7043    1.2697 N   0  0  0  0  0  0  0  0  0  0  0  0
    3.6626   -0.0557    1.5188 C   0  0  0  0  0  0  0  0  0  0  0  0
    3.6303   -1.3195    1.4345 O   0  0  0  0  0  0  0  0  0  0  0  0
    4.9345    0.5670    1.9011 C   0  0  2  0  0  0  0  0  0  0  0  0
    5.0147    2.0331    1.5349 C   0  0  0  0  0  0  0  0  0  0  0  0
    4.9765    2.2973    0.1035 C   0  0  0  0  0  0  0  0  0  0  0  0
    4.1676    3.4291   -0.3083 O   0  0  0  0  0  0  0  0  0  0  0  0
    5.5377    1.6855   -0.7837 O   0  0  0  0  0  0  0  0  0  0  0  0
    6.0963   -0.0721    1.2918 N   0  0  0  0  0  0  0  0  0  0  0  0
    7.3327   -0.2849    1.9225 C   0  0  0  0  0  0  0  0  0  0  0  0
    7.6165   -0.0034    3.0944 O   0  0  0  0  0  0  0  0  0  0  0  0
    8.4683   -0.8984    1.1154 C   0  0  1  0  0  0  0  0  0  0  0  0
    8.0800   -0.9221   -0.3206 C   0  0  0  0  0  0  0  0  0  0  0  0
    9.1092   -1.5408   -1.1804 C   0  0  0  0  0  0  0  0  0  0  0  0
    9.1197   -2.9211   -1.3042 C   0  0  0  0  0  0  0  0  0  0  0  0
   10.0147   -3.5936   -2.1273 C   0  0  0  0  0  0  0  0  0  0  0  0
   10.9319   -2.8516   -2.8458 C   0  0  0  0  0  0  0  0  0  0  0  0
   10.9318   -1.4860   -2.7327 C   0  0  0  0  0  0  0  0  0  0  0  0
   10.0475   -0.8270   -1.9221 C   0  0  0  0  0  0  0  0  0  0  0  0
    9.6352   -0.1207    1.4007 N   0  0  0  0  0  0  0  0  0  0  0  0
   10.9916   -0.4524    1.4374 C   0  0  0  0  0  0  0  0  0  0  0  0
   11.4932   -1.5730    1.1784 O   0  0  0  0  0  0  0  0  0  0  0  0
   11.8932    0.5502    1.7939 O   0  0  0  0  0  0  0  0  0  0  0  0
   13.2800    0.4161    1.7992 C   0  0  0  0  0  0  0  0  0  0  0  0
   13.7192    0.3136    0.3663 C   0  0  0  0  0  0  0  0  0  0  0  0
   14.1400   -0.7833   -0.2694 C   0  0  0  0  0  0  0  0  0  0  0  0
   14.5311   -0.7349   -1.6216 C   0  0  0  0  0  0  0  0  0  0  0  0
   14.4667    0.4697   -2.2813 C   0  0  0  0  0  0  0  0  0  0  0  0
   14.0282    1.6180   -1.6396 C   0  0  0  0  0  0  0  0  0  0  0  0
   13.6596    1.5552   -0.3377 C   0  0  0  0  0  0  0  0  0  0  0  0
  -11.8011   -0.2980   -1.8253 C   0  0  0  0  0  0  0  0  0  0  0  0
  -10.7897   -1.0447   -2.6854 C   0  0  0  0  0  0  0  0  0  0  0  0
  -12.7870   -1.3403   -1.3254 C   0  0  0  0  0  0  0  0  0  0  0  0
  -12.5839    0.6940   -2.6554 C   0  0  0  0  0  0  0  0  0  0  0  0
  -11.8529    1.9116    0.7189 H   0  0  0  0  0  0  0  0  0  0  0  0
  -12.6267    0.3538    1.0386 H   0  0  0  0  0  0  0  0  0  0  0  0
  -13.1017    1.3052   -0.4021 H   0  0  0  0  0  0  0  0  0  0  0  0
  -10.7750   -0.5839   -0.0245 H   0  0  0  0  0  0  0  0  0  0  0  0
  -10.3678    2.2106   -0.9406 H   0  0  0  0  0  0  0  0  0  0  0  0
   -7.6040    2.5381   -0.1649 H   0  0  0  0  0  0  0  0  0  0  0  0
   -7.2640    3.6388   -2.1751 H   0  0  0  0  0  0  0  0  0  0  0  0
   -9.0172    3.0835   -2.2632 H   0  0  0  0  0  0  0  0  0  0  0  0
   -8.5099    1.3628   -3.7895 H   0  0  0  0  0  0  0  0  0  0  0  0
   -7.1544    2.4792   -4.1824 H   0  0  0  0  0  0  0  0  0  0  0  0
   -5.6427    1.0550   -3.3532 H   0  0  0  0  0  0  0  0  0  0  0  0
   -6.8673   -0.1769   -2.9447 H   0  0  0  0  0  0  0  0  0  0  0  0
   -3.8860    1.7976    0.5207 H   0  0  0  0  0  0  0  0  0  0  0  0
   -4.6719    1.7010    2.6833 H   0  0  0  0  0  0  0  0  0  0  0  0
   -5.7814    2.5106    1.6049 H   0  0  0  0  0  0  0  0  0  0  0  0
   -7.9978    2.3140    2.2616 H   0  0  0  0  0  0  0  0  0  0  0  0
   -9.8192    1.0637    3.3861 H   0  0  0  0  0  0  0  0  0  0  0  0
  -10.2827   -1.9553    3.8942 H   0  0  0  0  0  0  0  0  0  0  0  0
   -7.2194   -2.1790    4.0497 H   0  0  0  0  0  0  0  0  0  0  0  0
   -5.4502   -0.9726    2.9490 H   0  0  0  0  0  0  0  0  0  0  0  0
   -4.2881   -1.0989    0.6790 H   0  0  0  0  0  0  0  0  0  0  0  0
   -1.5868   -1.8353    0.7220 H   0  0  0  0  0  0  0  0  0  0  0  0
   -3.2899   -1.5473    3.2056 H   0  0  0  0  0  0  0  0  0  0  0  0
   -3.2322   -2.9445    2.0069 H   0  0  0  0  0  0  0  0  0  0  0  0
   -1.0939   -3.6014    3.0234 H   0  0  0  0  0  0  0  0  0  0  0  0
   -2.1523   -3.2176    4.4623 H   0  0  0  0  0  0  0  0  0  0  0  0
   -1.4145   -0.8018    4.3431 H   0  0  0  0  0  0  0  0  0  0  0  0
    0.0976   -1.8969    4.2870 H   0  0  0  0  0  0  0  0  0  0  0  0
    0.5606    1.0100    0.7403 H   0  0  0  0  0  0  0  0  0  0  0  0
    0.1207   -1.0547   -0.5103 H   0  0  0  0  0  0  0  0  0  0  0  0
    1.7241   -1.6885   -0.0744 H   0  0  0  0  0  0  0  0  0  0  0  0
   -0.0088    1.0142   -2.0184 H   0  0  0  0  0  0  0  0  0  0  0  0
    0.8908    1.8094   -4.1869 H   0  0  0  0  0  0  0  0  0  0  0  0
    3.0887    1.1283   -4.9542 H   0  0  0  0  0  0  0  0  0  0  0  0
    4.4477   -0.4059   -3.5329 H   0  0  0  0  0  0  0  0  0  0  0  0
    3.5693   -1.1819   -1.4390 H   0  0  0  0  0  0  0  0  0  0  0  0
    2.5853    1.7424    1.3243 H   0  0  0  0  0  0  0  0  0  0  0  0
    5.1270    0.5530    3.0208 H   0  0  0  0  0  0  0  0  0  0  0  0
    4.2355    2.6031    2.0981 H   0  0  0  0  0  0  0  0  0  0  0  0
    6.0053    2.3789    1.9470 H   0  0  0  0  0  0  0  0  0  0  0  0
    4.6962    4.1708   -0.7727 H   0  0  0  0  0  0  0  0  0  0  0  0
    5.9481   -0.3865    0.3201 H   0  0  0  0  0  0  0  0  0  0  0  0
    8.6017   -1.9365    1.4303 H   0  0  0  0  0  0  0  0  0  0  0  0
    7.1509   -1.5668   -0.4471 H   0  0  0  0  0  0  0  0  0  0  0  0
    7.9070    0.1201   -0.7020 H   0  0  0  0  0  0  0  0  0  0  0  0
    8.4034   -3.5079   -0.7497 H   0  0  0  0  0  0  0  0  0  0  0  0
   10.0358   -4.6506   -2.2375 H   0  0  0  0  0  0  0  0  0  0  0  0
   11.6481   -3.3286   -3.4915 H   0  0  0  0  0  0  0  0  0  0  0  0
   11.6649   -0.9074   -3.3026 H   0  0  0  0  0  0  0  0  0  0  0  0
   10.0574    0.2631   -1.8419 H   0  0  0  0  0  0  0  0  0  0  0  0
    9.4334    0.9347    1.6413 H   0  0  0  0  0  0  0  0  0  0  0  0
   13.6701   -0.4679    2.3408 H   0  0  0  0  0  0  0  0  0  0  0  0
   13.7184    1.3805    2.2106 H   0  0  0  0  0  0  0  0  0  0  0  0
   14.2053   -1.7205    0.2276 H   0  0  0  0  0  0  0  0  0  0  0  0
   14.8652   -1.6508   -2.0758 H   0  0  0  0  0  0  0  0  0  0  0  0
   14.7590    0.5291   -3.3246 H   0  0  0  0  0  0  0  0  0  0  0  0
   13.9935    2.5219   -2.2104 H   0  0  0  0  0  0  0  0  0  0  0  0
   13.3146    2.4421    0.1799 H   0  0  0  0  0  0  0  0  0  0  0  0
  -10.0288   -0.3814   -3.1283 H   0  0  0  0  0  0  0  0  0  0  0  0
  -11.3093   -1.5381   -3.5537 H   0  0  0  0  0  0  0  0  0  0  0  0
  -10.3820   -1.8750   -2.0916 H   0  0  0  0  0  0  0  0  0  0  0  0
  -13.6911   -0.7965   -0.9651 H   0  0  0  0  0  0  0  0  0  0  0  0
  -12.3057   -1.9147   -0.4744 H   0  0  0  0  0  0  0  0  0  0  0  0
  -13.0503   -2.0814   -2.1090 H   0  0  0  0  0  0  0  0  0  0  0  0
  -13.6626    0.7735   -2.3408 H   0  0  0  0  0  0  0  0  0  0  0  0
  -12.6247    0.2634   -3.6795 H   0  0  0  0  0  0  0  0  0  0  0  0
  -12.1678    1.7041   -2.6215 H   0  0  0  0  0  0  0  0  0  0  0  0
  1  2  1  0
  2  3  1  0
  3  4  1  0
  4  5  2  0
  4  6  1  0
  6  7  1  0
  7  8  1  0
  8  9  1  0
  9 10  1  0
 10 11  1  0
 11 12  2  0
 11 13  1  0
 13 14  1  0
 14 15  1  0
 15 16  2  0
 16 17  1  0
 17 18  2  0
 18 19  1  0
 18 20  1  0
 20 21  2  0
 13 22  1  0
 22 23  1  0
 23 24  2  0
 23 25  1  0
 25 26  1  0
 26 27  1  0
 27 28  1  0
 28 29  1  0
 29 30  1  0
 30 31  2  0
 30 32  1  0
 32 33  1  0
 33 34  1  0
 34 35  2  0
 35 36  1  0
 36 37  2  0
 37 38  1  0
 38 39  2  0
 32 40  1  0
 40 41  1  0
 41 42  2  0
 41 43  1  0
 43 44  1  0
 44 45  1  0
 45 46  1  0
 45 47  2  0
 43 48  1  0
 48 49  1  0
 49 50  2  0
 49 51  1  0
 51 52  1  0
 52 53  1  0
 53 54  2  0
 54 55  1  0
 55 56  2  0
 56 57  1  0
 57 58  2  0
 51 59  1  0
 59 60  1  0
 60 61  2  0
 60 62  1  0
 62 63  1  0
 63 64  1  0
 64 65  2  0
 65 66  1  0
 66 67  2  0
 67 68  1  0
 68 69  2  0
  2 70  1  0
 70 71  1  0
 70 72  1  0
 70 73  1  0
 10  6  1  0
 21 15  1  0
 29 25  1  0
 39 34  1  0
 58 53  1  0
 69 64  1  0
  1 74  1  0
  1 75  1  0
  1 76  1  0
  2 77  1  1
  3 78  1  0
  6 79  1  1
  7 80  1  0
  7 81  1  0
  8 82  1  0
  8 83  1  0
  9 84  1  0
  9 85  1  0
 13 86  1  6
 14 87  1  0
 14 88  1  0
 16 89  1  0
 17 90  1  0
 19 91  1  0
 20 92  1  0
 21 93  1  0
 22 94  1  0
 25 95  1  6
 26 96  1  0
 26 97  1  0
 27 98  1  0
 27 99  1  0
 28100  1  0
 28101  1  0
 32102  1  6
 33103  1  0
 33104  1  0
 35105  1  0
 36106  1  0
 37107  1  0
 38108  1  0
 39109  1  0
 40110  1  0
 43111  1  1
 44112  1  0
 44113  1  0
 46114  1  0
 48115  1  0
 51116  1  1
 52117  1  0
 52118  1  0
 54119  1  0
 55120  1  0
 56121  1  0
 57122  1  0
 58123  1  0
 59124  1  0
 63125  1  0
 63126  1  0
 65127  1  0
 66128  1  0
 67129  1  0
 68130  1  0
 69131  1  0
 71132  1  0
 71133  1  0
 71134  1  0
 72135  1  0
 72136  1  0
 72137  1  0
 73138  1  0
 73139  1  0
 73140  1  0
M  END
$$$$
[H]N([H])[C@]([H])(C(=O)N([H])[C@]1([H])C([H])([H])C([H])([H])[C@@]([H])(N2C(=O)N([H])[C@]3([H])C([H])([H])C([H])([H])[C@]2([H])C3([H])[H])C([H])([H])C1([H])[H])C([H])([H])C([H])(C([H])([H])[H])C([H])([H])[H]
     RDKit          2D

 56 58  0  0  0  0  0  0  0  0999 V2000
  -13.1003    2.1586    0.0000 C   0  0  0  0  0  0  0  0  0  0  0  0
  -12.2615    0.9150    0.0000 C   0  0  0  0  0  0  0  0  0  0  0  0
  -13.5050    0.0762    0.0000 C   0  0  0  0  0  0  0  0  0  0  0  0
  -11.0179    1.7538    0.0000 C   0  0  0  0  0  0  0  0  0  0  0  0
   -9.7744    2.5926    0.0000 C   0  0  0  0  0  0  0  0  0  0  0  0
  -10.6132    3.8362    0.0000 N   0  0  0  0  0  0  0  0  0  0  0  0
   -8.9356    1.3490    0.0000 C   0  0  0  0  0  0  0  0  0  0  0  0
   -9.4239   -0.0692    0.0000 O   0  0  0  0  0  0  0  0  0  0  0  0
   -7.4392    1.4537    0.0000 N   0  0  0  0  0  0  0  0  0  0  0  0
   -6.6004    0.2101    0.0000 C   0  0  0  0  0  0  0  0  0  0  0  0
   -5.5214    1.2521    0.0000 C   0  0  0  0  0  0  0  0  0  0  0  0
   -4.0795    0.8387    0.0000 C   0  0  0  0  0  0  0  0  0  0  0  0
   -3.7167   -0.6168    0.0000 C   0  0  0  0  0  0  0  0  0  0  0  0
   -4.7957   -1.6588    0.0000 C   0  0  0  0  0  0  0  0  0  0  0  0
   -6.2376   -1.2453    0.0000 C   0  0  0  0  0  0  0  0  0  0  0  0
   -2.3463   -0.0067    0.0000 N   0  0  0  0  0  0  0  0  0  0  0  0
   -2.1895    1.4851    0.0000 C   0  0  0  0  0  0  0  0  0  0  0  0
   -3.1768    2.4058    0.0000 O   0  0  0  0  0  0  0  0  0  0  0  0
   -0.8192    2.0952    0.0000 N   0  0  0  0  0  0  0  0  0  0  0  0
    0.3943    1.2135    0.0000 C   0  0  0  0  0  0  0  0  0  0  0  0
    1.2760    0.0000    0.0000 C   0  0  0  0  0  0  0  0  0  0  0  0
    0.3943   -1.2135    0.0000 C   0  0  0  0  0  0  0  0  0  0  0  0
   -1.0323   -0.7500    0.0000 C   0  0  0  0  0  0  0  0  0  0  0  0
   -1.0323    0.7500    0.0000 C   0  0  0  0  0  0  0  0  0  0  0  0
  -13.8895    1.7565    0.0000 H   0  0  0  0  0  0  0  0  0  0  0  0
  -12.4418    2.8900    0.0000 H   0  0  0  0  0  0  0  0  0  0  0  0
  -13.9391    3.4021    0.0000 H   0  0  0  0  0  0  0  0  0  0  0  0
  -11.4227   -0.3285    0.0000 H   0  0  0  0  0  0  0  0  0  0  0  0
  -14.0861    0.7447    0.0000 H   0  0  0  0  0  0  0  0  0  0  0  0
  -12.6662   -1.1673    0.0000 H   0  0  0  0  0  0  0  0  0  0  0  0
  -14.7486   -0.7626    0.0000 H   0  0  0  0  0  0  0  0  0  0  0  0
  -11.5683    2.5697    0.0000 H   0  0  0  0  0  0  0  0  0  0  0  0
  -10.3370    0.4173    0.0000 H   0  0  0  0  0  0  0  0  0  0  0  0
   -8.5308    3.4314    0.0000 H   0  0  0  0  0  0  0  0  0  0  0  0
   -9.9556    5.1843    0.0000 H   0  0  0  0  0  0  0  0  0  0  0  0
  -12.0904    4.0967    0.0000 H   0  0  0  0  0  0  0  0  0  0  0  0
   -7.1188    2.3842    0.0000 H   0  0  0  0  0  0  0  0  0  0  0  0
   -7.9708   -0.4000    0.0000 H   0  0  0  0  0  0  0  0  0  0  0  0
   -6.2412    1.9233    0.0000 H   0  0  0  0  0  0  0  0  0  0  0  0
   -4.9296    2.4655    0.0000 H   0  0  0  0  0  0  0  0  0  0  0  0
   -4.1008    2.0535    0.0000 H   0  0  0  0  0  0  0  0  0  0  0  0
   -2.7201    1.4727    0.0000 H   0  0  0  0  0  0  0  0  0  0  0  0
   -3.0357   -1.9533    0.0000 H   0  0  0  0  0  0  0  0  0  0  0  0
   -3.5821   -2.5405    0.0000 H   0  0  0  0  0  0  0  0  0  0  0  0
   -5.4532   -3.0070    0.0000 H   0  0  0  0  0  0  0  0  0  0  0  0
   -6.3944   -2.7371    0.0000 H   0  0  0  0  0  0  0  0  0  0  0  0
   -7.7339   -1.3500    0.0000 H   0  0  0  0  0  0  0  0  0  0  0  0
   -0.6624    3.5870    0.0000 H   0  0  0  0  0  0  0  0  0  0  0  0
    0.8578    2.6401    0.0000 H   0  0  0  0  0  0  0  0  0  0  0  0
    2.3907    1.0037    0.0000 H   0  0  0  0  0  0  0  0  0  0  0  0
    2.3907   -1.0037    0.0000 H   0  0  0  0  0  0  0  0  0  0  0  0
    1.6933   -1.9635    0.0000 H   0  0  0  0  0  0  0  0  0  0  0  0
   -0.2158   -2.5838    0.0000 H   0  0  0  0  0  0  0  0  0  0  0  0
   -2.1293   -1.7730    0.0000 H   0  0  0  0  0  0  0  0  0  0  0  0
   -2.4811    1.1383    0.0000 H   0  0  0  0  0  0  0  0  0  0  0  0
   -1.6899    2.0982    0.0000 H   0  0  0  0  0  0  0  0  0  0  0  0
  1  2  1  0
  2  3  1  0
  2  4  1  0
  4  5  1  0
  5  6  1  0
  5  7  1  0
  7  8  2  0
  7  9  1  0
  9 10  1  0
 10 11  1  0
 11 12  1  0
 12 13  1  0
 13 14  1  0
 14 15  1  0
 13 16  1  0
 16 17  1  0
 17 18  2  0
 17 19  1  0
 19 20  1  0
 20 21  1  0
 21 22  1  0
 22 23  1  0
 23 24  1  0
 15 10  1  0
 23 16  1  0
 24 20  1  0
  1 25  1  0
  1 26  1  0
  1 27  1  0
  2 28  1  0
  3 29  1  0
  3 30  1  0
  3 31  1  0
  4 32  1  0
  4 33  1  0
  5 34  1  1
  6 35  1  0
  6 36  1  0
  9 37  1  0
 10 38  1  6
 11 39  1  0
 11 40  1  0
 12 41  1  0
 12 42  1  0
 13 43  1  1
 14 44  1  0
 14 45  1  0
 15 46  1  0
 15 47  1  0
 19 48  1  0
 20 49  1  1
 21 50  1  0
 21 51  1  0
 22 52  1  0
 22 53  1  0
 23 54  1  6
 24 55  1  0
 24 56  1  0
M  END
$$$$
[H]c1c([H])c(N([H])S(=O)(=O)c2c([H])c([H])c(N3C([H])([H])C([H])([H])N(C([H])([H])[H])C([H])([H])C3([H])[H])c([H])c2[H])c([H])c([H])c1-c1c([H])c([H])c(S(=O)(=O)N([H])[H])c([H])c1[H]
     RDKit          3D

 59 62  0  0  0  0  0  0  0  0999 V2000
    6.5955   -1.8132    0.2140 C   0  0  0  0  0  0  0  0  0  0  0  0
    6.2385   -2.1446   -1.1369 N   0  0  0  0  0  0  0  0  0  0  0  0
    4.9011   -2.6929   -1.1427 C   0  0  0  0  0  0  0  0  0  0  0  0
    3.9726   -1.7114   -0.5126 C   0  0  0  0  0  0  0  0  0  0  0  0
    4.1598   -0.4235   -1.1424 N   0  0  0  0  0  0  0  0  0  0  0  0
    5.0839   -0.2620   -2.2118 C   0  0  0  0  0  0  0  0  0  0  0  0
    6.3787   -1.0191   -2.0266 C   0  0  0  0  0  0  0  0  0  0  0  0
    3.4056    0.6893   -0.6714 C   0  0  0  0  0  0  0  0  0  0  0  0
    2.6404    0.5075    0.4790 C   0  0  0  0  0  0  0  0  0  0  0  0
    1.8943    1.5391    0.9799 C   0  0  0  0  0  0  0  0  0  0  0  0
    1.8606    2.7848    0.3871 C   0  0  0  0  0  0  0  0  0  0  0  0
    2.6134    2.9474   -0.7373 C   0  0  0  0  0  0  0  0  0  0  0  0
    3.3691    1.9184   -1.2533 C   0  0  0  0  0  0  0  0  0  0  0  0
    0.8725    4.0132    1.1258 S   0  0  0  0  0  0  0  0  0  0  0  0
    1.5945    5.3396    1.0069 O   0  0  0  0  0  0  0  0  0  0  0  0
    0.8033    3.7269    2.5969 O   0  0  0  0  0  0  0  0  0  0  0  0
   -0.6906    4.1005    0.4829 N   0  0  0  0  0  0  0  0  0  0  0  0
   -1.5888    3.0059    0.5552 C   0  0  0  0  0  0  0  0  0  0  0  0
   -2.2990    2.6296   -0.5976 C   0  0  0  0  0  0  0  0  0  0  0  0
   -3.1733    1.5770   -0.5479 C   0  0  0  0  0  0  0  0  0  0  0  0
   -3.4065    0.8440    0.5913 C   0  0  0  0  0  0  0  0  0  0  0  0
   -2.7243    1.1937    1.7259 C   0  0  0  0  0  0  0  0  0  0  0  0
   -1.8326    2.2615    1.6903 C   0  0  0  0  0  0  0  0  0  0  0  0
   -4.3431   -0.2651    0.6333 C   0  0  0  0  0  0  0  0  0  0  0  0
   -5.0537   -0.6057    1.7612 C   0  0  0  0  0  0  0  0  0  0  0  0
   -5.9521   -1.6456    1.8128 C   0  0  0  0  0  0  0  0  0  0  0  0
   -6.1595   -2.3934    0.6793 C   0  0  0  0  0  0  0  0  0  0  0  0
   -5.4627   -2.0787   -0.4692 C   0  0  0  0  0  0  0  0  0  0  0  0
   -4.5670   -1.0328   -0.5002 C   0  0  0  0  0  0  0  0  0  0  0  0
   -7.3159   -3.7220    0.7251 S   0  0  0  0  0  0  0  0  0  0  0  0
   -8.8504   -3.0578    0.2340 N   0  0  0  0  0  0  0  0  0  0  0  0
   -6.8419   -4.7801   -0.1934 O   0  0  0  0  0  0  0  0  0  0  0  0
   -7.4262   -4.1742    2.1508 O   0  0  0  0  0  0  0  0  0  0  0  0
    7.6683   -1.9837    0.3815 H   0  0  0  0  0  0  0  0  0  0  0  0
    6.0506   -2.4529    0.9531 H   0  0  0  0  0  0  0  0  0  0  0  0
    6.2956   -0.7638    0.4235 H   0  0  0  0  0  0  0  0  0  0  0  0
    4.6092   -3.0039   -2.1554 H   0  0  0  0  0  0  0  0  0  0  0  0
    4.9341   -3.5934   -0.4653 H   0  0  0  0  0  0  0  0  0  0  0  0
    4.2205   -1.6361    0.5634 H   0  0  0  0  0  0  0  0  0  0  0  0
    2.9179   -2.0666   -0.6021 H   0  0  0  0  0  0  0  0  0  0  0  0
    4.6320   -0.5223   -3.2138 H   0  0  0  0  0  0  0  0  0  0  0  0
    5.3731    0.8033   -2.2840 H   0  0  0  0  0  0  0  0  0  0  0  0
    6.6765   -1.4161   -3.0199 H   0  0  0  0  0  0  0  0  0  0  0  0
    7.1961   -0.3546   -1.6895 H   0  0  0  0  0  0  0  0  0  0  0  0
    2.6244   -0.4482    0.9933 H   0  0  0  0  0  0  0  0  0  0  0  0
    1.3143    1.3540    1.8783 H   0  0  0  0  0  0  0  0  0  0  0  0
    2.5959    3.9270   -1.2168 H   0  0  0  0  0  0  0  0  0  0  0  0
    3.9322    2.1177   -2.1485 H   0  0  0  0  0  0  0  0  0  0  0  0
   -1.0440    4.9716    0.0084 H   0  0  0  0  0  0  0  0  0  0  0  0
   -2.1192    3.2049   -1.5046 H   0  0  0  0  0  0  0  0  0  0  0  0
   -3.7060    1.3138   -1.4648 H   0  0  0  0  0  0  0  0  0  0  0  0
   -2.8671    0.6575    2.6401 H   0  0  0  0  0  0  0  0  0  0  0  0
   -1.2992    2.5299    2.6094 H   0  0  0  0  0  0  0  0  0  0  0  0
   -4.8747   -0.0038    2.6471 H   0  0  0  0  0  0  0  0  0  0  0  0
   -6.4975   -1.8903    2.7151 H   0  0  0  0  0  0  0  0  0  0  0  0
   -5.6424   -2.6820   -1.3546 H   0  0  0  0  0  0  0  0  0  0  0  0
   -4.0245   -0.7956   -1.4121 H   0  0  0  0  0  0  0  0  0  0  0  0
   -8.7075   -2.7446   -0.7639 H   0  0  0  0  0  0  0  0  0  0  0  0
   -8.9547   -2.1726    0.7936 H   0  0  0  0  0  0  0  0  0  0  0  0
  1  2  1  0
  2  3  1  0
  3  4  1  0
  4  5  1  0
  5  6  1  0
  6  7  1  0
  5  8  1  0
  8  9  2  0
  9 10  1  0
 10 11  2  0
 11 12  1  0
 12 13  2  0
 11 14  1  0
 14 15  2  0
 14 16  2  0
 14 17  1  0
 17 18  1  0
 18 19  2  0
 19 20  1  0
 20 21  2  0
 21 22  1  0
 22 23  2  0
 21 24  1  0
 24 25  2  0
 25 26  1  0
 26 27  2  0
 27 28  1  0
 28 29  2  0
 27 30  1  0
 30 31  1  0
 30 32  2  0
 30 33  2  0
  7  2  1  0
 13  8  1  0
 23 18  1  0
 29 24  1  0
  1 34  1  0
  1 35  1  0
  1 36  1  0
  3 37  1  0
  3 38  1  0
  4 39  1  0
  4 40  1  0
  6 41  1  0
  6 42  1  0
  7 43  1  0
  7 44  1  0
  9 45  1  0
 10 46  1  0
 12 47  1  0
 13 48  1  0
 17 49  1  0
 19 50  1  0
 20 51  1  0
 22 52  1  0
 23 53  1  0
 25 54  1  0
 26 55  1  0
 28 56  1  0
 29 57  1  0
 31 58  1  0
 31 59  1  0
M  END
$$$$
[H]c1nc(C2([H])C([H])([H])C([H])([H])N([C@]3([H])C([H])([H])C([H])([H])[C@@]([H])(N([H])C(=O)N4C([H])([H])C([H])([H])OC([H])([H])C4([H])[H])C([H])([H])C3([H])[H])C([H])([H])C2([H])[H])c([H])nc1-c1c([H])nn(C2([H])C([H])([H])C2([H])[H])c1[H]
     RDKit          3D

 72 77  0  0  0  0  0  0  0  0999 V2000
   -6.8562    1.5715   -1.4973 O   0  0  0  0  0  0  0  0  0  0  0  0
   -6.9351    0.5420   -0.7784 C   0  0  0  0  0  0  0  0  0  0  0  0
   -5.7506   -0.0959   -0.2844 N   0  0  0  0  0  0  0  0  0  0  0  0
   -4.4260    0.4310   -0.6011 C   0  0  1  0  0  0  0  0  0  0  0  0
   -3.7844    1.0341    0.6347 C   0  0  0  0  0  0  0  0  0  0  0  0
   -2.2694    1.0364    0.3852 C   0  0  0  0  0  0  0  0  0  0  0  0
   -1.8559   -0.4212    0.5504 C   0  0  1  0  0  0  0  0  0  0  0  0
   -2.6026   -1.2866   -0.4039 C   0  0  0  0  0  0  0  0  0  0  0  0
   -3.5464   -0.5370   -1.3034 C   0  0  0  0  0  0  0  0  0  0  0  0
   -0.4513   -0.6280    0.6218 N   0  0  0  0  0  0  0  0  0  0  0  0
    0.1689   -0.0274    1.7477 C   0  0  0  0  0  0  0  0  0  0  0  0
    1.6821   -0.1082    1.7037 C   0  0  0  0  0  0  0  0  0  0  0  0
    2.0768    0.7658    0.5103 C   0  0  0  0  0  0  0  0  0  0  0  0
    1.3811    0.3525   -0.7371 C   0  0  0  0  0  0  0  0  0  0  0  0
    0.2733   -0.6214   -0.5932 C   0  0  0  0  0  0  0  0  0  0  0  0
    3.5535    0.7478    0.4286 C   0  0  0  0  0  0  0  0  0  0  0  0
    4.3040    1.8988    0.6384 C   0  0  0  0  0  0  0  0  0  0  0  0
    5.6252    1.8028    0.5491 N   0  0  0  0  0  0  0  0  0  0  0  0
    6.2486    0.6418    0.2658 C   0  0  0  0  0  0  0  0  0  0  0  0
    5.5010   -0.4945    0.0590 C   0  0  0  0  0  0  0  0  0  0  0  0
    4.1573   -0.4215    0.1445 N   0  0  0  0  0  0  0  0  0  0  0  0
    7.7081    0.5792    0.1786 C   0  0  0  0  0  0  0  0  0  0  0  0
    8.5679    1.6425    0.3690 C   0  0  0  0  0  0  0  0  0  0  0  0
    9.8178    1.1741    0.2035 N   0  0  0  0  0  0  0  0  0  0  0  0
    9.7747   -0.1248   -0.0795 N   0  0  0  0  0  0  0  0  0  0  0  0
    8.4980   -0.5015   -0.0983 C   0  0  0  0  0  0  0  0  0  0  0  0
   10.8928   -0.9949   -0.3249 C   0  0  0  0  0  0  0  0  0  0  0  0
   11.6215   -0.9671   -1.6359 C   0  0  0  0  0  0  0  0  0  0  0  0
   12.2714   -0.3069   -0.4712 C   0  0  0  0  0  0  0  0  0  0  0  0
   -8.2337    0.0496   -0.4838 N   0  0  0  0  0  0  0  0  0  0  0  0
   -8.3153   -1.1478    0.3487 C   0  0  0  0  0  0  0  0  0  0  0  0
   -9.7386   -1.3352    0.8506 C   0  0  0  0  0  0  0  0  0  0  0  0
  -10.2138   -0.0417    1.1361 O   0  0  0  0  0  0  0  0  0  0  0  0
  -10.5835    0.5288   -0.0761 C   0  0  0  0  0  0  0  0  0  0  0  0
   -9.4052    0.7127   -0.9908 C   0  0  0  0  0  0  0  0  0  0  0  0
   -5.8805   -0.9471    0.3062 H   0  0  0  0  0  0  0  0  0  0  0  0
   -4.5849    1.3039   -1.2784 H   0  0  0  0  0  0  0  0  0  0  0  0
   -4.0968    2.0777    0.7889 H   0  0  0  0  0  0  0  0  0  0  0  0
   -3.9481    0.4615    1.5454 H   0  0  0  0  0  0  0  0  0  0  0  0
   -1.8516    1.6507    1.1995 H   0  0  0  0  0  0  0  0  0  0  0  0
   -2.0565    1.4008   -0.6260 H   0  0  0  0  0  0  0  0  0  0  0  0
   -2.2501   -0.6867    1.5845 H   0  0  0  0  0  0  0  0  0  0  0  0
   -1.8692   -1.8030   -1.0564 H   0  0  0  0  0  0  0  0  0  0  0  0
   -3.1320   -2.1369    0.1220 H   0  0  0  0  0  0  0  0  0  0  0  0
   -4.2038   -1.3244   -1.7767 H   0  0  0  0  0  0  0  0  0  0  0  0
   -2.9805   -0.1062   -2.1536 H   0  0  0  0  0  0  0  0  0  0  0  0
   -0.0855    1.0203    1.9204 H   0  0  0  0  0  0  0  0  0  0  0  0
   -0.1472   -0.5966    2.6579 H   0  0  0  0  0  0  0  0  0  0  0  0
    2.0623   -1.1348    1.6249 H   0  0  0  0  0  0  0  0  0  0  0  0
    2.0456    0.4426    2.5956 H   0  0  0  0  0  0  0  0  0  0  0  0
    1.7596    1.8026    0.7700 H   0  0  0  0  0  0  0  0  0  0  0  0
    2.1681   -0.1143   -1.4006 H   0  0  0  0  0  0  0  0  0  0  0  0
    1.0800    1.2749   -1.3183 H   0  0  0  0  0  0  0  0  0  0  0  0
    0.6632   -1.6602   -0.8089 H   0  0  0  0  0  0  0  0  0  0  0  0
   -0.4363   -0.4341   -1.4460 H   0  0  0  0  0  0  0  0  0  0  0  0
    3.7737    2.8209    0.8653 H   0  0  0  0  0  0  0  0  0  0  0  0
    5.9511   -1.4598   -0.1730 H   0  0  0  0  0  0  0  0  0  0  0  0
    8.3185    2.6673    0.6063 H   0  0  0  0  0  0  0  0  0  0  0  0
    8.1031   -1.4843   -0.2944 H   0  0  0  0  0  0  0  0  0  0  0  0
   10.8959   -1.9936    0.1798 H   0  0  0  0  0  0  0  0  0  0  0  0
   11.1508   -0.3806   -2.4316 H   0  0  0  0  0  0  0  0  0  0  0  0
   12.0634   -1.9305   -2.0204 H   0  0  0  0  0  0  0  0  0  0  0  0
   12.2497    0.7979   -0.4742 H   0  0  0  0  0  0  0  0  0  0  0  0
   13.0962   -0.8478    0.0313 H   0  0  0  0  0  0  0  0  0  0  0  0
   -7.9970   -2.0430   -0.1889 H   0  0  0  0  0  0  0  0  0  0  0  0
   -7.6732   -1.0064    1.2502 H   0  0  0  0  0  0  0  0  0  0  0  0
   -9.7747   -1.9395    1.7825 H   0  0  0  0  0  0  0  0  0  0  0  0
  -10.3887   -1.7850    0.0900 H   0  0  0  0  0  0  0  0  0  0  0  0
  -11.0683    1.5206    0.1465 H   0  0  0  0  0  0  0  0  0  0  0  0
  -11.3394   -0.1479   -0.5426 H   0  0  0  0  0  0  0  0  0  0  0  0
   -9.6258    0.4381   -2.0490 H   0  0  0  0  0  0  0  0  0  0  0  0
   -9.1468    1.8133   -0.9946 H   0  0  0  0  0  0  0  0  0  0  0  0
  1  2  2  0
  2  3  1  0
  3  4  1  0
  4  5  1  0
  5  6  1  0
  6  7  1  0
  7  8  1  0
  8  9  1  0
  7 10  1  0
 10 11  1  0
 11 12  1  0
 12 13  1  0
 13 14  1  0
 14 15  1  0
 13 16  1  0
 16 17  2  0
 17 18  1  0
 18 19  2  0
 19 20  1  0
 20 21  2  0
 19 22  1  0
 22 23  1  0
 23 24  2  0
 24 25  1  0
 25 26  1  0
 25 27  1  0
 27 28  1  0
 28 29  1  0
  2 30  1  0
 30 31  1  0
 31 32  1  0
 32 33  1  0
 33 34  1  0
 34 35  1  0
  9  4  1  0
 15 10  1  0
 21 16  1  0
 26 22  2  0
 29 27  1  0
 35 30  1  0
  3 36  1  0
  4 37  1  6
  5 38  1  0
  5 39  1  0
  6 40  1  0
  6 41  1  0
  7 42  1  1
  8 43  1  0
  8 44  1  0
  9 45  1  0
  9 46  1  0
 11 47  1  0
 11 48  1  0
 12 49  1  0
 12 50  1  0
 13 51  1  0
 14 52  1  0
 14 53  1  0
 15 54  1  0
 15 55  1  0
 17 56  1  0
 20 57  1  0
 23 58  1  0
 26 59  1  0
 27 60  1  0
 28 61  1  0
 28 62  1  0
 29 63  1  0
 29 64  1  0
 31 65  1  0
 31 66  1  0
 32 67  1  0
 32 68  1  0
 34 69  1  0
 34 70  1  0
 35 71  1  0
 35 72  1  0
M  END
$$$$
[H]c1nc(N([H])c2c([H])c([H])c(N3C([H])([H])C([H])([H])C([H])([H])C3([H])[H])c([H])c2OC([H])([H])[H])nc(N([H])c2c([H])c([H])c([H])c([H])c2S(=O)(=O)C(F)(F)F)c1Cl
     RDKit          3D

 56 59  0  0  0  0  0  0  0  0999 V2000
    2.1129    2.1372    3.0001 C   0  0  0  0  0  0  0  0  0  0  0  0
    1.5499    1.3555    1.9841 O   0  0  0  0  0  0  0  0  0  0  0  0
    2.2726    0.6882    1.0069 C   0  0  0  0  0  0  0  0  0  0  0  0
    3.6522    0.7467    0.9592 C   0  0  0  0  0  0  0  0  0  0  0  0
    4.3877    0.0903   -0.0061 C   0  0  0  0  0  0  0  0  0  0  0  0
    3.6728   -0.6315   -0.9262 C   0  0  0  0  0  0  0  0  0  0  0  0
    2.2691   -0.7017   -0.8915 C   0  0  0  0  0  0  0  0  0  0  0  0
    1.5435   -0.0584    0.0551 C   0  0  0  0  0  0  0  0  0  0  0  0
    0.1362   -0.0709    0.1935 N   0  0  0  0  0  0  0  0  0  0  0  0
   -0.8146   -0.7057   -0.6229 C   0  0  0  0  0  0  0  0  0  0  0  0
   -0.5643   -1.4280   -1.7183 N   0  0  0  0  0  0  0  0  0  0  0  0
   -1.4909   -2.0250   -2.4629 C   0  0  0  0  0  0  0  0  0  0  0  0
   -2.8171   -1.9239   -2.1266 C   0  0  0  0  0  0  0  0  0  0  0  0
   -4.0869   -2.6829   -3.0598 Cl  0  0  0  0  0  0  0  0  0  0  0  0
   -3.1085   -1.1629   -0.9684 C   0  0  0  0  0  0  0  0  0  0  0  0
   -4.4729   -1.0511   -0.6457 N   0  0  0  0  0  0  0  0  0  0  0  0
   -4.9932   -0.3849    0.4589 C   0  0  0  0  0  0  0  0  0  0  0  0
   -4.2824   -0.0569    1.5925 C   0  0  0  0  0  0  0  0  0  0  0  0
   -4.8607    0.5234    2.7345 C   0  0  0  0  0  0  0  0  0  0  0  0
   -6.2007    0.7807    2.7329 C   0  0  0  0  0  0  0  0  0  0  0  0
   -6.9382    0.4740    1.6363 C   0  0  0  0  0  0  0  0  0  0  0  0
   -6.3638   -0.1038    0.4934 C   0  0  0  0  0  0  0  0  0  0  0  0
   -7.3527   -0.3668   -0.8920 S   0  0  0  0  0  0  0  0  0  0  0  0
   -7.4464   -1.8009   -1.3354 O   0  0  0  0  0  0  0  0  0  0  0  0
   -8.8170   -0.0415   -0.5002 O   0  0  0  0  0  0  0  0  0  0  0  0
   -7.0006    0.7498   -2.2183 C   0  0  0  0  0  0  0  0  0  0  0  0
   -5.7458    0.7377   -2.7125 F   0  0  0  0  0  0  0  0  0  0  0  0
   -7.2399    2.0744   -1.8047 F   0  0  0  0  0  0  0  0  0  0  0  0
   -7.9127    0.4680   -3.2331 F   0  0  0  0  0  0  0  0  0  0  0  0
   -2.1076   -0.6024   -0.2887 N   0  0  0  0  0  0  0  0  0  0  0  0
    5.8149    0.1635   -0.0426 N   0  0  0  0  0  0  0  0  0  0  0  0
    6.6511   -0.5648   -0.9732 C   0  0  0  0  0  0  0  0  0  0  0  0
    8.0517   -0.4580   -0.4944 C   0  0  0  0  0  0  0  0  0  0  0  0
    7.9366    0.1186    0.8862 C   0  0  0  0  0  0  0  0  0  0  0  0
    6.6837    0.9507    0.8062 C   0  0  0  0  0  0  0  0  0  0  0  0
    3.1172    2.5187    2.8201 H   0  0  0  0  0  0  0  0  0  0  0  0
    1.4827    3.0505    3.2121 H   0  0  0  0  0  0  0  0  0  0  0  0
    2.1411    1.6088    3.9800 H   0  0  0  0  0  0  0  0  0  0  0  0
    4.2228    1.3184    1.6913 H   0  0  0  0  0  0  0  0  0  0  0  0
    4.2297   -1.1583   -1.6969 H   0  0  0  0  0  0  0  0  0  0  0  0
    1.7843   -1.2849   -1.6421 H   0  0  0  0  0  0  0  0  0  0  0  0
   -0.2946    0.4651    1.0209 H   0  0  0  0  0  0  0  0  0  0  0  0
   -1.2087   -2.6011   -3.3480 H   0  0  0  0  0  0  0  0  0  0  0  0
   -5.1518   -1.5379   -1.2721 H   0  0  0  0  0  0  0  0  0  0  0  0
   -3.2221   -0.2453    1.6785 H   0  0  0  0  0  0  0  0  0  0  0  0
   -4.2588    0.7588    3.5923 H   0  0  0  0  0  0  0  0  0  0  0  0
   -6.6837    1.2275    3.5963 H   0  0  0  0  0  0  0  0  0  0  0  0
   -8.0108    0.6714    1.6162 H   0  0  0  0  0  0  0  0  0  0  0  0
    6.5001   -0.2628   -2.0250 H   0  0  0  0  0  0  0  0  0  0  0  0
    6.3458   -1.6466   -0.9293 H   0  0  0  0  0  0  0  0  0  0  0  0
    8.6117    0.1947   -1.1935 H   0  0  0  0  0  0  0  0  0  0  0  0
    8.5302   -1.4612   -0.4248 H   0  0  0  0  0  0  0  0  0  0  0  0
    8.7775    0.8374    1.0741 H   0  0  0  0  0  0  0  0  0  0  0  0
    7.8878   -0.6483    1.6844 H   0  0  0  0  0  0  0  0  0  0  0  0
    6.8530    1.9734    0.4362 H   0  0  0  0  0  0  0  0  0  0  0  0
    6.2284    0.9849    1.8400 H   0  0  0  0  0  0  0  0  0  0  0  0
  1  2  1  0
  2  3  1  0
  3  4  2  0
  4  5  1  0
  5  6  2  0
  6  7  1  0
  7  8  2  0
  8  9  1  0
  9 10  1  0
 10 11  2  0
 11 12  1  0
 12 13  2  0
 13 14  1  0
 13 15  1  0
 15 16  1  0
 16 17  1  0
 17 18  2  0
 18 19  1  0
 19 20  2  0
 20 21  1  0
 21 22  2  0
 22 23  1  0
 23 24  2  0
 23 25  2  0
 23 26  1  0
 26 27  1  0
 26 28  1  0
 26 29  1  0
 15 30  2  0
  5 31  1  0
 31 32  1  0
 32 33  1  0
 33 34  1  0
 34 35  1  0
  8  3  1  0
 30 10  1  0
 35 31  1  0
 22 17  1  0
  1 36  1  0
  1 37  1  0
  1 38  1  0
  4 39  1  0
  6 40  1  0
  7 41  1  0
  9 42  1  0
 12 43  1  0
 16 44  1  0
 18 45  1  0
 19 46  1  0
 20 47  1  0
 21 48  1  0
 32 49  1  0
 32 50  1  0
 33 51  1  0
 33 52  1  0
 34 53  1  0
 34 54  1  0
 35 55  1  0
 35 56  1  0
M  END
$$$$
[H]OC(=O)[C@@]([H])(N([H])C(=O)[C@@]([H])(N([H])C(=O)[C@@]([H])(N([H])C(=O)[C@@]([H])(N([H])C(=O)c1c([H])c([H])c([H])c([H])c1[H])C([H])([H])c1c([H])c([H])c([H])c([H])c1[H])C([H])([H])C([H])(C([H])([H])[H])C([H])([H])[H])C([H])([H])c1c([H])c([H])c([H])c([H])c1[H])C([H])([H])[H]
     RDKit          3D

 84 86  0  0  0  0  0  0  0  0999 V2000
    0.2634   -5.0392   -0.6308 C   0  0  0  0  0  0  0  0  0  0  0  0
    0.2418   -3.7495   -1.4500 C   0  0  0  0  0  0  0  0  0  0  0  0
   -0.4606   -4.1129   -2.7585 C   0  0  0  0  0  0  0  0  0  0  0  0
   -0.6202   -2.7989   -0.6580 C   0  0  0  0  0  0  0  0  0  0  0  0
   -0.7110   -1.4694   -1.3837 C   0  0  2  0  0  0  0  0  0  0  0  0
    0.5613   -0.8768   -1.5568 N   0  0  0  0  0  0  0  0  0  0  0  0
    1.5690   -0.6797   -0.6008 C   0  0  0  0  0  0  0  0  0  0  0  0
    1.4214   -1.0476    0.5969 O   0  0  0  0  0  0  0  0  0  0  0  0
    2.8627   -0.0096   -0.9902 C   0  0  2  0  0  0  0  0  0  0  0  0
    3.5453   -0.9997   -1.9810 C   0  0  0  0  0  0  0  0  0  0  0  0
    4.8106   -0.4148   -2.4607 C   0  0  0  0  0  0  0  0  0  0  0  0
    4.8922    0.3627   -3.5823 C   0  0  0  0  0  0  0  0  0  0  0  0
    6.0560    0.9335   -4.0265 C   0  0  0  0  0  0  0  0  0  0  0  0
    7.2199    0.7276   -3.3240 C   0  0  0  0  0  0  0  0  0  0  0  0
    7.1613   -0.0567   -2.1870 C   0  0  0  0  0  0  0  0  0  0  0  0
    5.9940   -0.6325   -1.7358 C   0  0  0  0  0  0  0  0  0  0  0  0
    3.6955    0.2971    0.0586 N   0  0  0  0  0  0  0  0  0  0  0  0
    4.5212    0.6016    1.0981 C   0  0  0  0  0  0  0  0  0  0  0  0
    5.1886    1.7046    1.1982 O   0  0  0  0  0  0  0  0  0  0  0  0
    4.7643   -0.2820    2.2550 C   0  0  0  0  0  0  0  0  0  0  0  0
    4.5836   -1.6200    2.1418 C   0  0  0  0  0  0  0  0  0  0  0  0
    4.7986   -2.4687    3.2330 C   0  0  0  0  0  0  0  0  0  0  0  0
    5.2009   -1.8811    4.4157 C   0  0  0  0  0  0  0  0  0  0  0  0
    5.3904   -0.5424    4.5602 C   0  0  0  0  0  0  0  0  0  0  0  0
    5.1600    0.2679    3.4362 C   0  0  0  0  0  0  0  0  0  0  0  0
   -1.6663   -0.5576   -0.6869 C   0  0  0  0  0  0  0  0  0  0  0  0
   -1.1516    0.1268    0.2167 O   0  0  0  0  0  0  0  0  0  0  0  0
   -3.0086   -0.4674   -1.0031 N   0  0  0  0  0  0  0  0  0  0  0  0
   -4.0207    0.3871   -0.3690 C   0  0  1  0  0  0  0  0  0  0  0  0
   -4.2931   -0.1936    0.9636 C   0  0  0  0  0  0  0  0  0  0  0  0
   -5.2610    0.3846    1.8572 C   0  0  0  0  0  0  0  0  0  0  0  0
   -4.8801    1.2210    2.8776 C   0  0  0  0  0  0  0  0  0  0  0  0
   -5.7762    1.7711    3.7587 C   0  0  0  0  0  0  0  0  0  0  0  0
   -7.1122    1.4753    3.6147 C   0  0  0  0  0  0  0  0  0  0  0  0
   -7.5007    0.6438    2.5988 C   0  0  0  0  0  0  0  0  0  0  0  0
   -6.5880    0.0782    1.6979 C   0  0  0  0  0  0  0  0  0  0  0  0
   -3.7301    1.7868   -0.4311 C   0  0  0  0  0  0  0  0  0  0  0  0
   -2.5574    2.0835   -0.9519 O   0  0  0  0  0  0  0  0  0  0  0  0
   -4.4152    2.9455   -0.0616 N   0  0  0  0  0  0  0  0  0  0  0  0
   -3.8686    4.2817   -0.2430 C   0  0  1  0  0  0  0  0  0  0  0  0
   -4.5567    5.0188   -1.3708 C   0  0  0  0  0  0  0  0  0  0  0  0
   -4.0399    5.0675    0.9958 C   0  0  0  0  0  0  0  0  0  0  0  0
   -3.4817    6.3607    1.0041 O   0  0  0  0  0  0  0  0  0  0  0  0
   -4.6163    4.7062    2.0131 O   0  0  0  0  0  0  0  0  0  0  0  0
   -0.7908   -5.4380   -0.6227 H   0  0  0  0  0  0  0  0  0  0  0  0
    0.9957   -5.7702   -1.0049 H   0  0  0  0  0  0  0  0  0  0  0  0
    0.4866   -4.8013    0.4291 H   0  0  0  0  0  0  0  0  0  0  0  0
    1.2596   -3.3795   -1.6454 H   0  0  0  0  0  0  0  0  0  0  0  0
    0.0052   -5.0486   -3.1288 H   0  0  0  0  0  0  0  0  0  0  0  0
   -1.5134   -4.3477   -2.5623 H   0  0  0  0  0  0  0  0  0  0  0  0
   -0.3059   -3.3400   -3.5402 H   0  0  0  0  0  0  0  0  0  0  0  0
   -0.3042   -2.6737    0.3750 H   0  0  0  0  0  0  0  0  0  0  0  0
   -1.6287   -3.2841   -0.6358 H   0  0  0  0  0  0  0  0  0  0  0  0
   -1.1793   -1.7109   -2.3784 H   0  0  0  0  0  0  0  0  0  0  0  0
    0.7762   -0.5297   -2.5571 H   0  0  0  0  0  0  0  0  0  0  0  0
    2.5564    0.8169   -1.6508 H   0  0  0  0  0  0  0  0  0  0  0  0
    2.8570   -1.2147   -2.8112 H   0  0  0  0  0  0  0  0  0  0  0  0
    3.7874   -1.8957   -1.3849 H   0  0  0  0  0  0  0  0  0  0  0  0
    4.0051    0.5406   -4.1666 H   0  0  0  0  0  0  0  0  0  0  0  0
    6.1376    1.5582   -4.9237 H   0  0  0  0  0  0  0  0  0  0  0  0
    8.1583    1.1677   -3.6531 H   0  0  0  0  0  0  0  0  0  0  0  0
    8.0904   -0.2285   -1.6136 H   0  0  0  0  0  0  0  0  0  0  0  0
    6.0459   -1.2320   -0.8479 H   0  0  0  0  0  0  0  0  0  0  0  0
    3.9899    1.4879   -0.5305 H   0  0  0  0  0  0  0  0  0  0  0  0
    4.2663   -2.0848    1.2234 H   0  0  0  0  0  0  0  0  0  0  0  0
    4.6665   -3.5328    3.1883 H   0  0  0  0  0  0  0  0  0  0  0  0
    5.3889   -2.4912    5.3063 H   0  0  0  0  0  0  0  0  0  0  0  0
    5.7040   -0.0925    5.4949 H   0  0  0  0  0  0  0  0  0  0  0  0
    5.3082    1.3389    3.5677 H   0  0  0  0  0  0  0  0  0  0  0  0
   -3.3596   -1.0734   -1.7869 H   0  0  0  0  0  0  0  0  0  0  0  0
   -4.9662    0.2334   -0.9873 H   0  0  0  0  0  0  0  0  0  0  0  0
   -3.2890   -0.3251    1.4995 H   0  0  0  0  0  0  0  0  0  0  0  0
   -4.5967   -1.2915    0.8376 H   0  0  0  0  0  0  0  0  0  0  0  0
   -3.8212    1.4881    3.0300 H   0  0  0  0  0  0  0  0  0  0  0  0
   -5.4767    2.4339    4.5655 H   0  0  0  0  0  0  0  0  0  0  0  0
   -7.8580    1.9069    4.3122 H   0  0  0  0  0  0  0  0  0  0  0  0
   -8.5707    0.4072    2.4885 H   0  0  0  0  0  0  0  0  0  0  0  0
   -6.9953   -0.5544    0.9420 H   0  0  0  0  0  0  0  0  0  0  0  0
   -5.3515    2.8962    0.3570 H   0  0  0  0  0  0  0  0  0  0  0  0
   -2.8129    4.1736   -0.5073 H   0  0  0  0  0  0  0  0  0  0  0  0
   -3.8496    5.1193   -2.2538 H   0  0  0  0  0  0  0  0  0  0  0  0
   -4.7156    6.0636   -1.0416 H   0  0  0  0  0  0  0  0  0  0  0  0
   -5.5095    4.5947   -1.6700 H   0  0  0  0  0  0  0  0  0  0  0  0
   -3.1763    6.7799    0.1395 H   0  0  0  0  0  0  0  0  0  0  0  0
  1  2  1  0
  2  3  1  0
  2  4  1  0
  4  5  1  0
  5  6  1  0
  6  7  1  0
  7  8  2  0
  7  9  1  0
  9 10  1  0
 10 11  1  0
 11 12  2  0
 12 13  1  0
 13 14  2  0
 14 15  1  0
 15 16  2  0
  9 17  1  0
 17 18  1  0
 18 19  2  0
 18 20  1  0
 20 21  2  0
 21 22  1  0
 22 23  2  0
 23 24  1  0
 24 25  2  0
  5 26  1  0
 26 27  2  0
 26 28  1  0
 28 29  1  0
 29 30  1  0
 30 31  1  0
 31 32  2  0
 32 33  1  0
 33 34  2  0
 34 35  1  0
 35 36  2  0
 29 37  1  0
 37 38  2  0
 37 39  1  0
 39 40  1  0
 40 41  1  0
 40 42  1  0
 42 43  1  0
 42 44  2  0
 16 11  1  0
 25 20  1  0
 36 31  1  0
  1 45  1  0
  1 46  1  0
  1 47  1  0
  2 48  1  0
  3 49  1  0
  3 50  1  0
  3 51  1  0
  4 52  1  0
  4 53  1  0
  5 54  1  6
  6 55  1  0
  9 56  1  6
 10 57  1  0
 10 58  1  0
 12 59  1  0
 13 60  1  0
 14 61  1  0
 15 62  1  0
 16 63  1  0
 17 64  1  0
 21 65  1  0
 22 66  1  0
 23 67  1  0
 24 68  1  0
 25 69  1  0
 28 70  1  0
 29 71  1  6
 30 72  1  0
 30 73  1  0
 32 74  1  0
 33 75  1  0
 34 76  1  0
 35 77  1  0
 36 78  1  0
 39 79  1  0
 40 80  1  6
 41 81  1  0
 41 82  1  0
 41 83  1  0
 43 84  1  0
M  END
$$$$
[H]c1c([H])c(C(F)(F)F)c([H])c([H])c1-c1c([H])c([H])c(S(=O)(=O)N([H])[C@]([H])(C(=O)N([H])[C@]([H])(C(=O)N([H])[H])C([H])(C([H])([H])[H])C([H])([H])[H])C([H])(C([H])([H])[H])C([H])([H])[H])c([H])c1[H]
     RDKit          3D

 62 63  0  0  0  0  0  0  0  0999 V2000
   -1.2422    2.6782    2.3189 C   0  0  0  0  0  0  0  0  0  0  0  0
   -2.4073    2.0253    1.6552 C   0  0  0  0  0  0  0  0  0  0  0  0
   -3.0844    3.0925    0.8077 C   0  0  0  0  0  0  0  0  0  0  0  0
   -1.8770    0.8854    0.7287 C   0  0  2  0  0  0  0  0  0  0  0  0
   -1.0869    1.3529   -0.3039 N   0  0  0  0  0  0  0  0  0  0  0  0
    0.4506    1.7019   -0.5090 S   0  0  0  0  0  0  0  0  0  0  0  0
    0.8401    3.0911    0.0727 O   0  0  0  0  0  0  0  0  0  0  0  0
    0.5480    2.1525   -2.0776 O   0  0  0  0  0  0  0  0  0  0  0  0
    1.8093    0.6391   -0.3360 C   0  0  0  0  0  0  0  0  0  0  0  0
    2.3359   -0.0604   -1.3927 C   0  0  0  0  0  0  0  0  0  0  0  0
    3.5954   -0.6703   -1.3129 C   0  0  0  0  0  0  0  0  0  0  0  0
    4.3397   -0.5782   -0.1473 C   0  0  0  0  0  0  0  0  0  0  0  0
    3.8143    0.1052    0.9230 C   0  0  0  0  0  0  0  0  0  0  0  0
    2.5788    0.7026    0.8436 C   0  0  0  0  0  0  0  0  0  0  0  0
    5.7555   -0.9863   -0.1510 C   0  0  0  0  0  0  0  0  0  0  0  0
    6.2842   -1.9808   -0.9079 C   0  0  0  0  0  0  0  0  0  0  0  0
    7.6893   -2.1683   -0.9776 C   0  0  0  0  0  0  0  0  0  0  0  0
    8.5494   -1.3417   -0.2803 C   0  0  0  0  0  0  0  0  0  0  0  0
    8.0196   -0.3440    0.4841 C   0  0  0  0  0  0  0  0  0  0  0  0
    6.6559   -0.1828    0.5394 C   0  0  0  0  0  0  0  0  0  0  0  0
   10.0469   -1.4886   -0.4343 C   0  0  0  0  0  0  0  0  0  0  0  0
   10.4144   -2.7954   -0.2677 F   0  0  0  0  0  0  0  0  0  0  0  0
   10.6486   -0.7020    0.5275 F   0  0  0  0  0  0  0  0  0  0  0  0
   10.4346   -1.0479   -1.6996 F   0  0  0  0  0  0  0  0  0  0  0  0
   -2.9658    0.0308    0.2866 C   0  0  0  0  0  0  0  0  0  0  0  0
   -2.9328   -0.3916   -0.9028 O   0  0  0  0  0  0  0  0  0  0  0  0
   -4.0389   -0.3236    1.1014 N   0  0  0  0  0  0  0  0  0  0  0  0
   -5.1524   -1.1647    0.6733 C   0  0  1  0  0  0  0  0  0  0  0  0
   -6.3120   -0.4848    0.1347 C   0  0  0  0  0  0  0  0  0  0  0  0
   -6.1722    0.2975   -1.1193 C   0  0  0  0  0  0  0  0  0  0  0  0
   -7.5587   -1.3311    0.0934 C   0  0  0  0  0  0  0  0  0  0  0  0
   -4.5986   -2.2773   -0.1925 C   0  0  0  0  0  0  0  0  0  0  0  0
   -5.1587   -2.7647   -1.3853 N   0  0  0  0  0  0  0  0  0  0  0  0
   -3.5034   -2.8323    0.1931 O   0  0  0  0  0  0  0  0  0  0  0  0
   -1.0270    3.7064    2.0139 H   0  0  0  0  0  0  0  0  0  0  0  0
   -0.3752    1.9763    2.3078 H   0  0  0  0  0  0  0  0  0  0  0  0
   -1.4386    2.7857    3.4432 H   0  0  0  0  0  0  0  0  0  0  0  0
   -3.1394    1.6680    2.3772 H   0  0  0  0  0  0  0  0  0  0  0  0
   -2.3936    3.4285   -0.0079 H   0  0  0  0  0  0  0  0  0  0  0  0
   -3.9854    2.6690    0.3539 H   0  0  0  0  0  0  0  0  0  0  0  0
   -3.2902    3.9830    1.4235 H   0  0  0  0  0  0  0  0  0  0  0  0
   -1.2154    0.3599    1.4909 H   0  0  0  0  0  0  0  0  0  0  0  0
   -1.7253    1.5130   -1.1896 H   0  0  0  0  0  0  0  0  0  0  0  0
    1.7836   -0.1596   -2.3158 H   0  0  0  0  0  0  0  0  0  0  0  0
    4.0445   -1.2200   -2.1257 H   0  0  0  0  0  0  0  0  0  0  0  0
    4.4204    0.1261    1.8328 H   0  0  0  0  0  0  0  0  0  0  0  0
    2.1703    1.2294    1.6792 H   0  0  0  0  0  0  0  0  0  0  0  0
    5.6366   -2.6353   -1.4686 H   0  0  0  0  0  0  0  0  0  0  0  0
    8.0684   -2.9688   -1.5799 H   0  0  0  0  0  0  0  0  0  0  0  0
    8.6956    0.3295    1.0365 H   0  0  0  0  0  0  0  0  0  0  0  0
    6.2490    0.6030    1.1324 H   0  0  0  0  0  0  0  0  0  0  0  0
   -4.0884    0.0221    2.0728 H   0  0  0  0  0  0  0  0  0  0  0  0
   -5.4515   -1.7430    1.6028 H   0  0  0  0  0  0  0  0  0  0  0  0
   -6.6339    0.3431    0.9282 H   0  0  0  0  0  0  0  0  0  0  0  0
   -5.9664   -0.3074   -2.0098 H   0  0  0  0  0  0  0  0  0  0  0  0
   -7.1939    0.7864   -1.3229 H   0  0  0  0  0  0  0  0  0  0  0  0
   -5.5193    1.1940   -1.0174 H   0  0  0  0  0  0  0  0  0  0  0  0
   -7.4815   -2.3258    0.5452 H   0  0  0  0  0  0  0  0  0  0  0  0
   -8.4769   -0.7592    0.4781 H   0  0  0  0  0  0  0  0  0  0  0  0
   -7.8241   -1.4751   -0.9912 H   0  0  0  0  0  0  0  0  0  0  0  0
   -4.4326   -3.2647   -2.0191 H   0  0  0  0  0  0  0  0  0  0  0  0
   -6.1289   -2.7029   -1.6771 H   0  0  0  0  0  0  0  0  0  0  0  0
  1  2  1  0
  2  3  1  0
  2  4  1  0
  4  5  1  0
  5  6  1  0
  6  7  2  0
  6  8  2  0
  6  9  1  0
  9 10  2  0
 10 11  1  0
 11 12  2  0
 12 13  1  0
 13 14  2  0
 12 15  1  0
 15 16  2  0
 16 17  1  0
 17 18  2  0
 18 19  1  0
 19 20  2  0
 18 21  1  0
 21 22  1  0
 21 23  1  0
 21 24  1  0
  4 25  1  0
 25 26  2  0
 25 27  1  0
 27 28  1  0
 28 29  1  0
 29 30  1  0
 29 31  1  0
 28 32  1  0
 32 33  1  0
 32 34  2  0
 14  9  1  0
 20 15  1  0
  1 35  1  0
  1 36  1  0
  1 37  1  0
  2 38  1  0
  3 39  1  0
  3 40  1  0
  3 41  1  0
  4 42  1  1
  5 43  1  0
 10 44  1  0
 11 45  1  0
 13 46  1  0
 14 47  1  0
 16 48  1  0
 17 49  1  0
 19 50  1  0
 20 51  1  0
 27 52  1  0
 28 53  1  1
 29 54  1  0
 30 55  1  0
 30 56  1  0
 30 57  1  0
 31 58  1  0
 31 59  1  0
 31 60  1  0
 33 61  1  0
 33 62  1  0
M  END
$$$$
[H]N=C(N([H])[H])N([H])C([H])([H])C([H])([H])C([H])([H])[C@@]([H])(C(=O)N([H])[C@]([H])(C(=O)N([H])[H])C([H])([H])c1c([H])c([H])c([H])c([H])c1[H])N([H])C(=O)[C@@]([H])(N([H])[C@]([H])(c1c([H])c([H])c([H])c([H])c1[H])C([H])([H])[H])C([H])([H])c1c([H])c([H])c([H])c([H])c1[H]
     RDKit          3D

 83 85  0  0  0  0  0  0  0  0999 V2000
   -5.8206    0.7026    1.0282 C   0  0  0  0  0  0  0  0  0  0  0  0
   -5.2545   -0.3122   -0.0138 C   0  0  2  0  0  0  0  0  0  0  0  0
   -3.9113   -0.0304   -0.2466 N   0  0  0  0  0  0  0  0  0  0  0  0
   -2.9184   -0.0896    0.7283 C   0  0  1  0  0  0  0  0  0  0  0  0
   -2.4691   -1.3477    1.3298 C   0  0  0  0  0  0  0  0  0  0  0  0
   -3.3576   -2.2438    2.0317 C   0  0  0  0  0  0  0  0  0  0  0  0
   -3.8185   -3.3741    1.3846 C   0  0  0  0  0  0  0  0  0  0  0  0
   -4.6601   -4.2917    1.9483 C   0  0  0  0  0  0  0  0  0  0  0  0
   -5.0818   -4.0968    3.2283 C   0  0  0  0  0  0  0  0  0  0  0  0
   -4.6293   -2.9614    3.9028 C   0  0  0  0  0  0  0  0  0  0  0  0
   -3.7844   -2.0479    3.3247 C   0  0  0  0  0  0  0  0  0  0  0  0
   -1.6833    0.5468    0.1147 C   0  0  0  0  0  0  0  0  0  0  0  0
   -1.7028    0.9157   -1.0832 O   0  0  0  0  0  0  0  0  0  0  0  0
   -0.5142    0.7400    0.8478 N   0  0  0  0  0  0  0  0  0  0  0  0
    0.7124    1.3655    0.2514 C   0  0  1  0  0  0  0  0  0  0  0  0
    0.8251    2.6490    1.0225 C   0  0  0  0  0  0  0  0  0  0  0  0
    1.9474    3.5386    0.6146 C   0  0  0  0  0  0  0  0  0  0  0  0
    1.8012    3.9762   -0.8323 C   0  0  0  0  0  0  0  0  0  0  0  0
    2.8704    4.8399   -1.2488 N   0  0  0  0  0  0  0  0  0  0  0  0
    4.2065    4.3555   -1.3873 C   0  0  0  0  0  0  0  0  0  0  0  0
    4.6355    3.7216   -2.5662 N   0  0  0  0  0  0  0  0  0  0  0  0
    5.0403    4.5083   -0.3986 N   0  0  0  0  0  0  0  0  0  0  0  0
    1.8369    0.4485    0.4350 C   0  0  0  0  0  0  0  0  0  0  0  0
    1.6186   -0.5957    1.1498 O   0  0  0  0  0  0  0  0  0  0  0  0
    3.0988    0.6079   -0.0931 N   0  0  0  0  0  0  0  0  0  0  0  0
    4.1407   -0.4168    0.1855 C   0  0  1  0  0  0  0  0  0  0  0  0
    4.5498   -1.0368   -1.1284 C   0  0  0  0  0  0  0  0  0  0  0  0
    5.5771   -2.0727   -1.0634 C   0  0  0  0  0  0  0  0  0  0  0  0
    6.9412   -1.8426   -1.2611 C   0  0  0  0  0  0  0  0  0  0  0  0
    7.8638   -2.8523   -1.1910 C   0  0  0  0  0  0  0  0  0  0  0  0
    7.4325   -4.1451   -0.9157 C   0  0  0  0  0  0  0  0  0  0  0  0
    6.1094   -4.4093   -0.7167 C   0  0  0  0  0  0  0  0  0  0  0  0
    5.2095   -3.3752   -0.7932 C   0  0  0  0  0  0  0  0  0  0  0  0
    5.1958    0.1521    0.9898 C   0  0  0  0  0  0  0  0  0  0  0  0
    6.2709   -0.5931    1.4974 N   0  0  0  0  0  0  0  0  0  0  0  0
    5.1889    1.3925    1.2812 O   0  0  0  0  0  0  0  0  0  0  0  0
   -6.0368    0.0600   -1.2618 C   0  0  0  0  0  0  0  0  0  0  0  0
   -6.9070   -0.8246   -1.8331 C   0  0  0  0  0  0  0  0  0  0  0  0
   -7.6073   -0.4492   -2.9508 C   0  0  0  0  0  0  0  0  0  0  0  0
   -7.4336    0.8194   -3.4972 C   0  0  0  0  0  0  0  0  0  0  0  0
   -6.5646    1.7278   -2.9417 C   0  0  0  0  0  0  0  0  0  0  0  0
   -5.8674    1.3077   -1.8012 C   0  0  0  0  0  0  0  0  0  0  0  0
   -5.3751    1.6909    0.8307 H   0  0  0  0  0  0  0  0  0  0  0  0
   -6.9115    0.7377    0.8505 H   0  0  0  0  0  0  0  0  0  0  0  0
   -5.6712    0.3100    2.0386 H   0  0  0  0  0  0  0  0  0  0  0  0
   -5.5776   -1.2686    0.3617 H   0  0  0  0  0  0  0  0  0  0  0  0
   -3.7706    0.7444   -0.9073 H   0  0  0  0  0  0  0  0  0  0  0  0
   -3.2162    0.6757    1.5287 H   0  0  0  0  0  0  0  0  0  0  0  0
   -1.9317   -1.9313    0.5341 H   0  0  0  0  0  0  0  0  0  0  0  0
   -1.6279   -1.0833    2.0478 H   0  0  0  0  0  0  0  0  0  0  0  0
   -3.5084   -3.5764    0.3525 H   0  0  0  0  0  0  0  0  0  0  0  0
   -4.9894   -5.1667    1.3860 H   0  0  0  0  0  0  0  0  0  0  0  0
   -5.7411   -4.8178    3.6694 H   0  0  0  0  0  0  0  0  0  0  0  0
   -5.0038   -2.8661    4.9224 H   0  0  0  0  0  0  0  0  0  0  0  0
   -3.4601   -1.1859    3.8798 H   0  0  0  0  0  0  0  0  0  0  0  0
   -0.4339    0.4726    1.8311 H   0  0  0  0  0  0  0  0  0  0  0  0
    0.5663    1.5678   -0.8202 H   0  0  0  0  0  0  0  0  0  0  0  0
    0.9291    2.3903    2.1003 H   0  0  0  0  0  0  0  0  0  0  0  0
   -0.1142    3.2548    0.9315 H   0  0  0  0  0  0  0  0  0  0  0  0
    2.9190    3.0826    0.8074 H   0  0  0  0  0  0  0  0  0  0  0  0
    1.8253    4.4808    1.2513 H   0  0  0  0  0  0  0  0  0  0  0  0
    1.8529    3.0648   -1.4880 H   0  0  0  0  0  0  0  0  0  0  0  0
    0.8276    4.4529   -0.9762 H   0  0  0  0  0  0  0  0  0  0  0  0
    2.7234    5.8390   -1.4654 H   0  0  0  0  0  0  0  0  0  0  0  0
    5.6315    3.7875   -2.8814 H   0  0  0  0  0  0  0  0  0  0  0  0
    3.9907    3.1608   -3.1791 H   0  0  0  0  0  0  0  0  0  0  0  0
    4.7634    4.9706    0.4845 H   0  0  0  0  0  0  0  0  0  0  0  0
    3.4118    1.3813   -0.6957 H   0  0  0  0  0  0  0  0  0  0  0  0
    3.6115   -1.1930    0.8084 H   0  0  0  0  0  0  0  0  0  0  0  0
    3.6515   -1.5210   -1.6219 H   0  0  0  0  0  0  0  0  0  0  0  0
    4.9274   -0.2384   -1.8104 H   0  0  0  0  0  0  0  0  0  0  0  0
    7.2022   -0.8060   -1.4713 H   0  0  0  0  0  0  0  0  0  0  0  0
    8.8943   -2.6225   -1.3500 H   0  0  0  0  0  0  0  0  0  0  0  0
    8.1927   -4.9048   -0.8710 H   0  0  0  0  0  0  0  0  0  0  0  0
    5.8246   -5.4443   -0.5022 H   0  0  0  0  0  0  0  0  0  0  0  0
    4.1526   -3.5824   -0.6347 H   0  0  0  0  0  0  0  0  0  0  0  0
    7.2509   -0.2075    1.5350 H   0  0  0  0  0  0  0  0  0  0  0  0
    6.0805   -1.5586    1.8464 H   0  0  0  0  0  0  0  0  0  0  0  0
   -7.0514   -1.8009   -1.4266 H   0  0  0  0  0  0  0  0  0  0  0  0
   -8.2999   -1.1346   -3.4177 H   0  0  0  0  0  0  0  0  0  0  0  0
   -7.9826    1.1257   -4.3803 H   0  0  0  0  0  0  0  0  0  0  0  0
   -6.4181    2.7156   -3.3517 H   0  0  0  0  0  0  0  0  0  0  0  0
   -5.1947    2.0373   -1.3780 H   0  0  0  0  0  0  0  0  0  0  0  0
  1  2  1  0
  2  3  1  0
  3  4  1  0
  4  5  1  0
  5  6  1  0
  6  7  2  0
  7  8  1  0
  8  9  2  0
  9 10  1  0
 10 11  2  0
  4 12  1  0
 12 13  2  0
 12 14  1  0
 14 15  1  0
 15 16  1  0
 16 17  1  0
 17 18  1  0
 18 19  1  0
 19 20  1  0
 20 21  1  0
 20 22  2  3
 15 23  1  0
 23 24  2  0
 23 25  1  0
 25 26  1  0
 26 27  1  0
 27 28  1  0
 28 29  2  0
 29 30  1  0
 30 31  2  0
 31 32  1  0
 32 33  2  0
 26 34  1  0
 34 35  1  0
 34 36  2  0
  2 37  1  0
 37 38  2  0
 38 39  1  0
 39 40  2  0
 40 41  1  0
 41 42  2  0
 11  6  1  0
 33 28  1  0
 42 37  1  0
  1 43  1  0
  1 44  1  0
  1 45  1  0
  2 46  1  1
  3 47  1  0
  4 48  1  1
  5 49  1  0
  5 50  1  0
  7 51  1  0
  8 52  1  0
  9 53  1  0
 10 54  1  0
 11 55  1  0
 14 56  1  0
 15 57  1  6
 16 58  1  0
 16 59  1  0
 17 60  1  0
 17 61  1  0
 18 62  1  0
 18 63  1  0
 19 64  1  0
 21 65  1  0
 21 66  1  0
 22 67  1  0
 25 68  1  0
 26 69  1  1
 27 70  1  0
 27 71  1  0
 29 72  1  0
 30 73  1  0
 31 74  1  0
 32 75  1  0
 33 76  1  0
 35 77  1  0
 35 78  1  0
 38 79  1  0
 39 80  1  0
 40 81  1  0
 41 82  1  0
 42 83  1  0
M  END
$$$$
[H]OC(=O)[C@@]([H])(N([H])C(=O)[C@@]([H])(N([H])C(=O)[C@@]([H])(N([H])C(=O)[C@@]([H])(N([H])[H])C([H])([H])c1c([H])c([H])c(O[H])c([H])c1[H])C([H])([H])C([H])([H])C([H])([H])C([H])([H])[H])C([H])([H])c1c([H])c([H])c([H])c([H])c1[H])C([H])([H])c1c([H])c([H])c([H])c([H])c1[H]
     RDKit          3D

 83 85  0  0  0  0  0  0  0  0999 V2000
   -1.2294    6.2367    1.6765 C   0  0  0  0  0  0  0  0  0  0  0  0
   -1.0579    4.7524    1.2579 C   0  0  0  0  0  0  0  0  0  0  0  0
   -2.3780    4.1240    1.4349 C   0  0  0  0  0  0  0  0  0  0  0  0
   -2.6646    2.7261    1.1887 C   0  0  0  0  0  0  0  0  0  0  0  0
   -2.4715    2.0005   -0.0546 C   0  0  2  0  0  0  0  0  0  0  0  0
   -3.1223    0.6228    0.1541 N   0  0  0  0  0  0  0  0  0  0  0  0
   -4.2692    0.2612   -0.5462 C   0  0  0  0  0  0  0  0  0  0  0  0
   -4.7458    1.1144   -1.3523 O   0  0  0  0  0  0  0  0  0  0  0  0
   -4.9572   -1.0324   -0.4134 C   0  0  1  0  0  0  0  0  0  0  0  0
   -6.1649   -1.0009   -1.2195 N   0  0  0  0  0  0  0  0  0  0  0  0
   -4.0862   -2.1606   -0.9386 C   0  0  0  0  0  0  0  0  0  0  0  0
   -4.8154   -3.4406   -0.7878 C   0  0  0  0  0  0  0  0  0  0  0  0
   -4.6959   -4.2057    0.3508 C   0  0  0  0  0  0  0  0  0  0  0  0
   -5.3546   -5.4016    0.5411 C   0  0  0  0  0  0  0  0  0  0  0  0
   -6.1919   -5.8723   -0.4711 C   0  0  0  0  0  0  0  0  0  0  0  0
   -6.8565   -7.0630   -0.3008 O   0  0  0  0  0  0  0  0  0  0  0  0
   -6.3130   -5.1023   -1.6188 C   0  0  0  0  0  0  0  0  0  0  0  0
   -5.6480   -3.9072   -1.7960 C   0  0  0  0  0  0  0  0  0  0  0  0
   -1.1698    1.6583   -0.6118 C   0  0  0  0  0  0  0  0  0  0  0  0
   -1.3166    0.7211   -1.5635 O   0  0  0  0  0  0  0  0  0  0  0  0
    0.1411    2.0068   -0.4393 N   0  0  0  0  0  0  0  0  0  0  0  0
    1.2252    1.3786   -1.2408 C   0  0  1  0  0  0  0  0  0  0  0  0
    1.9537    2.3205   -2.1009 C   0  0  0  0  0  0  0  0  0  0  0  0
    2.6461    3.4444   -1.4859 C   0  0  0  0  0  0  0  0  0  0  0  0
    3.9710    3.3832   -1.1241 C   0  0  0  0  0  0  0  0  0  0  0  0
    4.6502    4.4126   -0.5443 C   0  0  0  0  0  0  0  0  0  0  0  0
    3.9789    5.5874   -0.3039 C   0  0  0  0  0  0  0  0  0  0  0  0
    2.6312    5.7257   -0.6447 C   0  0  0  0  0  0  0  0  0  0  0  0
    2.0060    4.6554   -1.2234 C   0  0  0  0  0  0  0  0  0  0  0  0
    2.0573    0.5308   -0.4135 C   0  0  0  0  0  0  0  0  0  0  0  0
    1.7762    0.4453    0.8340 O   0  0  0  0  0  0  0  0  0  0  0  0
    3.1455   -0.2136   -0.8588 N   0  0  0  0  0  0  0  0  0  0  0  0
    3.9368   -1.0759    0.0269 C   0  0  1  0  0  0  0  0  0  0  0  0
    3.7935   -2.4986   -0.4120 C   0  0  0  0  0  0  0  0  0  0  0  0
    4.5282   -3.5097    0.3680 C   0  0  0  0  0  0  0  0  0  0  0  0
    5.7854   -3.9651   -0.0115 C   0  0  0  0  0  0  0  0  0  0  0  0
    6.4713   -4.9060    0.7137 C   0  0  0  0  0  0  0  0  0  0  0  0
    5.9048   -5.4262    1.8605 C   0  0  0  0  0  0  0  0  0  0  0  0
    4.6525   -4.9709    2.2348 C   0  0  0  0  0  0  0  0  0  0  0  0
    3.9778   -4.0381    1.5128 C   0  0  0  0  0  0  0  0  0  0  0  0
    5.3092   -0.6589    0.2164 C   0  0  0  0  0  0  0  0  0  0  0  0
    6.0778   -1.3023    1.2122 O   0  0  0  0  0  0  0  0  0  0  0  0
    5.9352    0.2356   -0.4026 O   0  0  0  0  0  0  0  0  0  0  0  0
   -1.6541    6.7350    0.7573 H   0  0  0  0  0  0  0  0  0  0  0  0
   -0.2449    6.6862    1.8579 H   0  0  0  0  0  0  0  0  0  0  0  0
   -1.9777    6.3645    2.4572 H   0  0  0  0  0  0  0  0  0  0  0  0
   -0.2555    4.3432    1.8942 H   0  0  0  0  0  0  0  0  0  0  0  0
   -0.7518    4.7536    0.1739 H   0  0  0  0  0  0  0  0  0  0  0  0
   -3.1403    4.8268    0.9520 H   0  0  0  0  0  0  0  0  0  0  0  0
   -2.6110    4.2851    2.5704 H   0  0  0  0  0  0  0  0  0  0  0  0
   -2.0697    2.1296    1.9981 H   0  0  0  0  0  0  0  0  0  0  0  0
   -3.7314    2.5117    1.6061 H   0  0  0  0  0  0  0  0  0  0  0  0
   -3.1080    2.4414   -0.8452 H   0  0  0  0  0  0  0  0  0  0  0  0
   -2.6577    0.0175    0.8267 H   0  0  0  0  0  0  0  0  0  0  0  0
   -5.1964   -1.2645    0.6419 H   0  0  0  0  0  0  0  0  0  0  0  0
   -5.9718   -0.5612   -2.1424 H   0  0  0  0  0  0  0  0  0  0  0  0
   -6.9358   -0.5028   -0.7216 H   0  0  0  0  0  0  0  0  0  0  0  0
   -3.8852   -2.0372   -2.0290 H   0  0  0  0  0  0  0  0  0  0  0  0
   -3.1619   -2.1672   -0.3318 H   0  0  0  0  0  0  0  0  0  0  0  0
   -4.0500   -3.8838    1.1814 H   0  0  0  0  0  0  0  0  0  0  0  0
   -5.2362   -5.9774    1.4543 H   0  0  0  0  0  0  0  0  0  0  0  0
   -7.7617   -7.1861    0.1025 H   0  0  0  0  0  0  0  0  0  0  0  0
   -6.9788   -5.5155   -2.3776 H   0  0  0  0  0  0  0  0  0  0  0  0
   -5.7959   -3.3672   -2.7218 H   0  0  0  0  0  0  0  0  0  0  0  0
    0.5419    2.6890    0.2368 H   0  0  0  0  0  0  0  0  0  0  0  0
    0.6510    0.6937   -1.9530 H   0  0  0  0  0  0  0  0  0  0  0  0
    1.3508    2.7282   -2.9472 H   0  0  0  0  0  0  0  0  0  0  0  0
    2.7482    1.7092   -2.6375 H   0  0  0  0  0  0  0  0  0  0  0  0
    4.4872    2.4627   -1.3295 H   0  0  0  0  0  0  0  0  0  0  0  0
    5.7097    4.2857   -0.2844 H   0  0  0  0  0  0  0  0  0  0  0  0
    4.5365    6.3881    0.1574 H   0  0  0  0  0  0  0  0  0  0  0  0
    2.1377    6.6711   -0.4379 H   0  0  0  0  0  0  0  0  0  0  0  0
    0.9645    4.7577   -1.4896 H   0  0  0  0  0  0  0  0  0  0  0  0
    3.4395   -0.1833   -1.8553 H   0  0  0  0  0  0  0  0  0  0  0  0
    3.4279   -1.0102    1.0339 H   0  0  0  0  0  0  0  0  0  0  0  0
    2.7110   -2.7655   -0.3916 H   0  0  0  0  0  0  0  0  0  0  0  0
    4.0899   -2.6331   -1.4939 H   0  0  0  0  0  0  0  0  0  0  0  0
    6.2281   -3.5506   -0.9157 H   0  0  0  0  0  0  0  0  0  0  0  0
    7.4675   -5.2621    0.4094 H   0  0  0  0  0  0  0  0  0  0  0  0
    6.4269   -6.1641    2.4461 H   0  0  0  0  0  0  0  0  0  0  0  0
    4.1982   -5.3846    3.1469 H   0  0  0  0  0  0  0  0  0  0  0  0
    2.9807   -3.6670    1.8002 H   0  0  0  0  0  0  0  0  0  0  0  0
    6.0317   -0.9885    2.1733 H   0  0  0  0  0  0  0  0  0  0  0  0
  1  2  1  0
  2  3  1  0
  3  4  1  0
  4  5  1  0
  5  6  1  0
  6  7  1  0
  7  8  2  0
  7  9  1  0
  9 10  1  0
  9 11  1  0
 11 12  1  0
 12 13  2  0
 13 14  1  0
 14 15  2  0
 15 16  1  0
 15 17  1  0
 17 18  2  0
  5 19  1  0
 19 20  2  0
 19 21  1  0
 21 22  1  0
 22 23  1  0
 23 24  1  0
 24 25  2  0
 25 26  1  0
 26 27  2  0
 27 28  1  0
 28 29  2  0
 22 30  1  0
 30 31  2  0
 30 32  1  0
 32 33  1  0
 33 34  1  0
 34 35  1  0
 35 36  2  0
 36 37  1  0
 37 38  2  0
 38 39  1  0
 39 40  2  0
 33 41  1  0
 41 42  1  0
 41 43  2  0
 18 12  1  0
 29 24  1  0
 40 35  1  0
  1 44  1  0
  1 45  1  0
  1 46  1  0
  2 47  1  0
  2 48  1  0
  3 49  1  0
  3 50  1  0
  4 51  1  0
  4 52  1  0
  5 53  1  6
  6 54  1  0
  9 55  1  1
 10 56  1  0
 10 57  1  0
 11 58  1  0
 11 59  1  0
 13 60  1  0
 14 61  1  0
 16 62  1  0
 17 63  1  0
 18 64  1  0
 21 65  1  0
 22 66  1  6
 23 67  1  0
 23 68  1  0
 25 69  1  0
 26 70  1  0
 27 71  1  0
 28 72  1  0
 29 73  1  0
 32 74  1  0
 33 75  1  1
 34 76  1  0
 34 77  1  0
 36 78  1  0
 37 79  1  0
 38 80  1  0
 39 81  1  0
 40 82  1  0
 42 83  1  0
M  END
$$$$
[H]c1nc2c([H])c(OC([H])([H])[H])c(OC([H])([H])[H])c([H])c2c(Oc2c([H])c([H])c(N([H])C(=O)c3c([H])c(C(F)(F)F)n(C([H])([H])[H])c3[H])c([H])c2F)c1[H]
     RDKit          3D

 54 57  0  0  0  0  0  0  0  0999 V2000
   -5.2514   -2.3505    2.1383 C   0  0  0  0  0  0  0  0  0  0  0  0
   -5.8551   -2.0790    0.8489 O   0  0  0  0  0  0  0  0  0  0  0  0
   -5.3664   -0.9086    0.2227 C   0  0  0  0  0  0  0  0  0  0  0  0
   -4.2797   -0.2610    0.6781 C   0  0  0  0  0  0  0  0  0  0  0  0
   -3.8723    0.9455    0.0898 C   0  0  0  0  0  0  0  0  0  0  0  0
   -2.8484    1.5689    0.5868 C   0  0  0  0  0  0  0  0  0  0  0  0
   -1.9487    1.0426    1.6180 O   0  0  0  0  0  0  0  0  0  0  0  0
   -0.7271    0.7077    0.8463 C   0  0  0  0  0  0  0  0  0  0  0  0
   -0.7493    0.3114   -0.4526 C   0  0  0  0  0  0  0  0  0  0  0  0
    0.4764    0.1014   -1.1066 C   0  0  0  0  0  0  0  0  0  0  0  0
    1.6812    0.2790   -0.5086 C   0  0  0  0  0  0  0  0  0  0  0  0
    2.9493    0.4145   -1.0665 N   0  0  0  0  0  0  0  0  0  0  0  0
    4.1498    0.5543   -1.6201 C   0  0  0  0  0  0  0  0  0  0  0  0
    4.3948    0.9982   -2.7992 O   0  0  0  0  0  0  0  0  0  0  0  0
    5.3655    0.1827   -0.8547 C   0  0  0  0  0  0  0  0  0  0  0  0
    6.4058    0.9408   -0.3848 C   0  0  0  0  0  0  0  0  0  0  0  0
    7.2681    0.1159    0.3184 N   0  0  0  0  0  0  0  0  0  0  0  0
    8.4657    0.5590    0.9691 C   0  0  0  0  0  0  0  0  0  0  0  0
    6.7833   -1.1428    0.2987 C   0  0  0  0  0  0  0  0  0  0  0  0
    5.5779   -1.1036   -0.4431 C   0  0  0  0  0  0  0  0  0  0  0  0
    7.3383   -2.3594    0.9245 C   0  0  0  0  0  0  0  0  0  0  0  0
    8.4327   -2.8100    0.1991 F   0  0  0  0  0  0  0  0  0  0  0  0
    6.3825   -3.3803    0.8083 F   0  0  0  0  0  0  0  0  0  0  0  0
    7.6061   -2.2379    2.2651 F   0  0  0  0  0  0  0  0  0  0  0  0
    1.6356    0.6811    0.8824 C   0  0  0  0  0  0  0  0  0  0  0  0
    0.4515    0.8816    1.5203 C   0  0  0  0  0  0  0  0  0  0  0  0
    0.4105    1.2360    2.8175 F   0  0  0  0  0  0  0  0  0  0  0  0
   -2.4877    2.8334    0.0999 C   0  0  0  0  0  0  0  0  0  0  0  0
   -3.2446    3.3679   -0.9187 C   0  0  0  0  0  0  0  0  0  0  0  0
   -4.2848    2.6979   -1.4478 N   0  0  0  0  0  0  0  0  0  0  0  0
   -4.6131    1.4638   -0.9538 C   0  0  0  0  0  0  0  0  0  0  0  0
   -5.7142    0.8036   -1.4533 C   0  0  0  0  0  0  0  0  0  0  0  0
   -6.1355   -0.4382   -0.8894 C   0  0  0  0  0  0  0  0  0  0  0  0
   -7.0749   -1.2467   -1.2491 O   0  0  0  0  0  0  0  0  0  0  0  0
   -8.0706   -1.7602   -1.9472 C   0  0  0  0  0  0  0  0  0  0  0  0
   -5.1351   -1.2649    2.5394 H   0  0  0  0  0  0  0  0  0  0  0  0
   -4.3128   -2.7733    2.0125 H   0  0  0  0  0  0  0  0  0  0  0  0
   -6.0199   -2.7814    2.8094 H   0  0  0  0  0  0  0  0  0  0  0  0
   -3.6604   -0.6356    1.4935 H   0  0  0  0  0  0  0  0  0  0  0  0
   -1.6661    0.1051   -0.9766 H   0  0  0  0  0  0  0  0  0  0  0  0
    0.4637   -0.2430   -2.1292 H   0  0  0  0  0  0  0  0  0  0  0  0
    2.4130    1.4251   -1.9216 H   0  0  0  0  0  0  0  0  0  0  0  0
    6.5082    1.9940   -0.5725 H   0  0  0  0  0  0  0  0  0  0  0  0
    8.2771    0.7294    2.0669 H   0  0  0  0  0  0  0  0  0  0  0  0
    9.3035   -0.1553    0.8734 H   0  0  0  0  0  0  0  0  0  0  0  0
    8.8486    1.5281    0.5699 H   0  0  0  0  0  0  0  0  0  0  0  0
    4.9799   -1.9731   -0.6364 H   0  0  0  0  0  0  0  0  0  0  0  0
    2.5877    0.7928    1.3557 H   0  0  0  0  0  0  0  0  0  0  0  0
   -1.6658    3.3690    0.5097 H   0  0  0  0  0  0  0  0  0  0  0  0
   -3.0008    4.3899   -1.3042 H   0  0  0  0  0  0  0  0  0  0  0  0
   -6.3188    1.1793   -2.2625 H   0  0  0  0  0  0  0  0  0  0  0  0
   -8.6274   -2.5681   -1.3568 H   0  0  0  0  0  0  0  0  0  0  0  0
   -8.7271   -1.1853   -2.5919 H   0  0  0  0  0  0  0  0  0  0  0  0
   -7.4988   -2.5419   -2.6898 H   0  0  0  0  0  0  0  0  0  0  0  0
  1  2  1  0
  2  3  1  0
  3  4  2  0
  4  5  1  0
  5  6  2  0
  6  7  1  0
  7  8  1  0
  8  9  2  0
  9 10  1  0
 10 11  2  0
 11 12  1  0
 12 13  1  0
 13 14  2  0
 13 15  1  0
 15 16  2  0
 16 17  1  0
 17 18  1  0
 17 19  1  0
 19 20  2  0
 19 21  1  0
 21 22  1  0
 21 23  1  0
 21 24  1  0
 11 25  1  0
 25 26  2  0
 26 27  1  0
  6 28  1  0
 28 29  2  0
 29 30  1  0
 30 31  2  0
 31 32  1  0
 32 33  2  0
 33 34  1  0
 34 35  1  0
 33  3  1  0
 31  5  1  0
 26  8  1  0
 20 15  1  0
  1 36  1  0
  1 37  1  0
  1 38  1  0
  4 39  1  0
  9 40  1  0
 10 41  1  0
 12 42  1  0
 16 43  1  0
 18 44  1  0
 18 45  1  0
 18 46  1  0
 20 47  1  0
 25 48  1  0
 28 49  1  0
 29 50  1  0
 32 51  1  0
 35 52  1  0
 35 53  1  0
 35 54  1  0
M  END
$$$$
[H]/C(C(=O)N([H])c1c([H])c([H])c(OC([H])([H])[H])c([H])c1[H])=C(/[H])c1c([H])c([H])c(-c2c([H])c([H])c(OC([H])([H])[H])c([H])c2[H])c([H])c1[H]
     RDKit          3D

 48 50  0  0  0  0  0  0  0  0999 V2000
    9.9160    0.2573   -0.5099 C   0  0  0  0  0  0  0  0  0  0  0  0
    9.1227   -0.8673   -0.2492 O   0  0  0  0  0  0  0  0  0  0  0  0
    7.7333   -0.7157   -0.1905 C   0  0  0  0  0  0  0  0  0  0  0  0
    7.1456    0.5160   -0.3847 C   0  0  0  0  0  0  0  0  0  0  0  0
    5.7757    0.6747   -0.3286 C   0  0  0  0  0  0  0  0  0  0  0  0
    4.9283   -0.3897   -0.0759 C   0  0  0  0  0  0  0  0  0  0  0  0
    5.5287   -1.6178    0.1168 C   0  0  0  0  0  0  0  0  0  0  0  0
    6.8983   -1.7833    0.0620 C   0  0  0  0  0  0  0  0  0  0  0  0
    3.4810   -0.2355   -0.0143 C   0  0  0  0  0  0  0  0  0  0  0  0
    2.6230   -1.2515   -0.3879 C   0  0  0  0  0  0  0  0  0  0  0  0
    1.2515   -1.1096   -0.3312 C   0  0  0  0  0  0  0  0  0  0  0  0
    0.6764    0.0734    0.1085 C   0  0  0  0  0  0  0  0  0  0  0  0
   -0.7965    0.1472    0.1402 C   0  0  0  0  0  0  0  0  0  0  0  0
   -1.4639    1.1961    0.5304 C   0  0  0  0  0  0  0  0  0  0  0  0
   -2.9214    1.3159    0.5791 C   0  0  0  0  0  0  0  0  0  0  0  0
   -3.3623    2.4120    0.9861 O   0  0  0  0  0  0  0  0  0  0  0  0
   -3.7494    0.2775    0.1972 N   0  0  0  0  0  0  0  0  0  0  0  0
   -5.1683    0.3296    0.2308 C   0  0  0  0  0  0  0  0  0  0  0  0
   -5.8943   -0.5683   -0.5632 C   0  0  0  0  0  0  0  0  0  0  0  0
   -7.2481   -0.5818   -0.5541 C   0  0  0  0  0  0  0  0  0  0  0  0
   -8.0103    0.2657    0.2182 C   0  0  0  0  0  0  0  0  0  0  0  0
   -9.3888    0.1963    0.1772 O   0  0  0  0  0  0  0  0  0  0  0  0
   -9.9942   -0.7562   -0.6684 C   0  0  0  0  0  0  0  0  0  0  0  0
   -7.3074    1.1519    1.0027 C   0  0  0  0  0  0  0  0  0  0  0  0
   -5.9064    1.1792    1.0056 C   0  0  0  0  0  0  0  0  0  0  0  0
    1.4920    1.0860    0.4810 C   0  0  0  0  0  0  0  0  0  0  0  0
    2.8809    0.9249    0.4172 C   0  0  0  0  0  0  0  0  0  0  0  0
    9.6040    0.8377   -1.3902 H   0  0  0  0  0  0  0  0  0  0  0  0
    9.8540    0.9168    0.3959 H   0  0  0  0  0  0  0  0  0  0  0  0
   10.9535   -0.0883   -0.6817 H   0  0  0  0  0  0  0  0  0  0  0  0
    7.8019    1.3516   -0.5825 H   0  0  0  0  0  0  0  0  0  0  0  0
    5.3014    1.6362   -0.4793 H   0  0  0  0  0  0  0  0  0  0  0  0
    4.8667   -2.4708    0.3183 H   0  0  0  0  0  0  0  0  0  0  0  0
    7.3533   -2.7579    0.2164 H   0  0  0  0  0  0  0  0  0  0  0  0
    3.0000   -2.2026   -0.7412 H   0  0  0  0  0  0  0  0  0  0  0  0
    0.6114   -1.9282   -0.6324 H   0  0  0  0  0  0  0  0  0  0  0  0
   -1.3623   -0.7181   -0.1782 H   0  0  0  0  0  0  0  0  0  0  0  0
   -0.8710    2.0552    0.8465 H   0  0  0  0  0  0  0  0  0  0  0  0
   -3.2993   -0.6289   -0.1452 H   0  0  0  0  0  0  0  0  0  0  0  0
   -5.2923   -1.2477   -1.1830 H   0  0  0  0  0  0  0  0  0  0  0  0
   -7.7614   -1.3002   -1.1904 H   0  0  0  0  0  0  0  0  0  0  0  0
   -9.6302   -0.5672   -1.6982 H   0  0  0  0  0  0  0  0  0  0  0  0
  -11.0964   -0.7561   -0.5883 H   0  0  0  0  0  0  0  0  0  0  0  0
   -9.5761   -1.7541   -0.3519 H   0  0  0  0  0  0  0  0  0  0  0  0
   -7.8735    1.8317    1.6215 H   0  0  0  0  0  0  0  0  0  0  0  0
   -5.4459    1.8956    1.6640 H   0  0  0  0  0  0  0  0  0  0  0  0
    1.0960    2.0217    0.8286 H   0  0  0  0  0  0  0  0  0  0  0  0
    3.5240    1.7462    0.7194 H   0  0  0  0  0  0  0  0  0  0  0  0
  1  2  1  0
  2  3  1  0
  3  4  2  0
  4  5  1  0
  5  6  2  0
  6  7  1  0
  7  8  2  0
  6  9  1  0
  9 10  2  0
 10 11  1  0
 11 12  2  0
 12 13  1  0
 13 14  2  0
 14 15  1  0
 15 16  2  0
 15 17  1  0
 17 18  1  0
 18 19  2  0
 19 20  1  0
 20 21  2  0
 21 22  1  0
 22 23  1  0
 21 24  1  0
 24 25  2  0
 12 26  1  0
 26 27  2  0
  8  3  1  0
 27  9  1  0
 25 18  1  0
  1 28  1  0
  1 29  1  0
  1 30  1  0
  4 31  1  0
  5 32  1  0
  7 33  1  0
  8 34  1  0
 10 35  1  0
 11 36  1  0
 13 37  1  0
 14 38  1  0
 17 39  1  0
 19 40  1  0
 20 41  1  0
 23 42  1  0
 23 43  1  0
 23 44  1  0
 24 45  1  0
 25 46  1  0
 26 47  1  0
 27 48  1  0
M  END
$$$$
[H]N=C(N([H])[H])N([H])C([H])([H])C([H])([H])C([H])([H])[C@@]([H])(C(=O)N([H])[C@]([H])(C(=O)O[H])C([H])([H])c1c([H])c([H])c(O[H])c([H])c1[H])N([H])C(=O)[C@@]([H])(N([H])C(=O)[C@]1([H])C([H])([H])C([H])([H])C([H])([H])[C@]1([H])N([H])C(=O)[C@@]([H])(N([H])C(=O)C(C([H])([H])[H])(C([H])([H])[H])C([H])([H])[H])C([H])([H])C([H])(C([H])([H])[H])C([H])([H])[H])C([H])([H])c1c([H])n([H])c2c([H])c([H])c([H])c([H])c12
     RDKit          3D

121124  0  0  0  0  0  0  0  0999 V2000
   -7.6518    1.1447   -2.8753 C   0  0  0  0  0  0  0  0  0  0  0  0
   -7.6455    2.1849   -1.7758 C   0  0  0  0  0  0  0  0  0  0  0  0
   -9.0334    2.6161   -1.4440 C   0  0  0  0  0  0  0  0  0  0  0  0
   -6.7728    1.8597   -0.6199 C   0  0  0  0  0  0  0  0  0  0  0  0
   -7.0485    0.6130    0.1324 C   0  0  2  0  0  0  0  0  0  0  0  0
   -8.3815    0.5717    0.7131 N   0  0  0  0  0  0  0  0  0  0  0  0
   -9.2973   -0.4458    0.3537 C   0  0  0  0  0  0  0  0  0  0  0  0
   -8.9532   -1.3271   -0.5162 O   0  0  0  0  0  0  0  0  0  0  0  0
  -10.6551   -0.6080    0.9044 C   0  0  0  0  0  0  0  0  0  0  0  0
  -11.4100    0.6834    0.8099 C   0  0  0  0  0  0  0  0  0  0  0  0
  -11.4359   -1.6372    0.0930 C   0  0  0  0  0  0  0  0  0  0  0  0
  -10.5936   -1.0494    2.3694 C   0  0  0  0  0  0  0  0  0  0  0  0
   -6.0429    0.4864    1.2424 C   0  0  0  0  0  0  0  0  0  0  0  0
   -6.4552    0.4204    2.4234 O   0  0  0  0  0  0  0  0  0  0  0  0
   -4.6592    0.4387    1.0097 N   0  0  0  0  0  0  0  0  0  0  0  0
   -3.6799    0.3321    2.0304 C   0  0  1  0  0  0  0  0  0  0  0  0
   -3.1117   -1.0541    2.2596 C   0  0  0  0  0  0  0  0  0  0  0  0
   -2.0064   -0.7798    3.2653 C   0  0  0  0  0  0  0  0  0  0  0  0
   -1.7480    0.7162    3.2446 C   0  0  0  0  0  0  0  0  0  0  0  0
   -2.4735    1.1765    1.9398 C   0  0  1  0  0  0  0  0  0  0  0  0
   -1.5687    0.8915    0.7960 C   0  0  0  0  0  0  0  0  0  0  0  0
   -1.9416    0.0993   -0.1027 O   0  0  0  0  0  0  0  0  0  0  0  0
   -0.3005    1.4680    0.6732 N   0  0  0  0  0  0  0  0  0  0  0  0
    0.6248    1.1660   -0.4592 C   0  0  1  0  0  0  0  0  0  0  0  0
    0.9563    2.4167   -1.1343 C   0  0  0  0  0  0  0  0  0  0  0  0
    1.8387    2.4619   -2.2907 C   0  0  0  0  0  0  0  0  0  0  0  0
    1.4125    2.2490   -3.6148 C   0  0  0  0  0  0  0  0  0  0  0  0
    2.4550    2.3028   -4.4474 N   0  0  0  0  0  0  0  0  0  0  0  0
    3.5942    2.5465   -3.7509 C   0  0  0  0  0  0  0  0  0  0  0  0
    4.8998    2.7032   -4.1568 C   0  0  0  0  0  0  0  0  0  0  0  0
    5.8615    2.9698   -3.2140 C   0  0  0  0  0  0  0  0  0  0  0  0
    5.4871    3.0713   -1.8928 C   0  0  0  0  0  0  0  0  0  0  0  0
    4.1903    2.9120   -1.5089 C   0  0  0  0  0  0  0  0  0  0  0  0
    3.1906    2.6429   -2.4129 C   0  0  0  0  0  0  0  0  0  0  0  0
    1.6019    0.2058   -0.0174 C   0  0  0  0  0  0  0  0  0  0  0  0
    1.5263   -0.1608    1.2342 O   0  0  0  0  0  0  0  0  0  0  0  0
    2.6420   -0.4314   -0.7085 N   0  0  0  0  0  0  0  0  0  0  0  0
    3.5240   -1.4208   -0.0966 C   0  0  1  0  0  0  0  0  0  0  0  0
    4.0880   -2.4153   -1.0131 C   0  0  0  0  0  0  0  0  0  0  0  0
    4.9138   -1.8556   -2.1236 C   0  0  0  0  0  0  0  0  0  0  0  0
    5.4672   -2.9285   -3.0412 C   0  0  0  0  0  0  0  0  0  0  0  0
    4.3807   -3.6846   -3.6662 N   0  0  0  0  0  0  0  0  0  0  0  0
    3.5042   -3.1232   -4.6252 C   0  0  0  0  0  0  0  0  0  0  0  0
    2.1386   -2.9480   -4.2969 N   0  0  0  0  0  0  0  0  0  0  0  0
    3.9465   -2.7807   -5.7805 N   0  0  0  0  0  0  0  0  0  0  0  0
    4.4909   -0.7175    0.8083 C   0  0  0  0  0  0  0  0  0  0  0  0
    4.2965    0.4931    0.9582 O   0  0  0  0  0  0  0  0  0  0  0  0
    5.5160   -1.4125    1.4163 N   0  0  0  0  0  0  0  0  0  0  0  0
    6.5385   -1.0049    2.3353 C   0  0  1  0  0  0  0  0  0  0  0  0
    7.8121   -1.6394    1.9522 C   0  0  0  0  0  0  0  0  0  0  0  0
    9.0037   -1.3668    2.7461 C   0  0  0  0  0  0  0  0  0  0  0  0
    9.2526   -2.0209    3.9462 C   0  0  0  0  0  0  0  0  0  0  0  0
   10.3951   -1.7710    4.6646 C   0  0  0  0  0  0  0  0  0  0  0  0
   11.3103   -0.8698    4.2058 C   0  0  0  0  0  0  0  0  0  0  0  0
   12.4793   -0.5892    4.9071 O   0  0  0  0  0  0  0  0  0  0  0  0
   11.0874   -0.2066    3.0144 C   0  0  0  0  0  0  0  0  0  0  0  0
    9.9464   -0.4607    2.3027 C   0  0  0  0  0  0  0  0  0  0  0  0
    6.5242    0.3928    2.7535 C   0  0  0  0  0  0  0  0  0  0  0  0
    7.6219    1.2246    2.7668 O   0  0  0  0  0  0  0  0  0  0  0  0
    5.4020    0.8831    3.1374 O   0  0  0  0  0  0  0  0  0  0  0  0
   -7.8654    1.6647   -3.8526 H   0  0  0  0  0  0  0  0  0  0  0  0
   -8.5102    0.4308   -2.7669 H   0  0  0  0  0  0  0  0  0  0  0  0
   -6.6927    0.6255   -2.9597 H   0  0  0  0  0  0  0  0  0  0  0  0
   -7.1456    3.0932   -2.2700 H   0  0  0  0  0  0  0  0  0  0  0  0
   -9.8022    1.8620   -1.7174 H   0  0  0  0  0  0  0  0  0  0  0  0
   -9.0958    2.8610   -0.3590 H   0  0  0  0  0  0  0  0  0  0  0  0
   -9.2859    3.5235   -2.0213 H   0  0  0  0  0  0  0  0  0  0  0  0
   -5.7165    1.7982   -1.0372 H   0  0  0  0  0  0  0  0  0  0  0  0
   -6.7350    2.7470    0.0495 H   0  0  0  0  0  0  0  0  0  0  0  0
   -6.9708   -0.2439   -0.5651 H   0  0  0  0  0  0  0  0  0  0  0  0
   -8.6695    1.2899    1.4000 H   0  0  0  0  0  0  0  0  0  0  0  0
  -12.4105    0.5090    1.2708 H   0  0  0  0  0  0  0  0  0  0  0  0
  -10.8300    1.4416    1.3834 H   0  0  0  0  0  0  0  0  0  0  0  0
  -11.5191    1.0185   -0.2469 H   0  0  0  0  0  0  0  0  0  0  0  0
  -11.0574   -2.6591    0.2033 H   0  0  0  0  0  0  0  0  0  0  0  0
  -11.3432   -1.3666   -0.9732 H   0  0  0  0  0  0  0  0  0  0  0  0
  -12.5182   -1.6023    0.3512 H   0  0  0  0  0  0  0  0  0  0  0  0
   -9.6820   -0.6089    2.7999 H   0  0  0  0  0  0  0  0  0  0  0  0
  -10.4550   -2.1613    2.3806 H   0  0  0  0  0  0  0  0  0  0  0  0
  -11.4978   -0.7119    2.8727 H   0  0  0  0  0  0  0  0  0  0  0  0
   -4.3552    0.4873    0.0053 H   0  0  0  0  0  0  0  0  0  0  0  0
   -4.1844    0.5851    3.0113 H   0  0  0  0  0  0  0  0  0  0  0  0
   -3.8467   -1.7114    2.7790 H   0  0  0  0  0  0  0  0  0  0  0  0
   -2.8004   -1.5874    1.3714 H   0  0  0  0  0  0  0  0  0  0  0  0
   -2.3746   -1.0036    4.2967 H   0  0  0  0  0  0  0  0  0  0  0  0
   -1.0997   -1.3556    3.0319 H   0  0  0  0  0  0  0  0  0  0  0  0
   -2.2489    1.2628    4.0510 H   0  0  0  0  0  0  0  0  0  0  0  0
   -0.6875    0.9702    3.1329 H   0  0  0  0  0  0  0  0  0  0  0  0
   -2.7159    2.2304    1.9848 H   0  0  0  0  0  0  0  0  0  0  0  0
    0.0536    2.1372    1.3683 H   0  0  0  0  0  0  0  0  0  0  0  0
   -0.0797    0.5780   -1.1557 H   0  0  0  0  0  0  0  0  0  0  0  0
   -0.0030    2.9867   -1.3895 H   0  0  0  0  0  0  0  0  0  0  0  0
    1.3775    3.1356   -0.3203 H   0  0  0  0  0  0  0  0  0  0  0  0
    0.3699    2.0740   -3.8661 H   0  0  0  0  0  0  0  0  0  0  0  0
    2.4401    2.1840   -5.4755 H   0  0  0  0  0  0  0  0  0  0  0  0
    5.1914    2.6249   -5.1886 H   0  0  0  0  0  0  0  0  0  0  0  0
    6.9121    3.0961   -3.5221 H   0  0  0  0  0  0  0  0  0  0  0  0
    6.2629    3.2838   -1.1421 H   0  0  0  0  0  0  0  0  0  0  0  0
    3.8777    2.9911   -0.4653 H   0  0  0  0  0  0  0  0  0  0  0  0
    2.8116   -0.2310   -1.7045 H   0  0  0  0  0  0  0  0  0  0  0  0
    2.7978   -1.9744    0.6183 H   0  0  0  0  0  0  0  0  0  0  0  0
    3.2280   -2.9700   -1.4830 H   0  0  0  0  0  0  0  0  0  0  0  0
    4.6856   -3.1836   -0.4831 H   0  0  0  0  0  0  0  0  0  0  0  0
    5.7182   -1.1816   -1.7566 H   0  0  0  0  0  0  0  0  0  0  0  0
    4.2557   -1.2084   -2.7534 H   0  0  0  0  0  0  0  0  0  0  0  0
    5.9996   -2.4143   -3.8809 H   0  0  0  0  0  0  0  0  0  0  0  0
    6.1208   -3.6355   -2.5143 H   0  0  0  0  0  0  0  0  0  0  0  0
    4.2269   -4.6721   -3.4126 H   0  0  0  0  0  0  0  0  0  0  0  0
    1.3523   -3.5335   -4.6443 H   0  0  0  0  0  0  0  0  0  0  0  0
    1.9004   -2.1587   -3.6468 H   0  0  0  0  0  0  0  0  0  0  0  0
    3.3420   -2.3632   -6.5234 H   0  0  0  0  0  0  0  0  0  0  0  0
    5.5597   -2.4732    1.1572 H   0  0  0  0  0  0  0  0  0  0  0  0
    6.1543   -1.5170    3.3522 H   0  0  0  0  0  0  0  0  0  0  0  0
    7.6662   -2.7681    1.9525 H   0  0  0  0  0  0  0  0  0  0  0  0
    7.9804   -1.4072    0.8592 H   0  0  0  0  0  0  0  0  0  0  0  0
    8.5129   -2.7437    4.3034 H   0  0  0  0  0  0  0  0  0  0  0  0
   10.5425   -2.3019    5.5881 H   0  0  0  0  0  0  0  0  0  0  0  0
   12.6532   -1.0642    5.7862 H   0  0  0  0  0  0  0  0  0  0  0  0
   11.8077    0.5157    2.6371 H   0  0  0  0  0  0  0  0  0  0  0  0
    9.7738    0.0592    1.3430 H   0  0  0  0  0  0  0  0  0  0  0  0
    7.5692    2.2158    2.9322 H   0  0  0  0  0  0  0  0  0  0  0  0
  1  2  1  0
  2  3  1  0
  2  4  1  0
  4  5  1  0
  5  6  1  0
  6  7  1  0
  7  8  2  0
  7  9  1  0
  9 10  1  0
  9 11  1  0
  9 12  1  0
  5 13  1  0
 13 14  2  0
 13 15  1  0
 15 16  1  0
 16 17  1  0
 17 18  1  0
 18 19  1  0
 19 20  1  0
 20 21  1  0
 21 22  2  0
 21 23  1  0
 23 24  1  0
 24 25  1  0
 25 26  1  0
 26 27  2  0
 27 28  1  0
 28 29  1  0
 29 30  2  0
 30 31  1  0
 31 32  2  0
 32 33  1  0
 33 34  2  0
 24 35  1  0
 35 36  2  0
 35 37  1  0
 37 38  1  0
 38 39  1  0
 39 40  1  0
 40 41  1  0
 41 42  1  0
 42 43  1  0
 43 44  1  0
 43 45  2  3
 38 46  1  0
 46 47  2  0
 46 48  1  0
 48 49  1  0
 49 50  1  0
 50 51  1  0
 51 52  2  0
 52 53  1  0
 53 54  2  0
 54 55  1  0
 54 56  1  0
 56 57  2  0
 49 58  1  0
 58 59  1  0
 58 60  2  0
 20 16  1  0
 34 26  1  0
 57 51  1  0
 34 29  1  0
  1 61  1  0
  1 62  1  0
  1 63  1  0
  2 64  1  0
  3 65  1  0
  3 66  1  0
  3 67  1  0
  4 68  1  0
  4 69  1  0
  5 70  1  6
  6 71  1  0
 10 72  1  0
 10 73  1  0
 10 74  1  0
 11 75  1  0
 11 76  1  0
 11 77  1  0
 12 78  1  0
 12 79  1  0
 12 80  1  0
 15 81  1  0
 16 82  1  1
 17 83  1  0
 17 84  1  0
 18 85  1  0
 18 86  1  0
 19 87  1  0
 19 88  1  0
 20 89  1  1
 23 90  1  0
 24 91  1  6
 25 92  1  0
 25 93  1  0
 27 94  1  0
 28 95  1  0
 30 96  1  0
 31 97  1  0
 32 98  1  0
 33 99  1  0
 37100  1  0
 38101  1  1
 39102  1  0
 39103  1  0
 40104  1  0
 40105  1  0
 41106  1  0
 41107  1  0
 42108  1  0
 44109  1  0
 44110  1  0
 45111  1  0
 48112  1  0
 49113  1  1
 50114  1  0
 50115  1  0
 52116  1  0
 53117  1  0
 55118  1  0
 56119  1  0
 57120  1  0
 59121  1  0
M  END
$$$$
[H]c1nn([H])c([H])c1-c1c([H])c([H])c(C(=O)N2C([H])([H])C([H])([H])C([H])(c3c([H])c([H])c([H])c([H])c3[H])C([H])([H])C2([H])[H])c([H])c1OC([H])([H])[H]
     RDKit          3D

 50 53  0  0  0  0  0  0  0  0999 V2000
   -4.4904   -2.4596    1.7924 C   0  0  0  0  0  0  0  0  0  0  0  0
   -4.5722   -1.1618    1.2655 O   0  0  0  0  0  0  0  0  0  0  0  0
   -3.5421   -0.5513    0.5636 C   0  0  0  0  0  0  0  0  0  0  0  0
   -2.3499   -1.1948    0.3356 C   0  0  0  0  0  0  0  0  0  0  0  0
   -1.2964   -0.5911   -0.3731 C   0  0  0  0  0  0  0  0  0  0  0  0
   -1.4932    0.6980   -0.8456 C   0  0  0  0  0  0  0  0  0  0  0  0
   -2.7175    1.3019   -0.5878 C   0  0  0  0  0  0  0  0  0  0  0  0
   -3.7521    0.7270    0.0996 C   0  0  0  0  0  0  0  0  0  0  0  0
   -5.0150    1.4079    0.3406 C   0  0  0  0  0  0  0  0  0  0  0  0
   -5.7487    2.1305   -0.5723 C   0  0  0  0  0  0  0  0  0  0  0  0
   -6.8410    2.5857    0.0666 N   0  0  0  0  0  0  0  0  0  0  0  0
   -6.8541    2.2011    1.3300 N   0  0  0  0  0  0  0  0  0  0  0  0
   -5.7367    1.4762    1.5110 C   0  0  0  0  0  0  0  0  0  0  0  0
   -0.0719   -1.3443   -0.5033 C   0  0  0  0  0  0  0  0  0  0  0  0
   -0.0110   -2.3997    0.2845 O   0  0  0  0  0  0  0  0  0  0  0  0
    1.0243   -1.1438   -1.3047 N   0  0  0  0  0  0  0  0  0  0  0  0
    2.1647   -2.1019   -1.1268 C   0  0  0  0  0  0  0  0  0  0  0  0
    3.4147   -1.4997   -1.6729 C   0  0  0  0  0  0  0  0  0  0  0  0
    3.5651   -0.0259   -1.5383 C   0  0  0  0  0  0  0  0  0  0  0  0
    2.3002    0.7762   -1.7370 C   0  0  0  0  0  0  0  0  0  0  0  0
    1.2643   -0.2013   -2.3257 C   0  0  0  0  0  0  0  0  0  0  0  0
    4.2739    0.3863   -0.3074 C   0  0  0  0  0  0  0  0  0  0  0  0
    5.4905    1.0277   -0.3921 C   0  0  0  0  0  0  0  0  0  0  0  0
    6.2062    1.4394    0.7123 C   0  0  0  0  0  0  0  0  0  0  0  0
    5.6712    1.1933    1.9555 C   0  0  0  0  0  0  0  0  0  0  0  0
    4.4577    0.5552    2.0988 C   0  0  0  0  0  0  0  0  0  0  0  0
    3.7661    0.1551    0.9555 C   0  0  0  0  0  0  0  0  0  0  0  0
   -3.9790   -3.1669    1.0958 H   0  0  0  0  0  0  0  0  0  0  0  0
   -4.0405   -2.5092    2.7989 H   0  0  0  0  0  0  0  0  0  0  0  0
   -5.5500   -2.8196    1.9160 H   0  0  0  0  0  0  0  0  0  0  0  0
   -2.2120   -2.1917    0.7030 H   0  0  0  0  0  0  0  0  0  0  0  0
   -0.7288    1.2258   -1.3627 H   0  0  0  0  0  0  0  0  0  0  0  0
   -2.8820    2.3133   -0.9556 H   0  0  0  0  0  0  0  0  0  0  0  0
   -5.5303    2.3263   -1.6237 H   0  0  0  0  0  0  0  0  0  0  0  0
   -7.6043    2.4267    2.0490 H   0  0  0  0  0  0  0  0  0  0  0  0
   -5.4143    1.0005    2.4215 H   0  0  0  0  0  0  0  0  0  0  0  0
    1.8762   -2.9684   -1.7538 H   0  0  0  0  0  0  0  0  0  0  0  0
    2.2445   -2.4034   -0.0833 H   0  0  0  0  0  0  0  0  0  0  0  0
    4.2635   -2.0307   -1.1767 H   0  0  0  0  0  0  0  0  0  0  0  0
    3.5048   -1.8112   -2.7509 H   0  0  0  0  0  0  0  0  0  0  0  0
    4.2285    0.2905   -2.4038 H   0  0  0  0  0  0  0  0  0  0  0  0
    2.4334    1.6287   -2.3997 H   0  0  0  0  0  0  0  0  0  0  0  0
    1.8524    1.0818   -0.7544 H   0  0  0  0  0  0  0  0  0  0  0  0
    0.4492    0.2655   -2.8465 H   0  0  0  0  0  0  0  0  0  0  0  0
    1.8414   -0.7298   -3.1862 H   0  0  0  0  0  0  0  0  0  0  0  0
    5.9315    1.2318   -1.3766 H   0  0  0  0  0  0  0  0  0  0  0  0
    7.1602    1.9414    0.6113 H   0  0  0  0  0  0  0  0  0  0  0  0
    6.2142    1.5074    2.8513 H   0  0  0  0  0  0  0  0  0  0  0  0
    4.0210    0.3524    3.0500 H   0  0  0  0  0  0  0  0  0  0  0  0
    2.8133   -0.3476    1.0168 H   0  0  0  0  0  0  0  0  0  0  0  0
  1  2  1  0
  2  3  1  0
  3  4  2  0
  4  5  1  0
  5  6  2  0
  6  7  1  0
  7  8  2  0
  8  9  1  0
  9 10  1  0
 10 11  2  0
 11 12  1  0
 12 13  1  0
  5 14  1  0
 14 15  2  0
 14 16  1  0
 16 17  1  0
 17 18  1  0
 18 19  1  0
 19 20  1  0
 20 21  1  0
 19 22  1  0
 22 23  2  0
 23 24  1  0
 24 25  2  0
 25 26  1  0
 26 27  2  0
  8  3  1  0
 13  9  2  0
 21 16  1  0
 27 22  1  0
  1 28  1  0
  1 29  1  0
  1 30  1  0
  4 31  1  0
  6 32  1  0
  7 33  1  0
 10 34  1  0
 12 35  1  0
 13 36  1  0
 17 37  1  0
 17 38  1  0
 18 39  1  0
 18 40  1  0
 19 41  1  0
 20 42  1  0
 20 43  1  0
 21 44  1  0
 21 45  1  0
 23 46  1  0
 24 47  1  0
 25 48  1  0
 26 49  1  0
 27 50  1  0
M  END
$$$$
[H]c1c([H])c([H])c(C([H])([H])OC(=O)N([H])[C@]([H])(C(=O)N([H])[C@]([H])(C(=O)N([H])[C@]([H])(C(=O)N([H])[C@]([H])(C(=O)N([H])[C@]([H])(C(=O)N([H])[C@]([H])(C(=O)N([H])[C@]([H])(C(=O)N([H])[H])C([H])([H])c2c([H])c([H])c([H])c([H])c2[H])C([H])([H])[H])C([H])([H])[H])C([H])([H])c2c([H])c([H])c([H])c([H])c2[H])C([H])([H])c2c([H])c([H])c([H])c([H])c2[H])[C@@]([H])(C([H])([H])[H])C([H])([H])C([H])([H])[H])C([H])([H])c2c([H])c([H])c([H])c([H])c2[H])c([H])c1[H]
     RDKit          3D

139143  0  0  0  0  0  0  0  0999 V2000
    6.2709   -4.3610   -0.0528 C   0  0  0  0  0  0  0  0  0  0  0  0
    4.8057   -4.3052   -0.2737 C   0  0  0  0  0  0  0  0  0  0  0  0
    4.0144   -3.2685    0.4184 C   0  0  2  0  0  0  0  0  0  0  0  0
    2.5619   -3.4711    0.0036 C   0  0  0  0  0  0  0  0  0  0  0  0
    4.4439   -1.8557    0.3165 C   0  0  2  0  0  0  0  0  0  0  0  0
    5.7797   -1.6115    0.8816 N   0  0  0  0  0  0  0  0  0  0  0  0
    6.7480   -0.9565    0.0990 C   0  0  0  0  0  0  0  0  0  0  0  0
    6.3785   -0.6015   -1.0795 O   0  0  0  0  0  0  0  0  0  0  0  0
    8.1184   -0.6403    0.4729 C   0  0  2  0  0  0  0  0  0  0  0  0
    8.3212    0.1572    1.7206 C   0  0  0  0  0  0  0  0  0  0  0  0
    7.6904    1.4871    1.7218 C   0  0  0  0  0  0  0  0  0  0  0  0
    8.3168    2.5852    1.1760 C   0  0  0  0  0  0  0  0  0  0  0  0
    7.7086    3.8169    1.2040 C   0  0  0  0  0  0  0  0  0  0  0  0
    6.4702    3.9794    1.7727 C   0  0  0  0  0  0  0  0  0  0  0  0
    5.8218    2.9014    2.3249 C   0  0  0  0  0  0  0  0  0  0  0  0
    6.4544    1.6697    2.2858 C   0  0  0  0  0  0  0  0  0  0  0  0
    8.7838    0.0228   -0.6310 N   0  0  0  0  0  0  0  0  0  0  0  0
    9.9034   -0.5525   -1.3085 C   0  0  0  0  0  0  0  0  0  0  0  0
   10.3479   -1.6731   -0.9514 O   0  0  0  0  0  0  0  0  0  0  0  0
   10.5281    0.0897   -2.3618 O   0  0  0  0  0  0  0  0  0  0  0  0
   11.6421   -0.4170   -3.0663 C   0  0  0  0  0  0  0  0  0  0  0  0
   12.7637   -0.5878   -2.1153 C   0  0  0  0  0  0  0  0  0  0  0  0
   13.3246    0.5413   -1.5267 C   0  0  0  0  0  0  0  0  0  0  0  0
   14.3768    0.4536   -0.6334 C   0  0  0  0  0  0  0  0  0  0  0  0
   14.9046   -0.7665   -0.2988 C   0  0  0  0  0  0  0  0  0  0  0  0
   14.3628   -1.8967   -0.8722 C   0  0  0  0  0  0  0  0  0  0  0  0
   13.2993   -1.8059   -1.7738 C   0  0  0  0  0  0  0  0  0  0  0  0
    3.4658   -0.9006    0.9086 C   0  0  0  0  0  0  0  0  0  0  0  0
    3.5607   -0.6385    2.1417 O   0  0  0  0  0  0  0  0  0  0  0  0
    2.4872   -0.3206    0.0926 N   0  0  0  0  0  0  0  0  0  0  0  0
    1.4843    0.6632    0.6180 C   0  0  1  0  0  0  0  0  0  0  0  0
    1.8673    2.0030    0.0934 C   0  0  0  0  0  0  0  0  0  0  0  0
    0.9905    3.0883    0.5350 C   0  0  0  0  0  0  0  0  0  0  0  0
   -0.0174    3.6176   -0.2480 C   0  0  0  0  0  0  0  0  0  0  0  0
   -0.8404    4.6479    0.1664 C   0  0  0  0  0  0  0  0  0  0  0  0
   -0.6651    5.1898    1.4174 C   0  0  0  0  0  0  0  0  0  0  0  0
    0.3345    4.6837    2.2270 C   0  0  0  0  0  0  0  0  0  0  0  0
    1.1403    3.6622    1.8003 C   0  0  0  0  0  0  0  0  0  0  0  0
    0.1837    0.1136    0.3654 C   0  0  0  0  0  0  0  0  0  0  0  0
    0.1080   -0.9331   -0.3770 O   0  0  0  0  0  0  0  0  0  0  0  0
   -1.0518    0.5774    0.8495 N   0  0  0  0  0  0  0  0  0  0  0  0
   -2.2957   -0.1233    0.5414 C   0  0  1  0  0  0  0  0  0  0  0  0
   -3.2053   -0.1753    1.7339 C   0  0  0  0  0  0  0  0  0  0  0  0
   -2.5255   -0.8945    2.8462 C   0  0  0  0  0  0  0  0  0  0  0  0
   -2.6755   -2.2500    2.9897 C   0  0  0  0  0  0  0  0  0  0  0  0
   -2.0498   -2.9696    3.9884 C   0  0  0  0  0  0  0  0  0  0  0  0
   -1.2353   -2.2806    4.8797 C   0  0  0  0  0  0  0  0  0  0  0  0
   -1.0625   -0.9301    4.7668 C   0  0  0  0  0  0  0  0  0  0  0  0
   -1.7154   -0.2450    3.7424 C   0  0  0  0  0  0  0  0  0  0  0  0
   -2.9958    0.4606   -0.6086 C   0  0  0  0  0  0  0  0  0  0  0  0
   -2.6604    1.4856   -1.2311 O   0  0  0  0  0  0  0  0  0  0  0  0
   -4.1835   -0.1901   -1.0968 N   0  0  0  0  0  0  0  0  0  0  0  0
   -4.9536    0.2537   -2.2156 C   0  0  1  0  0  0  0  0  0  0  0  0
   -4.6696   -0.7358   -3.3682 C   0  0  0  0  0  0  0  0  0  0  0  0
   -6.4241    0.1424   -1.9646 C   0  0  0  0  0  0  0  0  0  0  0  0
   -6.7716   -0.2326   -0.8180 O   0  0  0  0  0  0  0  0  0  0  0  0
   -7.3451    0.4399   -2.9613 N   0  0  0  0  0  0  0  0  0  0  0  0
   -8.7695    0.4188   -2.9552 C   0  0  1  0  0  0  0  0  0  0  0  0
   -9.3155   -0.6163   -3.8729 C   0  0  0  0  0  0  0  0  0  0  0  0
   -9.3967    0.4504   -1.6057 C   0  0  0  0  0  0  0  0  0  0  0  0
   -8.9742    1.2737   -0.7625 O   0  0  0  0  0  0  0  0  0  0  0  0
  -10.4614   -0.4119   -1.2075 N   0  0  0  0  0  0  0  0  0  0  0  0
  -11.0387   -0.3268    0.1235 C   0  0  1  0  0  0  0  0  0  0  0  0
  -12.5158   -0.6125    0.1207 C   0  0  0  0  0  0  0  0  0  0  0  0
  -13.2878    0.3199   -0.7365 C   0  0  0  0  0  0  0  0  0  0  0  0
  -13.4920   -0.0858   -2.0568 C   0  0  0  0  0  0  0  0  0  0  0  0
  -14.2074    0.7508   -2.9005 C   0  0  0  0  0  0  0  0  0  0  0  0
  -14.6880    1.9440   -2.4077 C   0  0  0  0  0  0  0  0  0  0  0  0
  -14.4759    2.3386   -1.0816 C   0  0  0  0  0  0  0  0  0  0  0  0
  -13.7576    1.4961   -0.2420 C   0  0  0  0  0  0  0  0  0  0  0  0
  -10.4158   -1.4813    0.8836 C   0  0  0  0  0  0  0  0  0  0  0  0
  -10.8097   -1.6325    2.2305 N   0  0  0  0  0  0  0  0  0  0  0  0
   -9.6038   -2.2714    0.3895 O   0  0  0  0  0  0  0  0  0  0  0  0
    6.5348   -4.0404    0.9462 H   0  0  0  0  0  0  0  0  0  0  0  0
    6.6563   -5.4365   -0.1219 H   0  0  0  0  0  0  0  0  0  0  0  0
    6.8515   -3.8668   -0.8839 H   0  0  0  0  0  0  0  0  0  0  0  0
    4.3997   -5.3053    0.0981 H   0  0  0  0  0  0  0  0  0  0  0  0
    4.5741   -4.3645   -1.3791 H   0  0  0  0  0  0  0  0  0  0  0  0
    4.0142   -3.5470    1.5197 H   0  0  0  0  0  0  0  0  0  0  0  0
    2.3327   -3.1107   -0.9976 H   0  0  0  0  0  0  0  0  0  0  0  0
    1.9661   -2.8532    0.7245 H   0  0  0  0  0  0  0  0  0  0  0  0
    2.2479   -4.5146    0.1108 H   0  0  0  0  0  0  0  0  0  0  0  0
    4.4785   -1.5724   -0.7804 H   0  0  0  0  0  0  0  0  0  0  0  0
    5.9116   -1.9529    1.8609 H   0  0  0  0  0  0  0  0  0  0  0  0
    8.6688   -1.6202    0.6170 H   0  0  0  0  0  0  0  0  0  0  0  0
    9.4172    0.3042    1.8278 H   0  0  0  0  0  0  0  0  0  0  0  0
    8.0236   -0.3956    2.6404 H   0  0  0  0  0  0  0  0  0  0  0  0
    9.2971    2.5257    0.7116 H   0  0  0  0  0  0  0  0  0  0  0  0
    8.1790    4.7169    0.7760 H   0  0  0  0  0  0  0  0  0  0  0  0
    5.9746    4.9665    1.7961 H   0  0  0  0  0  0  0  0  0  0  0  0
    4.8241    3.0037    2.7879 H   0  0  0  0  0  0  0  0  0  0  0  0
    5.8967    0.8460    2.7449 H   0  0  0  0  0  0  0  0  0  0  0  0
    8.4484    0.9541   -0.9568 H   0  0  0  0  0  0  0  0  0  0  0  0
   11.3854   -1.4100   -3.5280 H   0  0  0  0  0  0  0  0  0  0  0  0
   11.8959    0.3041   -3.8725 H   0  0  0  0  0  0  0  0  0  0  0  0
   12.9098    1.5194   -1.7834 H   0  0  0  0  0  0  0  0  0  0  0  0
   14.7891    1.3465   -0.1915 H   0  0  0  0  0  0  0  0  0  0  0  0
   15.7251   -0.8980    0.3912 H   0  0  0  0  0  0  0  0  0  0  0  0
   14.7835   -2.8721   -0.6072 H   0  0  0  0  0  0  0  0  0  0  0  0
   12.8771   -2.7013   -2.2229 H   0  0  0  0  0  0  0  0  0  0  0  0
    2.4258   -0.5584   -0.9105 H   0  0  0  0  0  0  0  0  0  0  0  0
    1.6409    0.7213    1.7394 H   0  0  0  0  0  0  0  0  0  0  0  0
    1.9016    2.0227   -1.0310 H   0  0  0  0  0  0  0  0  0  0  0  0
    2.9156    2.1912    0.4894 H   0  0  0  0  0  0  0  0  0  0  0  0
   -0.1524    3.1776   -1.2507 H   0  0  0  0  0  0  0  0  0  0  0  0
   -1.6237    5.0079   -0.5180 H   0  0  0  0  0  0  0  0  0  0  0  0
   -1.3051    6.0094    1.7626 H   0  0  0  0  0  0  0  0  0  0  0  0
    0.4784    5.1164    3.2293 H   0  0  0  0  0  0  0  0  0  0  0  0
    1.9478    3.2357    2.4172 H   0  0  0  0  0  0  0  0  0  0  0  0
   -1.0821    1.4181    1.4546 H   0  0  0  0  0  0  0  0  0  0  0  0
   -1.9688   -1.1618    0.2201 H   0  0  0  0  0  0  0  0  0  0  0  0
   -4.1380   -0.7331    1.5182 H   0  0  0  0  0  0  0  0  0  0  0  0
   -3.4939    0.8500    2.0311 H   0  0  0  0  0  0  0  0  0  0  0  0
   -3.2988   -2.8303    2.3200 H   0  0  0  0  0  0  0  0  0  0  0  0
   -2.1714   -4.0291    4.0994 H   0  0  0  0  0  0  0  0  0  0  0  0
   -0.7395   -2.8259    5.6674 H   0  0  0  0  0  0  0  0  0  0  0  0
   -0.4267   -0.4144    5.4586 H   0  0  0  0  0  0  0  0  0  0  0  0
   -1.5566    0.8122    3.6916 H   0  0  0  0  0  0  0  0  0  0  0  0
   -4.5169   -1.0521   -0.6029 H   0  0  0  0  0  0  0  0  0  0  0  0
   -4.6844    1.2357   -2.6093 H   0  0  0  0  0  0  0  0  0  0  0  0
   -5.5384   -0.8397   -4.0305 H   0  0  0  0  0  0  0  0  0  0  0  0
   -4.4207   -1.7158   -2.9054 H   0  0  0  0  0  0  0  0  0  0  0  0
   -3.8121   -0.3636   -3.9874 H   0  0  0  0  0  0  0  0  0  0  0  0
   -6.9102    0.7464   -3.9115 H   0  0  0  0  0  0  0  0  0  0  0  0
   -9.0582    1.4754   -3.3345 H   0  0  0  0  0  0  0  0  0  0  0  0
   -9.4511   -1.5753   -3.3258 H   0  0  0  0  0  0  0  0  0  0  0  0
  -10.3137   -0.2853   -4.2418 H   0  0  0  0  0  0  0  0  0  0  0  0
   -8.6121   -0.7892   -4.7190 H   0  0  0  0  0  0  0  0  0  0  0  0
  -10.8122   -1.1041   -1.8862 H   0  0  0  0  0  0  0  0  0  0  0  0
  -10.7242    0.5594    0.6825 H   0  0  0  0  0  0  0  0  0  0  0  0
  -12.9286   -0.5109    1.1519 H   0  0  0  0  0  0  0  0  0  0  0  0
  -12.7462   -1.6402   -0.2022 H   0  0  0  0  0  0  0  0  0  0  0  0
  -13.1245   -1.0169   -2.4596 H   0  0  0  0  0  0  0  0  0  0  0  0
  -14.3971    0.4963   -3.9167 H   0  0  0  0  0  0  0  0  0  0  0  0
  -15.2569    2.6157   -3.0648 H   0  0  0  0  0  0  0  0  0  0  0  0
  -14.8481    3.2646   -0.6907 H   0  0  0  0  0  0  0  0  0  0  0  0
  -13.5590    1.7422    0.7955 H   0  0  0  0  0  0  0  0  0  0  0  0
  -11.0240   -0.8129    2.8297 H   0  0  0  0  0  0  0  0  0  0  0  0
  -10.8881   -2.5851    2.6257 H   0  0  0  0  0  0  0  0  0  0  0  0
  1  2  1  0
  2  3  1  0
  3  4  1  0
  3  5  1  0
  5  6  1  0
  6  7  1  0
  7  8  2  0
  7  9  1  0
  9 10  1  0
 10 11  1  0
 11 12  2  0
 12 13  1  0
 13 14  2  0
 14 15  1  0
 15 16  2  0
  9 17  1  0
 17 18  1  0
 18 19  2  0
 18 20  1  0
 20 21  1  0
 21 22  1  0
 22 23  2  0
 23 24  1  0
 24 25  2  0
 25 26  1  0
 26 27  2  0
  5 28  1  0
 28 29  2  0
 28 30  1  0
 30 31  1  0
 31 32  1  0
 32 33  1  0
 33 34  2  0
 34 35  1  0
 35 36  2  0
 36 37  1  0
 37 38  2  0
 31 39  1  0
 39 40  2  0
 39 41  1  0
 41 42  1  0
 42 43  1  0
 43 44  1  0
 44 45  2  0
 45 46  1  0
 46 47  2  0
 47 48  1  0
 48 49  2  0
 42 50  1  0
 50 51  2  0
 50 52  1  0
 52 53  1  0
 53 54  1  0
 53 55  1  0
 55 56  2  0
 55 57  1  0
 57 58  1  0
 58 59  1  0
 58 60  1  0
 60 61  2  0
 60 62  1  0
 62 63  1  0
 63 64  1  0
 64 65  1  0
 65 66  2  0
 66 67  1  0
 67 68  2  0
 68 69  1  0
 69 70  2  0
 63 71  1  0
 71 72  1  0
 71 73  2  0
 16 11  1  0
 27 22  1  0
 38 33  1  0
 49 44  1  0
 70 65  1  0
  1 74  1  0
  1 75  1  0
  1 76  1  0
  2 77  1  0
  2 78  1  0
  3 79  1  1
  4 80  1  0
  4 81  1  0
  4 82  1  0
  5 83  1  6
  6 84  1  0
  9 85  1  1
 10 86  1  0
 10 87  1  0
 12 88  1  0
 13 89  1  0
 14 90  1  0
 15 91  1  0
 16 92  1  0
 17 93  1  0
 21 94  1  0
 21 95  1  0
 23 96  1  0
 24 97  1  0
 25 98  1  0
 26 99  1  0
 27100  1  0
 30101  1  0
 31102  1  1
 32103  1  0
 32104  1  0
 34105  1  0
 35106  1  0
 36107  1  0
 37108  1  0
 38109  1  0
 41110  1  0
 42111  1  6
 43112  1  0
 43113  1  0
 45114  1  0
 46115  1  0
 47116  1  0
 48117  1  0
 49118  1  0
 52119  1  0
 53120  1  6
 54121  1  0
 54122  1  0
 54123  1  0
 57124  1  0
 58125  1  6
 59126  1  0
 59127  1  0
 59128  1  0
 62129  1  0
 63130  1  1
 64131  1  0
 64132  1  0
 66133  1  0
 67134  1  0
 68135  1  0
 69136  1  0
 70137  1  0
 72138  1  0
 72139  1  0
M  END
$$$$
[H]OC(=O)[C@@]([H])(N([H])S(=O)(=O)c1c([H])c([H])c(-c2c([H])c([H])c(C(=O)N([H])[C@]([H])(C(=O)N([H])[H])C([H])([H])[H])c([H])c2[H])c([H])c1[H])C([H])(C([H])([H])[H])C([H])([H])[H]
     RDKit          3D

 56 57  0  0  0  0  0  0  0  0999 V2000
   -7.5572    0.0341    0.9447 C   0  0  0  0  0  0  0  0  0  0  0  0
   -6.8099    0.6421   -0.2484 C   0  0  0  0  0  0  0  0  0  0  0  0
   -7.0838   -0.2622   -1.4293 C   0  0  0  0  0  0  0  0  0  0  0  0
   -5.3223    0.7283    0.0012 C   0  0  2  0  0  0  0  0  0  0  0  0
   -5.0863    1.5500    1.1463 N   0  0  0  0  0  0  0  0  0  0  0  0
   -4.2214    0.7964    2.4105 S   0  0  0  0  0  0  0  0  0  0  0  0
   -4.8500   -0.4811    2.8893 O   0  0  0  0  0  0  0  0  0  0  0  0
   -4.0206    1.6874    3.5893 O   0  0  0  0  0  0  0  0  0  0  0  0
   -2.6462    0.3578    1.7680 C   0  0  0  0  0  0  0  0  0  0  0  0
   -1.6513    1.2944    1.7966 C   0  0  0  0  0  0  0  0  0  0  0  0
   -0.4096    0.9708    1.3015 C   0  0  0  0  0  0  0  0  0  0  0  0
   -0.1581   -0.2710    0.7838 C   0  0  0  0  0  0  0  0  0  0  0  0
   -1.1386   -1.2413    0.7392 C   0  0  0  0  0  0  0  0  0  0  0  0
   -2.3766   -0.8864    1.2435 C   0  0  0  0  0  0  0  0  0  0  0  0
    1.1635   -0.5690    0.2659 C   0  0  0  0  0  0  0  0  0  0  0  0
    1.3603   -1.4440   -0.7575 C   0  0  0  0  0  0  0  0  0  0  0  0
    2.6351   -1.7018   -1.2339 C   0  0  0  0  0  0  0  0  0  0  0  0
    3.7293   -1.0711   -0.6736 C   0  0  0  0  0  0  0  0  0  0  0  0
    3.5167   -0.1850    0.3646 C   0  0  0  0  0  0  0  0  0  0  0  0
    2.2422    0.0719    0.8395 C   0  0  0  0  0  0  0  0  0  0  0  0
    5.0972   -1.3051   -1.1201 C   0  0  0  0  0  0  0  0  0  0  0  0
    5.3585   -2.3602   -1.7285 O   0  0  0  0  0  0  0  0  0  0  0  0
    6.1069   -0.3547   -0.8699 N   0  0  0  0  0  0  0  0  0  0  0  0
    7.4988   -0.5123   -1.2773 C   0  0  1  0  0  0  0  0  0  0  0  0
    7.8263    0.5417   -2.3457 C   0  0  0  0  0  0  0  0  0  0  0  0
    8.3830   -0.3231   -0.1017 C   0  0  0  0  0  0  0  0  0  0  0  0
    9.7781   -0.4191   -0.2140 N   0  0  0  0  0  0  0  0  0  0  0  0
    7.8714   -0.0662    1.0401 O   0  0  0  0  0  0  0  0  0  0  0  0
   -4.7345    1.4108   -1.1901 C   0  0  0  0  0  0  0  0  0  0  0  0
   -4.8143    0.8097   -2.4178 O   0  0  0  0  0  0  0  0  0  0  0  0
   -4.1753    2.5233   -1.0544 O   0  0  0  0  0  0  0  0  0  0  0  0
   -7.6532    0.7315    1.7787 H   0  0  0  0  0  0  0  0  0  0  0  0
   -7.1259   -0.9448    1.1769 H   0  0  0  0  0  0  0  0  0  0  0  0
   -8.5894   -0.1797    0.5371 H   0  0  0  0  0  0  0  0  0  0  0  0
   -7.2475    1.6340   -0.4863 H   0  0  0  0  0  0  0  0  0  0  0  0
   -7.2251    0.3714   -2.3391 H   0  0  0  0  0  0  0  0  0  0  0  0
   -8.0688   -0.7491   -1.2682 H   0  0  0  0  0  0  0  0  0  0  0  0
   -6.2682   -0.9892   -1.6012 H   0  0  0  0  0  0  0  0  0  0  0  0
   -4.9179   -0.2900    0.1230 H   0  0  0  0  0  0  0  0  0  0  0  0
   -5.9669    1.9428    1.5378 H   0  0  0  0  0  0  0  0  0  0  0  0
   -1.7880    2.3004    2.1949 H   0  0  0  0  0  0  0  0  0  0  0  0
    0.3637    1.7246    1.3340 H   0  0  0  0  0  0  0  0  0  0  0  0
   -0.9447   -2.2135    0.3364 H   0  0  0  0  0  0  0  0  0  0  0  0
   -3.1595   -1.6505    1.2094 H   0  0  0  0  0  0  0  0  0  0  0  0
    0.4857   -1.9377   -1.1921 H   0  0  0  0  0  0  0  0  0  0  0  0
    2.7830   -2.4018   -2.0483 H   0  0  0  0  0  0  0  0  0  0  0  0
    4.3233    0.3313    0.8421 H   0  0  0  0  0  0  0  0  0  0  0  0
    2.1219    0.7768    1.6597 H   0  0  0  0  0  0  0  0  0  0  0  0
    5.8927    0.5226   -0.3715 H   0  0  0  0  0  0  0  0  0  0  0  0
    7.6557   -1.5189   -1.6744 H   0  0  0  0  0  0  0  0  0  0  0  0
    7.1932    1.4393   -2.2411 H   0  0  0  0  0  0  0  0  0  0  0  0
    7.5843    0.0718   -3.3402 H   0  0  0  0  0  0  0  0  0  0  0  0
    8.8951    0.7624   -2.2744 H   0  0  0  0  0  0  0  0  0  0  0  0
   10.2964   -0.9238    0.5427 H   0  0  0  0  0  0  0  0  0  0  0  0
   10.2918   -0.0112   -1.0117 H   0  0  0  0  0  0  0  0  0  0  0  0
   -4.4428    1.2363   -3.2517 H   0  0  0  0  0  0  0  0  0  0  0  0
  1  2  1  0
  2  3  1  0
  2  4  1  0
  4  5  1  0
  5  6  1  0
  6  7  2  0
  6  8  2  0
  6  9  1  0
  9 10  2  0
 10 11  1  0
 11 12  2  0
 12 13  1  0
 13 14  2  0
 12 15  1  0
 15 16  2  0
 16 17  1  0
 17 18  2  0
 18 19  1  0
 19 20  2  0
 18 21  1  0
 21 22  2  0
 21 23  1  0
 23 24  1  0
 24 25  1  0
 24 26  1  0
 26 27  1  0
 26 28  2  0
  4 29  1  0
 29 30  1  0
 29 31  2  0
 14  9  1  0
 20 15  1  0
  1 32  1  0
  1 33  1  0
  1 34  1  0
  2 35  1  0
  3 36  1  0
  3 37  1  0
  3 38  1  0
  4 39  1  1
  5 40  1  0
 10 41  1  0
 11 42  1  0
 13 43  1  0
 14 44  1  0
 16 45  1  0
 17 46  1  0
 19 47  1  0
 20 48  1  0
 23 49  1  0
 24 50  1  6
 25 51  1  0
 25 52  1  0
 25 53  1  0
 27 54  1  0
 27 55  1  0
 30 56  1  0
M  END
$$$$
[H]c1c([H])c([H])c(N([H])S(=O)(=O)c2c([H])c([H])c(-c3c([H])c([H])c4c(nc(-c5c([H])c([H])c([H])c(C(F)(F)F)c5[H])n4[H])c3[H])c([H])c2[H])c([H])c1[H]
     RDKit          3D

 53 57  0  0  0  0  0  0  0  0999 V2000
   -6.2879    4.2064   -1.1508 F   0  0  0  0  0  0  0  0  0  0  0  0
   -7.4533    3.6499   -0.6881 C   0  0  0  0  0  0  0  0  0  0  0  0
   -7.8457    4.4122    0.4184 F   0  0  0  0  0  0  0  0  0  0  0  0
   -8.4612    3.7424   -1.6235 F   0  0  0  0  0  0  0  0  0  0  0  0
   -7.2495    2.2577   -0.2052 C   0  0  0  0  0  0  0  0  0  0  0  0
   -8.2945    1.5223    0.3205 C   0  0  0  0  0  0  0  0  0  0  0  0
   -8.1217    0.2336    0.7716 C   0  0  0  0  0  0  0  0  0  0  0  0
   -6.8813   -0.3383    0.6984 C   0  0  0  0  0  0  0  0  0  0  0  0
   -5.8104    0.3566    0.1830 C   0  0  0  0  0  0  0  0  0  0  0  0
   -5.9998    1.6399   -0.2619 C   0  0  0  0  0  0  0  0  0  0  0  0
   -4.4789   -0.2882    0.1175 C   0  0  0  0  0  0  0  0  0  0  0  0
   -3.3589    0.2608   -0.3697 N   0  0  0  0  0  0  0  0  0  0  0  0
   -2.3329   -0.6068   -0.2770 C   0  0  0  0  0  0  0  0  0  0  0  0
   -0.9950   -0.6148   -0.6003 C   0  0  0  0  0  0  0  0  0  0  0  0
   -0.1514   -1.6768   -0.3884 C   0  0  0  0  0  0  0  0  0  0  0  0
   -0.6818   -2.8167    0.1902 C   0  0  0  0  0  0  0  0  0  0  0  0
   -2.0168   -2.8598    0.5323 C   0  0  0  0  0  0  0  0  0  0  0  0
   -2.8342   -1.7777    0.3055 C   0  0  0  0  0  0  0  0  0  0  0  0
   -4.1456   -1.5186    0.5208 N   0  0  0  0  0  0  0  0  0  0  0  0
    1.2440   -1.6036   -0.7642 C   0  0  0  0  0  0  0  0  0  0  0  0
    2.2375   -2.2762   -0.0752 C   0  0  0  0  0  0  0  0  0  0  0  0
    3.5604   -2.2178   -0.4251 C   0  0  0  0  0  0  0  0  0  0  0  0
    3.9578   -1.4536   -1.5213 C   0  0  0  0  0  0  0  0  0  0  0  0
    2.9869   -0.7615   -2.2404 C   0  0  0  0  0  0  0  0  0  0  0  0
    1.6700   -0.8454   -1.8578 C   0  0  0  0  0  0  0  0  0  0  0  0
    5.6205   -1.3333   -2.0070 S   0  0  0  0  0  0  0  0  0  0  0  0
    5.6493   -1.5881   -3.5000 O   0  0  0  0  0  0  0  0  0  0  0  0
    6.4534   -2.4342   -1.3769 O   0  0  0  0  0  0  0  0  0  0  0  0
    6.3336    0.1812   -1.6771 N   0  0  0  0  0  0  0  0  0  0  0  0
    6.5059    0.7762   -0.4217 C   0  0  0  0  0  0  0  0  0  0  0  0
    5.5140    0.9276    0.5169 C   0  0  0  0  0  0  0  0  0  0  0  0
    5.7217    1.5390    1.7334 C   0  0  0  0  0  0  0  0  0  0  0  0
    6.9629    2.0336    2.0589 C   0  0  0  0  0  0  0  0  0  0  0  0
    7.9978    1.9028    1.1387 C   0  0  0  0  0  0  0  0  0  0  0  0
    7.7548    1.2863   -0.0665 C   0  0  0  0  0  0  0  0  0  0  0  0
   -9.2819    1.9622    0.3813 H   0  0  0  0  0  0  0  0  0  0  0  0
   -8.9757   -0.3198    1.1834 H   0  0  0  0  0  0  0  0  0  0  0  0
   -6.7487   -1.3569    1.0543 H   0  0  0  0  0  0  0  0  0  0  0  0
   -5.1678    2.2019   -0.6713 H   0  0  0  0  0  0  0  0  0  0  0  0
   -0.6037    0.3046   -1.0575 H   0  0  0  0  0  0  0  0  0  0  0  0
   -0.0058   -3.6481    0.3517 H   0  0  0  0  0  0  0  0  0  0  0  0
   -2.4408   -3.7398    0.9822 H   0  0  0  0  0  0  0  0  0  0  0  0
   -4.8003   -2.2121    0.9515 H   0  0  0  0  0  0  0  0  0  0  0  0
    1.9580   -2.8819    0.7834 H   0  0  0  0  0  0  0  0  0  0  0  0
    4.3444   -2.7379    0.1033 H   0  0  0  0  0  0  0  0  0  0  0  0
    3.2818   -0.1535   -3.1109 H   0  0  0  0  0  0  0  0  0  0  0  0
    0.9032   -0.3129   -2.4011 H   0  0  0  0  0  0  0  0  0  0  0  0
    6.7032    0.7692   -2.5027 H   0  0  0  0  0  0  0  0  0  0  0  0
    4.5074    0.5750    0.3284 H   0  0  0  0  0  0  0  0  0  0  0  0
    4.8731    1.6118    2.4085 H   0  0  0  0  0  0  0  0  0  0  0  0
    7.0999    2.5144    3.0319 H   0  0  0  0  0  0  0  0  0  0  0  0
    8.9754    2.2911    1.3918 H   0  0  0  0  0  0  0  0  0  0  0  0
    8.6084    1.2156   -0.7462 H   0  0  0  0  0  0  0  0  0  0  0  0
  1  2  1  0
  2  3  1  0
  2  4  1  0
  2  5  1  0
  5  6  2  0
  6  7  1  0
  7  8  2  0
  8  9  1  0
  9 10  2  0
  9 11  1  0
 11 12  2  0
 12 13  1  0
 13 14  2  0
 14 15  1  0
 15 16  2  0
 16 17  1  0
 17 18  2  0
 18 19  1  0
 15 20  1  0
 20 21  2  0
 21 22  1  0
 22 23  2  0
 23 24  1  0
 24 25  2  0
 23 26  1  0
 26 27  2  0
 26 28  2  0
 26 29  1  0
 29 30  1  0
 30 31  2  0
 31 32  1  0
 32 33  2  0
 33 34  1  0
 34 35  2  0
 10  5  1  0
 19 11  1  0
 25 20  1  0
 35 30  1  0
 18 13  1  0
  6 36  1  0
  7 37  1  0
  8 38  1  0
 10 39  1  0
 14 40  1  0
 16 41  1  0
 17 42  1  0
 19 43  1  0
 21 44  1  0
 22 45  1  0
 24 46  1  0
 25 47  1  0
 29 48  1  0
 31 49  1  0
 32 50  1  0
 33 51  1  0
 34 52  1  0
 35 53  1  0
M  END
$$$$
[H]c1c([H])c(S(=O)(=O)N2C([H])([H])C([H])([H])C([H])(c3c([H])n([H])c4c([H])c([H])c(F)c([H])c34)C([H])([H])C2([H])[H])c([H])c([H])c1C(F)(F)F
     RDKit          3D

 47 50  0  0  0  0  0  0  0  0999 V2000
   -7.7774   -1.6577    1.6150 F   0  0  0  0  0  0  0  0  0  0  0  0
   -7.7019   -0.7813    0.5741 C   0  0  0  0  0  0  0  0  0  0  0  0
   -8.2142   -1.3112   -0.5898 F   0  0  0  0  0  0  0  0  0  0  0  0
   -8.4988    0.3099    0.8710 F   0  0  0  0  0  0  0  0  0  0  0  0
   -6.2860   -0.3501    0.3592 C   0  0  0  0  0  0  0  0  0  0  0  0
   -5.5576    0.2867    1.3268 C   0  0  0  0  0  0  0  0  0  0  0  0
   -4.2410    0.7044    1.0814 C   0  0  0  0  0  0  0  0  0  0  0  0
   -3.6120    0.5088   -0.1109 C   0  0  0  0  0  0  0  0  0  0  0  0
   -4.3929   -0.1553   -1.0851 C   0  0  0  0  0  0  0  0  0  0  0  0
   -5.6779   -0.5726   -0.8702 C   0  0  0  0  0  0  0  0  0  0  0  0
   -2.0639    1.0801   -0.5471 S   0  0  0  0  0  0  0  0  0  0  0  0
   -2.0301    1.2524   -2.1023 O   0  0  0  0  0  0  0  0  0  0  0  0
   -1.8501    2.5230   -0.0550 O   0  0  0  0  0  0  0  0  0  0  0  0
   -0.6803    0.2320   -0.1243 N   0  0  0  0  0  0  0  0  0  0  0  0
   -0.3421    0.0456    1.1845 C   0  0  0  0  0  0  0  0  0  0  0  0
    1.1063    0.1709    1.6410 C   0  0  0  0  0  0  0  0  0  0  0  0
    2.0506    0.6329    0.6123 C   0  0  0  0  0  0  0  0  0  0  0  0
    1.5684    1.0190   -0.7341 C   0  0  0  0  0  0  0  0  0  0  0  0
    0.3162    0.3229   -1.1671 C   0  0  0  0  0  0  0  0  0  0  0  0
    3.4983    0.3623    0.7334 C   0  0  0  0  0  0  0  0  0  0  0  0
    4.4949    0.9103    1.5102 C   0  0  0  0  0  0  0  0  0  0  0  0
    5.7138    0.5631    1.0431 N   0  0  0  0  0  0  0  0  0  0  0  0
    5.5717   -0.2339   -0.0557 C   0  0  0  0  0  0  0  0  0  0  0  0
    6.4730   -0.9112   -0.8499 C   0  0  0  0  0  0  0  0  0  0  0  0
    6.0500   -1.7394   -1.8575 C   0  0  0  0  0  0  0  0  0  0  0  0
    4.7000   -1.8727   -2.0384 C   0  0  0  0  0  0  0  0  0  0  0  0
    4.2543   -2.7322   -3.0169 F   0  0  0  0  0  0  0  0  0  0  0  0
    3.8098   -1.1897   -1.2423 C   0  0  0  0  0  0  0  0  0  0  0  0
    4.2335   -0.3498   -0.2350 C   0  0  0  0  0  0  0  0  0  0  0  0
   -6.0116    0.4605    2.2894 H   0  0  0  0  0  0  0  0  0  0  0  0
   -3.6973    1.2126    1.8832 H   0  0  0  0  0  0  0  0  0  0  0  0
   -3.9207   -0.3420   -2.0735 H   0  0  0  0  0  0  0  0  0  0  0  0
   -6.2606   -1.0794   -1.6117 H   0  0  0  0  0  0  0  0  0  0  0  0
   -0.6869   -0.9840    1.5000 H   0  0  0  0  0  0  0  0  0  0  0  0
   -0.9779    0.7191    1.8414 H   0  0  0  0  0  0  0  0  0  0  0  0
    1.0915    0.7584    2.5750 H   0  0  0  0  0  0  0  0  0  0  0  0
    1.3938   -0.8735    2.0452 H   0  0  0  0  0  0  0  0  0  0  0  0
    2.1322    1.8188    1.0489 H   0  0  0  0  0  0  0  0  0  0  0  0
    1.3281    2.1401   -0.8089 H   0  0  0  0  0  0  0  0  0  0  0  0
    2.3529    0.9032   -1.4797 H   0  0  0  0  0  0  0  0  0  0  0  0
   -0.1025    0.9149   -1.9959 H   0  0  0  0  0  0  0  0  0  0  0  0
    0.4810   -0.6858   -1.5694 H   0  0  0  0  0  0  0  0  0  0  0  0
    4.2953    1.5551    2.3720 H   0  0  0  0  0  0  0  0  0  0  0  0
    6.6321    0.8339    1.4394 H   0  0  0  0  0  0  0  0  0  0  0  0
    7.5139   -0.7836   -0.6835 H   0  0  0  0  0  0  0  0  0  0  0  0
    6.7382   -2.2857   -2.4872 H   0  0  0  0  0  0  0  0  0  0  0  0
    2.7839   -1.3498   -1.4297 H   0  0  0  0  0  0  0  0  0  0  0  0
  1  2  1  0
  2  3  1  0
  2  4  1  0
  2  5  1  0
  5  6  2  0
  6  7  1  0
  7  8  2  0
  8  9  1  0
  9 10  2  0
  8 11  1  0
 11 12  2  0
 11 13  2  0
 11 14  1  0
 14 15  1  0
 15 16  1  0
 16 17  1  0
 17 18  1  0
 18 19  1  0
 17 20  1  0
 20 21  2  0
 21 22  1  0
 22 23  1  0
 23 24  2  0
 24 25  1  0
 25 26  2  0
 26 27  1  0
 26 28  1  0
 28 29  2  0
 10  5  1  0
 19 14  1  0
 29 20  1  0
 29 23  1  0
  6 30  1  0
  7 31  1  0
  9 32  1  0
 10 33  1  0
 15 34  1  0
 15 35  1  0
 16 36  1  0
 16 37  1  0
 17 38  1  0
 18 39  1  0
 18 40  1  0
 19 41  1  0
 19 42  1  0
 21 43  1  0
 22 44  1  0
 24 45  1  0
 25 46  1  0
 28 47  1  0
M  END
$$$$
[H]c1c([H])c([H])c(C([H])([H])[C@@]([H])(C(=O)N([H])[H])N([H])C(=O)[C@@]([H])(N([H])C(=O)[C@@]([H])(N([H])C(=O)[C@@]([H])(N([H])C(=O)C([H])([H])[H])C([H])([H])c2c([H])c([H])c([H])c([H])c2[H])C([H])([H])c2c([H])c([H])c([H])c([H])c2[H])C([H])([H])c2c([H])c([H])c([H])c([H])c2[H])c([H])c1[H]
     RDKit          3D

 89 92  0  0  0  0  0  0  0  0999 V2000
   -7.7775    0.0167    2.2902 C   0  0  0  0  0  0  0  0  0  0  0  0
   -6.9089    0.0007    1.0617 C   0  0  0  0  0  0  0  0  0  0  0  0
   -7.3115   -0.5928    0.0454 O   0  0  0  0  0  0  0  0  0  0  0  0
   -5.6753    0.6879    1.1801 N   0  0  0  0  0  0  0  0  0  0  0  0
   -4.7694    0.7222    0.0137 C   0  0  1  0  0  0  0  0  0  0  0  0
   -4.4046    2.2077   -0.1296 C   0  0  0  0  0  0  0  0  0  0  0  0
   -5.5444    3.0752   -0.4249 C   0  0  0  0  0  0  0  0  0  0  0  0
   -5.7799    3.4998   -1.7464 C   0  0  0  0  0  0  0  0  0  0  0  0
   -6.8552    4.2866   -2.0609 C   0  0  0  0  0  0  0  0  0  0  0  0
   -7.7422    4.6843   -1.0741 C   0  0  0  0  0  0  0  0  0  0  0  0
   -7.5182    4.2733    0.2135 C   0  0  0  0  0  0  0  0  0  0  0  0
   -6.4218    3.4713    0.5325 C   0  0  0  0  0  0  0  0  0  0  0  0
   -3.5777   -0.0401    0.3514 C   0  0  0  0  0  0  0  0  0  0  0  0
   -3.3882   -0.3223    1.5947 O   0  0  0  0  0  0  0  0  0  0  0  0
   -2.6176   -0.5070   -0.5573 N   0  0  0  0  0  0  0  0  0  0  0  0
   -1.4472   -1.2546   -0.1915 C   0  0  1  0  0  0  0  0  0  0  0  0
   -1.7596   -2.6821   -0.7264 C   0  0  0  0  0  0  0  0  0  0  0  0
   -2.9591   -3.2272   -0.0839 C   0  0  0  0  0  0  0  0  0  0  0  0
   -4.1905   -3.1116   -0.6696 C   0  0  0  0  0  0  0  0  0  0  0  0
   -5.2979   -3.6463   -0.0275 C   0  0  0  0  0  0  0  0  0  0  0  0
   -5.1427   -4.2862    1.1933 C   0  0  0  0  0  0  0  0  0  0  0  0
   -3.8859   -4.3831    1.7560 C   0  0  0  0  0  0  0  0  0  0  0  0
   -2.7815   -3.8647    1.1412 C   0  0  0  0  0  0  0  0  0  0  0  0
   -0.2550   -0.7915   -1.0439 C   0  0  0  0  0  0  0  0  0  0  0  0
   -0.5610   -0.7446   -2.2232 O   0  0  0  0  0  0  0  0  0  0  0  0
    0.9475   -0.5105   -0.3489 N   0  0  0  0  0  0  0  0  0  0  0  0
    2.0614   -0.2486    0.2860 C   0  0  1  0  0  0  0  0  0  0  0  0
    2.4952   -1.2137    1.3953 C   0  0  0  0  0  0  0  0  0  0  0  0
    2.6641   -2.5747    0.9145 C   0  0  0  0  0  0  0  0  0  0  0  0
    1.6052   -3.4403    1.0429 C   0  0  0  0  0  0  0  0  0  0  0  0
    1.5792   -4.7463    0.6307 C   0  0  0  0  0  0  0  0  0  0  0  0
    2.7595   -5.2088    0.0268 C   0  0  0  0  0  0  0  0  0  0  0  0
    3.8346   -4.3571   -0.1110 C   0  0  0  0  0  0  0  0  0  0  0  0
    3.8225   -3.0331    0.3225 C   0  0  0  0  0  0  0  0  0  0  0  0
    3.3482    0.0513   -0.4739 C   0  0  0  0  0  0  0  0  0  0  0  0
    3.3957   -0.0868   -1.7360 O   0  0  0  0  0  0  0  0  0  0  0  0
    4.5155    0.5001    0.1635 N   0  0  0  0  0  0  0  0  0  0  0  0
    5.7721    0.8460   -0.5108 C   0  0  1  0  0  0  0  0  0  0  0  0
    6.0266    2.2629   -0.0402 C   0  0  0  0  0  0  0  0  0  0  0  0
    7.2129    2.9462   -0.4995 C   0  0  0  0  0  0  0  0  0  0  0  0
    7.2373    3.6634   -1.6902 C   0  0  0  0  0  0  0  0  0  0  0  0
    8.3581    4.3584   -2.0357 C   0  0  0  0  0  0  0  0  0  0  0  0
    9.4946    4.3758   -1.2210 C   0  0  0  0  0  0  0  0  0  0  0  0
    9.4726    3.6695   -0.0443 C   0  0  0  0  0  0  0  0  0  0  0  0
    8.3348    2.9668    0.2967 C   0  0  0  0  0  0  0  0  0  0  0  0
    6.9076   -0.0044   -0.1193 C   0  0  0  0  0  0  0  0  0  0  0  0
    8.1206   -0.0254   -0.8896 N   0  0  0  0  0  0  0  0  0  0  0  0
    6.8383   -0.7319    0.8931 O   0  0  0  0  0  0  0  0  0  0  0  0
   -7.5691   -0.8296    2.9658 H   0  0  0  0  0  0  0  0  0  0  0  0
   -7.6623    0.9713    2.8642 H   0  0  0  0  0  0  0  0  0  0  0  0
   -8.8300   -0.0490    1.9869 H   0  0  0  0  0  0  0  0  0  0  0  0
   -5.3642    1.1571    2.0675 H   0  0  0  0  0  0  0  0  0  0  0  0
   -5.3106    0.3632   -0.8759 H   0  0  0  0  0  0  0  0  0  0  0  0
   -3.5678    2.2833   -0.8440 H   0  0  0  0  0  0  0  0  0  0  0  0
   -4.0051    2.4924    0.8753 H   0  0  0  0  0  0  0  0  0  0  0  0
   -5.0585    3.1718   -2.4963 H   0  0  0  0  0  0  0  0  0  0  0  0
   -7.0005    4.6019   -3.1153 H   0  0  0  0  0  0  0  0  0  0  0  0
   -8.5901    5.3128   -1.3339 H   0  0  0  0  0  0  0  0  0  0  0  0
   -8.1960    4.5680    1.0066 H   0  0  0  0  0  0  0  0  0  0  0  0
   -6.3208    3.2053    1.5879 H   0  0  0  0  0  0  0  0  0  0  0  0
   -2.7854   -0.2720   -1.5878 H   0  0  0  0  0  0  0  0  0  0  0  0
   -1.2772   -1.2671    0.8466 H   0  0  0  0  0  0  0  0  0  0  0  0
   -0.9005   -3.3253   -0.6219 H   0  0  0  0  0  0  0  0  0  0  0  0
   -1.9164   -2.5521   -1.8416 H   0  0  0  0  0  0  0  0  0  0  0  0
   -4.3023   -2.6046   -1.6306 H   0  0  0  0  0  0  0  0  0  0  0  0
   -6.2687   -3.5467   -0.5049 H   0  0  0  0  0  0  0  0  0  0  0  0
   -6.0337   -4.6841    1.6660 H   0  0  0  0  0  0  0  0  0  0  0  0
   -3.8213   -4.8947    2.7365 H   0  0  0  0  0  0  0  0  0  0  0  0
   -1.8437   -3.9824    1.6369 H   0  0  0  0  0  0  0  0  0  0  0  0
    1.4360   -0.0368   -1.5203 H   0  0  0  0  0  0  0  0  0  0  0  0
    1.9734    0.8200    0.8012 H   0  0  0  0  0  0  0  0  0  0  0  0
    3.4061   -0.9098    1.9207 H   0  0  0  0  0  0  0  0  0  0  0  0
    1.6844   -1.1650    2.1690 H   0  0  0  0  0  0  0  0  0  0  0  0
    0.6641   -3.1007    1.5191 H   0  0  0  0  0  0  0  0  0  0  0  0
    0.7438   -5.4225    0.7207 H   0  0  0  0  0  0  0  0  0  0  0  0
    2.7775   -6.2304   -0.3207 H   0  0  0  0  0  0  0  0  0  0  0  0
    4.7533   -4.7003   -0.5807 H   0  0  0  0  0  0  0  0  0  0  0  0
    4.7000   -2.4320    0.1818 H   0  0  0  0  0  0  0  0  0  0  0  0
    4.4748    0.6076    1.2209 H   0  0  0  0  0  0  0  0  0  0  0  0
    5.6614    0.7714   -1.6033 H   0  0  0  0  0  0  0  0  0  0  0  0
    5.1433    2.9102   -0.3043 H   0  0  0  0  0  0  0  0  0  0  0  0
    6.0169    2.2962    1.0983 H   0  0  0  0  0  0  0  0  0  0  0  0
    6.3580    3.6719   -2.3563 H   0  0  0  0  0  0  0  0  0  0  0  0
    8.4315    4.9353   -2.9624 H   0  0  0  0  0  0  0  0  0  0  0  0
   10.3729    4.9209   -1.4912 H   0  0  0  0  0  0  0  0  0  0  0  0
   10.3145    3.6495    0.6163 H   0  0  0  0  0  0  0  0  0  0  0  0
    8.3463    2.4234    1.2128 H   0  0  0  0  0  0  0  0  0  0  0  0
    8.2535    0.6579   -1.6812 H   0  0  0  0  0  0  0  0  0  0  0  0
    8.8813   -0.7167   -0.6946 H   0  0  0  0  0  0  0  0  0  0  0  0
  1  2  1  0
  2  3  2  0
  2  4  1  0
  4  5  1  0
  5  6  1  0
  6  7  1  0
  7  8  2  0
  8  9  1  0
  9 10  2  0
 10 11  1  0
 11 12  2  0
  5 13  1  0
 13 14  2  0
 13 15  1  0
 15 16  1  0
 16 17  1  0
 17 18  1  0
 18 19  2  0
 19 20  1  0
 20 21  2  0
 21 22  1  0
 22 23  2  0
 16 24  1  0
 24 25  2  0
 24 26  1  0
 26 27  1  0
 27 28  1  0
 28 29  1  0
 29 30  2  0
 30 31  1  0
 31 32  2  0
 32 33  1  0
 33 34  2  0
 27 35  1  0
 35 36  2  0
 35 37  1  0
 37 38  1  0
 38 39  1  0
 39 40  1  0
 40 41  2  0
 41 42  1  0
 42 43  2  0
 43 44  1  0
 44 45  2  0
 38 46  1  0
 46 47  1  0
 46 48  2  0
 12  7  1  0
 23 18  1  0
 34 29  1  0
 45 40  1  0
  1 49  1  0
  1 50  1  0
  1 51  1  0
  4 52  1  0
  5 53  1  6
  6 54  1  0
  6 55  1  0
  8 56  1  0
  9 57  1  0
 10 58  1  0
 11 59  1  0
 12 60  1  0
 15 61  1  0
 16 62  1  1
 17 63  1  0
 17 64  1  0
 19 65  1  0
 20 66  1  0
 21 67  1  0
 22 68  1  0
 23 69  1  0
 26 70  1  0
 27 71  1  1
 28 72  1  0
 28 73  1  0
 30 74  1  0
 31 75  1  0
 32 76  1  0
 33 77  1  0
 34 78  1  0
 37 79  1  0
 38 80  1  6
 39 81  1  0
 39 82  1  0
 41 83  1  0
 42 84  1  0
 43 85  1  0
 44 86  1  0
 45 87  1  0
 47 88  1  0
 47 89  1  0
M  END
$$$$
[H]c1nc(N2C([H])([H])C([H])([H])N(C(=O)c3c([H])c([H])c([H])c(C(F)(F)F)c3[H])C([H])([H])C2([H])[H])c2c([H])c(OC([H])([H])[H])c(OC([H])([H])[H])c([H])c2n1
     RDKit          3D

 53 56  0  0  0  0  0  0  0  0999 V2000
   -7.9846    1.2880    0.8533 C   0  0  0  0  0  0  0  0  0  0  0  0
   -6.8764    0.9774    0.0895 O   0  0  0  0  0  0  0  0  0  0  0  0
   -5.5992    0.6916    0.3396 C   0  0  0  0  0  0  0  0  0  0  0  0
   -4.9933    0.6517    1.5828 C   0  0  0  0  0  0  0  0  0  0  0  0
   -3.6718    0.3603    1.7839 C   0  0  0  0  0  0  0  0  0  0  0  0
   -3.1203    0.3845    3.0033 N   0  0  0  0  0  0  0  0  0  0  0  0
   -1.8186    0.1583    3.2239 C   0  0  0  0  0  0  0  0  0  0  0  0
   -1.0539   -0.1034    2.1588 N   0  0  0  0  0  0  0  0  0  0  0  0
   -1.5216   -0.1541    0.8612 C   0  0  0  0  0  0  0  0  0  0  0  0
   -0.5696   -0.3597   -0.1555 N   0  0  0  0  0  0  0  0  0  0  0  0
   -0.3864    0.4050   -1.3626 C   0  0  0  0  0  0  0  0  0  0  0  0
    0.9687    1.0598   -1.3901 C   0  0  0  0  0  0  0  0  0  0  0  0
    2.0523    0.1005   -1.0085 N   0  0  0  0  0  0  0  0  0  0  0  0
    1.6230   -1.2450   -0.8266 C   0  0  0  0  0  0  0  0  0  0  0  0
    0.4425   -1.3851    0.1185 C   0  0  0  0  0  0  0  0  0  0  0  0
    3.3030    0.7097   -0.9384 C   0  0  0  0  0  0  0  0  0  0  0  0
    3.2254    2.0126   -1.2340 O   0  0  0  0  0  0  0  0  0  0  0  0
    4.6257    0.3081   -0.6430 C   0  0  0  0  0  0  0  0  0  0  0  0
    5.6543    1.2501   -0.9071 C   0  0  0  0  0  0  0  0  0  0  0  0
    6.9729    0.9414   -0.6312 C   0  0  0  0  0  0  0  0  0  0  0  0
    7.3436   -0.2365   -0.1126 C   0  0  0  0  0  0  0  0  0  0  0  0
    6.3857   -1.2091    0.1771 C   0  0  0  0  0  0  0  0  0  0  0  0
    5.0778   -0.8668   -0.1129 C   0  0  0  0  0  0  0  0  0  0  0  0
    6.8071   -2.4912    0.7393 C   0  0  0  0  0  0  0  0  0  0  0  0
    6.2550   -3.5658    0.0418 F   0  0  0  0  0  0  0  0  0  0  0  0
    8.1993   -2.6287    0.5646 F   0  0  0  0  0  0  0  0  0  0  0  0
    6.5489   -2.6292    2.0891 F   0  0  0  0  0  0  0  0  0  0  0  0
   -2.8398    0.0761    0.6793 C   0  0  0  0  0  0  0  0  0  0  0  0
   -3.4188    0.1019   -0.5766 C   0  0  0  0  0  0  0  0  0  0  0  0
   -4.7600    0.4018   -0.7588 C   0  0  0  0  0  0  0  0  0  0  0  0
   -5.3223    0.4312   -1.9929 O   0  0  0  0  0  0  0  0  0  0  0  0
   -4.6380    0.1748   -3.1872 C   0  0  0  0  0  0  0  0  0  0  0  0
   -7.7828    2.2420    1.4311 H   0  0  0  0  0  0  0  0  0  0  0  0
   -8.2309    0.5420    1.6361 H   0  0  0  0  0  0  0  0  0  0  0  0
   -8.8601    1.5262    0.1834 H   0  0  0  0  0  0  0  0  0  0  0  0
   -5.6403    0.8608    2.4449 H   0  0  0  0  0  0  0  0  0  0  0  0
   -1.4060    0.1694    4.1932 H   0  0  0  0  0  0  0  0  0  0  0  0
   -1.0989    1.2887   -1.4225 H   0  0  0  0  0  0  0  0  0  0  0  0
   -0.4833   -0.1818   -2.2929 H   0  0  0  0  0  0  0  0  0  0  0  0
    1.2230    1.4474   -2.3781 H   0  0  0  0  0  0  0  0  0  0  0  0
    1.0185    1.8552   -0.6262 H   0  0  0  0  0  0  0  0  0  0  0  0
    1.3118   -1.6842   -1.8405 H   0  0  0  0  0  0  0  0  0  0  0  0
    2.3787   -1.9648   -0.4789 H   0  0  0  0  0  0  0  0  0  0  0  0
    0.0408   -2.4118    0.0146 H   0  0  0  0  0  0  0  0  0  0  0  0
    0.8616   -1.2170    1.1633 H   0  0  0  0  0  0  0  0  0  0  0  0
    5.4678    2.2195   -1.3251 H   0  0  0  0  0  0  0  0  0  0  0  0
    7.7417    1.6979   -0.8449 H   0  0  0  0  0  0  0  0  0  0  0  0
    8.3779   -0.4934    0.1042 H   0  0  0  0  0  0  0  0  0  0  0  0
    4.3666   -1.6529    0.1454 H   0  0  0  0  0  0  0  0  0  0  0  0
   -2.8232   -0.1586   -1.4170 H   0  0  0  0  0  0  0  0  0  0  0  0
   -4.7469   -0.9057   -3.4983 H   0  0  0  0  0  0  0  0  0  0  0  0
   -3.5723    0.4188   -3.1556 H   0  0  0  0  0  0  0  0  0  0  0  0
   -5.0546    0.7920   -4.0339 H   0  0  0  0  0  0  0  0  0  0  0  0
  1  2  1  0
  2  3  1  0
  3  4  2  0
  4  5  1  0
  5  6  2  0
  6  7  1  0
  7  8  2  0
  8  9  1  0
  9 10  1  0
 10 11  1  0
 11 12  1  0
 12 13  1  0
 13 14  1  0
 14 15  1  0
 13 16  1  0
 16 17  2  0
 16 18  1  0
 18 19  2  0
 19 20  1  0
 20 21  2  0
 21 22  1  0
 22 23  2  0
 22 24  1  0
 24 25  1  0
 24 26  1  0
 24 27  1  0
  9 28  2  0
 28 29  1  0
 29 30  2  0
 30 31  1  0
 31 32  1  0
 30  3  1  0
 28  5  1  0
 15 10  1  0
 23 18  1  0
  1 33  1  0
  1 34  1  0
  1 35  1  0
  4 36  1  0
  7 37  1  0
 11 38  1  0
 11 39  1  0
 12 40  1  0
 12 41  1  0
 14 42  1  0
 14 43  1  0
 15 44  1  0
 15 45  1  0
 19 46  1  0
 20 47  1  0
 21 48  1  0
 23 49  1  0
 29 50  1  0
 32 51  1  0
 32 52  1  0
 32 53  1  0
M  END
$$$$
[H]c1c([H])c(N2C([H])([H])C([H])([H])N([H])C([H])([H])C2([H])[H])c([H])c([H])c1-c1nn([H])c2nc(N([H])c3c([H])c([H])c(N4C([H])([H])C([H])([H])N(C([H])([H])[H])C([H])([H])C4([H])[H])c([H])c3[H])nc([H])c12
     RDKit          3D

 66 71  0  0  0  0  0  0  0  0999 V2000
  -10.2829    0.0189    1.8434 C   0  0  0  0  0  0  0  0  0  0  0  0
   -9.9138   -0.3699    0.4941 N   0  0  0  0  0  0  0  0  0  0  0  0
   -9.1598    0.6555   -0.1741 C   0  0  0  0  0  0  0  0  0  0  0  0
   -7.7031    0.5103    0.2922 C   0  0  0  0  0  0  0  0  0  0  0  0
   -7.2030   -0.7112   -0.3062 N   0  0  0  0  0  0  0  0  0  0  0  0
   -8.1662   -1.7746   -0.5100 C   0  0  0  0  0  0  0  0  0  0  0  0
   -9.2396   -1.6304    0.5494 C   0  0  0  0  0  0  0  0  0  0  0  0
   -5.8330   -0.8542   -0.6679 C   0  0  0  0  0  0  0  0  0  0  0  0
   -5.4115   -1.9783   -1.3733 C   0  0  0  0  0  0  0  0  0  0  0  0
   -4.1082   -2.1628   -1.7383 C   0  0  0  0  0  0  0  0  0  0  0  0
   -3.1533   -1.1742   -1.3858 C   0  0  0  0  0  0  0  0  0  0  0  0
   -1.8219   -1.3575   -1.7958 N   0  0  0  0  0  0  0  0  0  0  0  0
   -0.6952   -0.8138   -1.1597 C   0  0  0  0  0  0  0  0  0  0  0  0
    0.5576   -1.0542   -1.6810 N   0  0  0  0  0  0  0  0  0  0  0  0
    1.6712   -0.5974   -1.1275 C   0  0  0  0  0  0  0  0  0  0  0  0
    1.6146    0.1612    0.0297 C   0  0  0  0  0  0  0  0  0  0  0  0
    2.5709    0.7576    0.8167 C   0  0  0  0  0  0  0  0  0  0  0  0
    1.8926    1.3657    1.8271 N   0  0  0  0  0  0  0  0  0  0  0  0
    0.5998    1.1598    1.6758 N   0  0  0  0  0  0  0  0  0  0  0  0
    0.3672    0.4223    0.5824 C   0  0  0  0  0  0  0  0  0  0  0  0
   -0.6922   -0.0801   -0.0470 N   0  0  0  0  0  0  0  0  0  0  0  0
    4.0066    0.7370    0.6082 C   0  0  0  0  0  0  0  0  0  0  0  0
    4.5258    0.9931   -0.6401 C   0  0  0  0  0  0  0  0  0  0  0  0
    5.9081    0.9702   -0.8140 C   0  0  0  0  0  0  0  0  0  0  0  0
    6.7502    0.6972    0.2386 C   0  0  0  0  0  0  0  0  0  0  0  0
    6.2154    0.4387    1.4992 C   0  0  0  0  0  0  0  0  0  0  0  0
    4.8505    0.4611    1.6716 C   0  0  0  0  0  0  0  0  0  0  0  0
    8.1528    0.6973    0.0135 N   0  0  0  0  0  0  0  0  0  0  0  0
    8.9768    0.2548    1.1122 C   0  0  0  0  0  0  0  0  0  0  0  0
   10.4280    0.1681    0.8519 C   0  0  0  0  0  0  0  0  0  0  0  0
   10.8206    0.5139   -0.4937 N   0  0  0  0  0  0  0  0  0  0  0  0
   10.0901    1.6335   -1.0149 C   0  0  0  0  0  0  0  0  0  0  0  0
    8.6567    1.1344   -1.2596 C   0  0  0  0  0  0  0  0  0  0  0  0
   -3.5388   -0.0651   -0.6970 C   0  0  0  0  0  0  0  0  0  0  0  0
   -4.8837    0.0819   -0.3435 C   0  0  0  0  0  0  0  0  0  0  0  0
  -11.0842    0.7862    1.8634 H   0  0  0  0  0  0  0  0  0  0  0  0
  -10.6257   -0.9263    2.3562 H   0  0  0  0  0  0  0  0  0  0  0  0
   -9.4070    0.3586    2.4360 H   0  0  0  0  0  0  0  0  0  0  0  0
   -9.1863    0.4639   -1.2782 H   0  0  0  0  0  0  0  0  0  0  0  0
   -9.5186    1.6635    0.0824 H   0  0  0  0  0  0  0  0  0  0  0  0
   -7.1466    1.4194   -0.0312 H   0  0  0  0  0  0  0  0  0  0  0  0
   -7.6563    0.3769    1.3895 H   0  0  0  0  0  0  0  0  0  0  0  0
   -8.6256   -1.6676   -1.5039 H   0  0  0  0  0  0  0  0  0  0  0  0
   -7.6992   -2.7784   -0.3441 H   0  0  0  0  0  0  0  0  0  0  0  0
   -9.9978   -2.4549    0.4602 H   0  0  0  0  0  0  0  0  0  0  0  0
   -8.7800   -1.7478    1.5452 H   0  0  0  0  0  0  0  0  0  0  0  0
   -6.1530   -2.7299   -1.6408 H   0  0  0  0  0  0  0  0  0  0  0  0
   -3.7453   -3.0094   -2.2787 H   0  0  0  0  0  0  0  0  0  0  0  0
   -1.6450   -1.9495   -2.6496 H   0  0  0  0  0  0  0  0  0  0  0  0
    2.6679   -0.7993   -1.5526 H   0  0  0  0  0  0  0  0  0  0  0  0
   -0.1501    1.5171    2.3138 H   0  0  0  0  0  0  0  0  0  0  0  0
    3.9211    1.2195   -1.5139 H   0  0  0  0  0  0  0  0  0  0  0  0
    6.3244    1.1660   -1.7875 H   0  0  0  0  0  0  0  0  0  0  0  0
    6.8992    0.2258    2.3149 H   0  0  0  0  0  0  0  0  0  0  0  0
    4.4247    0.2595    2.6572 H   0  0  0  0  0  0  0  0  0  0  0  0
    8.5493   -0.7449    1.4214 H   0  0  0  0  0  0  0  0  0  0  0  0
    8.8148    0.9125    2.0138 H   0  0  0  0  0  0  0  0  0  0  0  0
   10.7822   -0.8703    1.0366 H   0  0  0  0  0  0  0  0  0  0  0  0
   11.0351    0.8079    1.5587 H   0  0  0  0  0  0  0  0  0  0  0  0
   11.8424    0.7765   -0.4551 H   0  0  0  0  0  0  0  0  0  0  0  0
   10.5272    1.9190   -1.9871 H   0  0  0  0  0  0  0  0  0  0  0  0
   10.0506    2.5089   -0.3070 H   0  0  0  0  0  0  0  0  0  0  0  0
    8.1305    2.0217   -1.6709 H   0  0  0  0  0  0  0  0  0  0  0  0
    8.6997    0.3532   -2.0196 H   0  0  0  0  0  0  0  0  0  0  0  0
   -2.8985    0.7450   -0.4017 H   0  0  0  0  0  0  0  0  0  0  0  0
   -5.1993    0.9683    0.2114 H   0  0  0  0  0  0  0  0  0  0  0  0
  1  2  1  0
  2  3  1  0
  3  4  1  0
  4  5  1  0
  5  6  1  0
  6  7  1  0
  5  8  1  0
  8  9  2  0
  9 10  1  0
 10 11  2  0
 11 12  1  0
 12 13  1  0
 13 14  2  0
 14 15  1  0
 15 16  2  0
 16 17  1  0
 17 18  2  0
 18 19  1  0
 19 20  1  0
 20 21  2  0
 17 22  1  0
 22 23  2  0
 23 24  1  0
 24 25  2  0
 25 26  1  0
 26 27  2  0
 25 28  1  0
 28 29  1  0
 29 30  1  0
 30 31  1  0
 31 32  1  0
 32 33  1  0
 11 34  1  0
 34 35  2  0
  7  2  1  0
 35  8  1  0
 21 13  1  0
 27 22  1  0
 33 28  1  0
 20 16  1  0
  1 36  1  0
  1 37  1  0
  1 38  1  0
  3 39  1  0
  3 40  1  0
  4 41  1  0
  4 42  1  0
  6 43  1  0
  6 44  1  0
  7 45  1  0
  7 46  1  0
  9 47  1  0
 10 48  1  0
 12 49  1  0
 15 50  1  0
 19 51  1  0
 23 52  1  0
 24 53  1  0
 26 54  1  0
 27 55  1  0
 29 56  1  0
 29 57  1  0
 30 58  1  0
 30 59  1  0
 31 60  1  0
 32 61  1  0
 32 62  1  0
 33 63  1  0
 33 64  1  0
 34 65  1  0
 35 66  1  0
M  END
$$$$
[H]c1c([H])c([C@@]([H])(N([H])S(=O)(=O)c2c([H])c([H])c(C(F)(F)F)c([H])c2[H])C([H])(C([H])([H])[H])C([H])([H])[H])c([H])c([H])c1C(=O)N([H])S(=O)(=O)c1c([H])c([H])c2c([H])c([H])c([H])c([H])c2c1[H]
     RDKit          3D

 65 68  0  0  0  0  0  0  0  0999 V2000
   -1.4995   -1.2750    3.2950 C   0  0  0  0  0  0  0  0  0  0  0  0
   -2.3741   -2.1496    2.4451 C   0  0  0  0  0  0  0  0  0  0  0  0
   -1.7115   -3.4481    2.1681 C   0  0  0  0  0  0  0  0  0  0  0  0
   -2.7360   -1.3373    1.1834 C   0  0  2  0  0  0  0  0  0  0  0  0
   -3.5140   -2.0824    0.3012 N   0  0  0  0  0  0  0  0  0  0  0  0
   -5.1468   -1.9239    0.1348 S   0  0  0  0  0  0  0  0  0  0  0  0
   -5.6094   -3.0002   -0.8796 O   0  0  0  0  0  0  0  0  0  0  0  0
   -5.7990   -2.4170    1.4347 O   0  0  0  0  0  0  0  0  0  0  0  0
   -5.8670   -0.4625   -0.3530 C   0  0  0  0  0  0  0  0  0  0  0  0
   -6.4713    0.3270    0.6138 C   0  0  0  0  0  0  0  0  0  0  0  0
   -7.1167    1.5114    0.3446 C   0  0  0  0  0  0  0  0  0  0  0  0
   -7.1784    1.9597   -0.9728 C   0  0  0  0  0  0  0  0  0  0  0  0
   -6.5744    1.1795   -1.9530 C   0  0  0  0  0  0  0  0  0  0  0  0
   -5.9239   -0.0152   -1.6581 C   0  0  0  0  0  0  0  0  0  0  0  0
   -7.9176    3.2071   -1.2413 C   0  0  0  0  0  0  0  0  0  0  0  0
   -8.4557    3.6498   -0.0215 F   0  0  0  0  0  0  0  0  0  0  0  0
   -9.0208    2.8299   -2.0170 F   0  0  0  0  0  0  0  0  0  0  0  0
   -7.1748    4.2016   -1.8290 F   0  0  0  0  0  0  0  0  0  0  0  0
   -1.4851   -0.8669    0.5955 C   0  0  0  0  0  0  0  0  0  0  0  0
   -0.6789   -1.7439   -0.1449 C   0  0  0  0  0  0  0  0  0  0  0  0
    0.5175   -1.4178   -0.6785 C   0  0  0  0  0  0  0  0  0  0  0  0
    1.0072   -0.1339   -0.4982 C   0  0  0  0  0  0  0  0  0  0  0  0
    0.2664    0.7565    0.2028 C   0  0  0  0  0  0  0  0  0  0  0  0
   -0.9651    0.3930    0.7436 C   0  0  0  0  0  0  0  0  0  0  0  0
    2.3414    0.1163   -1.0447 C   0  0  0  0  0  0  0  0  0  0  0  0
    3.0725    0.9585   -0.5087 O   0  0  0  0  0  0  0  0  0  0  0  0
    2.7939   -0.6026   -2.1656 N   0  0  0  0  0  0  0  0  0  0  0  0
    4.3877   -0.4384   -2.8602 S   0  0  0  0  0  0  0  0  0  0  0  0
    4.4169    0.5353   -3.9761 O   0  0  0  0  0  0  0  0  0  0  0  0
    4.8331   -1.8215   -3.3111 O   0  0  0  0  0  0  0  0  0  0  0  0
    5.4626    0.1187   -1.6018 C   0  0  0  0  0  0  0  0  0  0  0  0
    5.7313   -0.7508   -0.5581 C   0  0  0  0  0  0  0  0  0  0  0  0
    6.5832   -0.3959    0.4395 C   0  0  0  0  0  0  0  0  0  0  0  0
    7.2159    0.8531    0.4490 C   0  0  0  0  0  0  0  0  0  0  0  0
    8.0907    1.2200    1.4562 C   0  0  0  0  0  0  0  0  0  0  0  0
    8.6740    2.4566    1.3956 C   0  0  0  0  0  0  0  0  0  0  0  0
    8.4357    3.3501    0.3841 C   0  0  0  0  0  0  0  0  0  0  0  0
    7.5503    2.9500   -0.6141 C   0  0  0  0  0  0  0  0  0  0  0  0
    6.9443    1.7227   -0.5937 C   0  0  0  0  0  0  0  0  0  0  0  0
    6.0786    1.3443   -1.5956 C   0  0  0  0  0  0  0  0  0  0  0  0
   -0.4446   -1.2402    2.9012 H   0  0  0  0  0  0  0  0  0  0  0  0
   -1.5271   -1.5614    4.3671 H   0  0  0  0  0  0  0  0  0  0  0  0
   -1.8393   -0.2001    3.2861 H   0  0  0  0  0  0  0  0  0  0  0  0
   -3.3299   -2.4095    2.9845 H   0  0  0  0  0  0  0  0  0  0  0  0
   -1.7483   -4.0681    3.1227 H   0  0  0  0  0  0  0  0  0  0  0  0
   -0.6347   -3.4166    1.9309 H   0  0  0  0  0  0  0  0  0  0  0  0
   -2.2887   -4.0835    1.4492 H   0  0  0  0  0  0  0  0  0  0  0  0
   -3.3420   -0.4605    1.5582 H   0  0  0  0  0  0  0  0  0  0  0  0
   -2.9720   -2.1694   -0.6166 H   0  0  0  0  0  0  0  0  0  0  0  0
   -6.4493    0.0043    1.6718 H   0  0  0  0  0  0  0  0  0  0  0  0
   -7.5727    2.0754    1.1784 H   0  0  0  0  0  0  0  0  0  0  0  0
   -6.6482    1.5601   -2.9540 H   0  0  0  0  0  0  0  0  0  0  0  0
   -5.4649   -0.5678   -2.4712 H   0  0  0  0  0  0  0  0  0  0  0  0
   -1.0962   -2.7473   -0.2852 H   0  0  0  0  0  0  0  0  0  0  0  0
    1.0559   -2.1711   -1.2243 H   0  0  0  0  0  0  0  0  0  0  0  0
    0.6302    1.7688    0.3552 H   0  0  0  0  0  0  0  0  0  0  0  0
   -1.5404    1.1169    1.3068 H   0  0  0  0  0  0  0  0  0  0  0  0
    2.1675   -1.2853   -2.6615 H   0  0  0  0  0  0  0  0  0  0  0  0
    5.2680   -1.7245   -0.5304 H   0  0  0  0  0  0  0  0  0  0  0  0
    6.8445   -1.0256    1.2901 H   0  0  0  0  0  0  0  0  0  0  0  0
    8.2919    0.5344    2.2643 H   0  0  0  0  0  0  0  0  0  0  0  0
    9.3551    2.6952    2.2108 H   0  0  0  0  0  0  0  0  0  0  0  0
    8.8997    4.3302    0.3411 H   0  0  0  0  0  0  0  0  0  0  0  0
    7.3539    3.6641   -1.4387 H   0  0  0  0  0  0  0  0  0  0  0  0
    5.8486    2.0231   -2.4324 H   0  0  0  0  0  0  0  0  0  0  0  0
  1  2  1  0
  2  3  1  0
  2  4  1  0
  4  5  1  0
  5  6  1  0
  6  7  2  0
  6  8  2  0
  6  9  1  0
  9 10  2  0
 10 11  1  0
 11 12  2  0
 12 13  1  0
 13 14  2  0
 12 15  1  0
 15 16  1  0
 15 17  1  0
 15 18  1  0
  4 19  1  0
 19 20  2  0
 20 21  1  0
 21 22  2  0
 22 23  1  0
 23 24  2  0
 22 25  1  0
 25 26  2  0
 25 27  1  0
 27 28  1  0
 28 29  2  0
 28 30  2  0
 28 31  1  0
 31 32  2  0
 32 33  1  0
 33 34  2  0
 34 35  1  0
 35 36  2  0
 36 37  1  0
 37 38  2  0
 38 39  1  0
 39 40  2  0
 14  9  1  0
 24 19  1  0
 40 31  1  0
 39 34  1  0
  1 41  1  0
  1 42  1  0
  1 43  1  0
  2 44  1  0
  3 45  1  0
  3 46  1  0
  3 47  1  0
  4 48  1  1
  5 49  1  0
 10 50  1  0
 11 51  1  0
 13 52  1  0
 14 53  1  0
 20 54  1  0
 21 55  1  0
 23 56  1  0
 24 57  1  0
 27 58  1  0
 32 59  1  0
 33 60  1  0
 35 61  1  0
 36 62  1  0
 37 63  1  0
 38 64  1  0
 40 65  1  0
M  END
$$$$
[H]c1c([H])c(S(=O)(=O)N2C([H])([H])C([H])([H])C([H])(N([H])C(=O)c3c([H])n([H])c4c([H])c([H])c(Cl)c([H])c34)C([H])([H])C2([H])[H])c([H])c([H])c1OC([H])([H])[H]
     RDKit          3D

 52 55  0  0  0  0  0  0  0  0999 V2000
   -6.9335    3.2586   -0.6922 C   0  0  0  0  0  0  0  0  0  0  0  0
   -6.3066    2.3580   -1.5862 O   0  0  0  0  0  0  0  0  0  0  0  0
   -5.5696    1.2992   -1.0594 C   0  0  0  0  0  0  0  0  0  0  0  0
   -5.4481    1.1246    0.3028 C   0  0  0  0  0  0  0  0  0  0  0  0
   -4.7298    0.0927    0.8620 C   0  0  0  0  0  0  0  0  0  0  0  0
   -4.0845   -0.8344    0.0496 C   0  0  0  0  0  0  0  0  0  0  0  0
   -4.2111   -0.6525   -1.3117 C   0  0  0  0  0  0  0  0  0  0  0  0
   -4.9342    0.3864   -1.8744 C   0  0  0  0  0  0  0  0  0  0  0  0
   -3.1663   -2.1572    0.7213 S   0  0  0  0  0  0  0  0  0  0  0  0
   -3.1785   -3.2930   -0.2893 O   0  0  0  0  0  0  0  0  0  0  0  0
   -3.8623   -2.6455    1.9400 O   0  0  0  0  0  0  0  0  0  0  0  0
   -1.5355   -1.7452    1.0012 N   0  0  0  0  0  0  0  0  0  0  0  0
   -0.8177   -1.3830   -0.1769 C   0  0  0  0  0  0  0  0  0  0  0  0
    0.4006   -2.2548   -0.4060 C   0  0  0  0  0  0  0  0  0  0  0  0
    1.3093   -2.1436    0.7940 C   0  0  0  0  0  0  0  0  0  0  0  0
    0.5806   -2.3444    2.0821 C   0  0  0  0  0  0  0  0  0  0  0  0
   -0.8467   -2.7310    1.7731 C   0  0  0  0  0  0  0  0  0  0  0  0
    1.9765   -0.8570    0.7052 N   0  0  0  0  0  0  0  0  0  0  0  0
    3.3564   -0.7024    0.5364 C   0  0  0  0  0  0  0  0  0  0  0  0
    4.1052   -1.7015    0.4511 O   0  0  0  0  0  0  0  0  0  0  0  0
    3.9371    0.6254    0.4579 C   0  0  0  0  0  0  0  0  0  0  0  0
    3.5701    1.7696    1.1505 C   0  0  0  0  0  0  0  0  0  0  0  0
    4.3744    2.7692    0.7695 N   0  0  0  0  0  0  0  0  0  0  0  0
    5.2605    2.3752   -0.1348 C   0  0  0  0  0  0  0  0  0  0  0  0
    6.2759    3.0108   -0.8186 C   0  0  0  0  0  0  0  0  0  0  0  0
    7.0415    2.2943   -1.7217 C   0  0  0  0  0  0  0  0  0  0  0  0
    6.7663    0.9425   -1.9188 C   0  0  0  0  0  0  0  0  0  0  0  0
    7.7349    0.0296   -3.0634 Cl  0  0  0  0  0  0  0  0  0  0  0  0
    5.7546    0.2910   -1.2433 C   0  0  0  0  0  0  0  0  0  0  0  0
    5.0067    1.0368   -0.3462 C   0  0  0  0  0  0  0  0  0  0  0  0
   -6.2060    3.7129    0.0212 H   0  0  0  0  0  0  0  0  0  0  0  0
   -7.5623    3.9838   -1.2094 H   0  0  0  0  0  0  0  0  0  0  0  0
   -7.6226    2.6266   -0.0593 H   0  0  0  0  0  0  0  0  0  0  0  0
   -5.9628    1.8638    0.9265 H   0  0  0  0  0  0  0  0  0  0  0  0
   -4.6515   -0.0199    1.9172 H   0  0  0  0  0  0  0  0  0  0  0  0
   -3.6986   -1.3909   -1.9472 H   0  0  0  0  0  0  0  0  0  0  0  0
   -5.0068    0.4907   -2.9488 H   0  0  0  0  0  0  0  0  0  0  0  0
   -0.4656   -0.3395   -0.0628 H   0  0  0  0  0  0  0  0  0  0  0  0
   -1.4727   -1.3932   -1.0691 H   0  0  0  0  0  0  0  0  0  0  0  0
    0.8961   -1.8660   -1.3160 H   0  0  0  0  0  0  0  0  0  0  0  0
    0.1399   -3.3082   -0.5938 H   0  0  0  0  0  0  0  0  0  0  0  0
    2.1073   -2.9107    0.7022 H   0  0  0  0  0  0  0  0  0  0  0  0
    0.5825   -1.4401    2.7241 H   0  0  0  0  0  0  0  0  0  0  0  0
    1.0205   -3.1868    2.6536 H   0  0  0  0  0  0  0  0  0  0  0  0
   -0.8330   -3.6861    1.1737 H   0  0  0  0  0  0  0  0  0  0  0  0
   -1.4304   -2.9403    2.7060 H   0  0  0  0  0  0  0  0  0  0  0  0
    1.3676   -0.0255    0.7745 H   0  0  0  0  0  0  0  0  0  0  0  0
    2.7480    1.8015    1.8813 H   0  0  0  0  0  0  0  0  0  0  0  0
    4.3202    3.7549    1.1366 H   0  0  0  0  0  0  0  0  0  0  0  0
    6.5031    4.0654   -0.6759 H   0  0  0  0  0  0  0  0  0  0  0  0
    7.8556    2.7533   -2.2864 H   0  0  0  0  0  0  0  0  0  0  0  0
    5.5457   -0.7642   -1.4023 H   0  0  0  0  0  0  0  0  0  0  0  0
  1  2  1  0
  2  3  1  0
  3  4  2  0
  4  5  1  0
  5  6  2  0
  6  7  1  0
  7  8  2  0
  6  9  1  0
  9 10  2  0
  9 11  2  0
  9 12  1  0
 12 13  1  0
 13 14  1  0
 14 15  1  0
 15 16  1  0
 16 17  1  0
 15 18  1  0
 18 19  1  0
 19 20  2  0
 19 21  1  0
 21 22  2  0
 22 23  1  0
 23 24  1  0
 24 25  2  0
 25 26  1  0
 26 27  2  0
 27 28  1  0
 27 29  1  0
 29 30  2  0
  8  3  1  0
 17 12  1  0
 30 21  1  0
 30 24  1  0
  1 31  1  0
  1 32  1  0
  1 33  1  0
  4 34  1  0
  5 35  1  0
  7 36  1  0
  8 37  1  0
 13 38  1  0
 13 39  1  0
 14 40  1  0
 14 41  1  0
 15 42  1  0
 16 43  1  0
 16 44  1  0
 17 45  1  0
 17 46  1  0
 18 47  1  0
 22 48  1  0
 23 49  1  0
 25 50  1  0
 26 51  1  0
 29 52  1  0
M  END
$$$$
[H]O[C@@]1([H])C([H])([H])C([H])([H])[C@]2(C([H])([H])[H])[C@@]3([H])C([H])([H])C([H])([H])[C@]4(C([H])([H])[H])C([H])([H])[C@]([H])(OC(=O)c5c([H])c([H])c(F)c([H])c5[H])C([H])([H])C([H])([H])[C@@]4([H])[C@]3([H])C([H])([H])[C@]2([H])C1([H])[H]
     RDKit          3D

 65 69  0  0  0  0  0  0  0  0999 V2000
    0.1411   -1.1388   -2.0625 C   0  0  0  0  0  0  0  0  0  0  0  0
    0.3403   -1.0917   -0.5929 C   0  0  2  0  0  0  0  0  0  0  0  0
   -0.4820   -2.2270    0.0194 C   0  0  0  0  0  0  0  0  0  0  0  0
   -1.9696   -1.9777   -0.2643 C   0  0  0  0  0  0  0  0  0  0  0  0
   -2.3122   -0.6772    0.3572 C   0  0  1  0  0  0  0  0  0  0  0  0
   -1.4996    0.4662   -0.2676 C   0  0  1  0  0  0  0  0  0  0  0  0
   -2.1119    1.6158    0.5037 C   0  0  0  0  0  0  0  0  0  0  0  0
   -3.5876    1.3160    0.2825 C   0  0  2  0  0  0  0  0  0  0  0  0
   -4.4377    1.8468    1.4102 C   0  0  0  0  0  0  0  0  0  0  0  0
   -5.8714    1.5049    1.1094 C   0  0  1  0  0  0  0  0  0  0  0  0
   -6.3659    2.1798   -0.0046 O   0  0  0  0  0  0  0  0  0  0  0  0
   -5.9996    0.0155    0.9602 C   0  0  0  0  0  0  0  0  0  0  0  0
   -4.6801   -0.6971    1.1703 C   0  0  0  0  0  0  0  0  0  0  0  0
   -3.6974   -0.1906    0.1396 C   0  0  2  0  0  0  0  0  0  0  0  0
   -4.1771   -0.6063   -1.2169 C   0  0  0  0  0  0  0  0  0  0  0  0
   -0.0728    0.2105    0.0541 C   0  0  2  0  0  0  0  0  0  0  0  0
    0.8622    1.3305   -0.2358 C   0  0  0  0  0  0  0  0  0  0  0  0
    1.9548    1.0134   -1.1963 C   0  0  0  0  0  0  0  0  0  0  0  0
    2.6711   -0.2835   -0.9189 C   0  0  1  0  0  0  0  0  0  0  0  0
    3.8454   -0.0451   -0.1789 O   0  0  0  0  0  0  0  0  0  0  0  0
    5.0700   -0.3536   -0.7531 C   0  0  0  0  0  0  0  0  0  0  0  0
    5.1476   -0.8413   -1.9206 O   0  0  0  0  0  0  0  0  0  0  0  0
    6.3004   -0.1246   -0.0278 C   0  0  0  0  0  0  0  0  0  0  0  0
    7.5090   -0.4339   -0.6062 C   0  0  0  0  0  0  0  0  0  0  0  0
    8.7135   -0.2237    0.0699 C   0  0  0  0  0  0  0  0  0  0  0  0
    8.7049    0.3047    1.3454 C   0  0  0  0  0  0  0  0  0  0  0  0
    9.8510    0.5307    2.0516 F   0  0  0  0  0  0  0  0  0  0  0  0
    7.4958    0.6170    1.9309 C   0  0  0  0  0  0  0  0  0  0  0  0
    6.3199    0.4006    1.2437 C   0  0  0  0  0  0  0  0  0  0  0  0
    1.7857   -1.3192   -0.2615 C   0  0  0  0  0  0  0  0  0  0  0  0
   -0.4422   -2.0481   -2.3940 H   0  0  0  0  0  0  0  0  0  0  0  0
   -0.3495   -0.2816   -2.5155 H   0  0  0  0  0  0  0  0  0  0  0  0
    1.1276   -1.2553   -2.6020 H   0  0  0  0  0  0  0  0  0  0  0  0
   -0.3633   -2.2744    1.1141 H   0  0  0  0  0  0  0  0  0  0  0  0
   -0.2190   -3.1801   -0.4532 H   0  0  0  0  0  0  0  0  0  0  0  0
   -2.1894   -2.0059   -1.3432 H   0  0  0  0  0  0  0  0  0  0  0  0
   -2.5062   -2.7794    0.2799 H   0  0  0  0  0  0  0  0  0  0  0  0
   -2.0028   -0.7033    1.4235 H   0  0  0  0  0  0  0  0  0  0  0  0
   -1.7358    0.6087   -1.3157 H   0  0  0  0  0  0  0  0  0  0  0  0
   -1.8170    2.6007    0.1162 H   0  0  0  0  0  0  0  0  0  0  0  0
   -1.8221    1.4746    1.5740 H   0  0  0  0  0  0  0  0  0  0  0  0
   -3.8825    1.8214   -0.6423 H   0  0  0  0  0  0  0  0  0  0  0  0
   -4.3413    2.9387    1.4109 H   0  0  0  0  0  0  0  0  0  0  0  0
   -4.1842    1.4103    2.3881 H   0  0  0  0  0  0  0  0  0  0  0  0
   -6.4907    1.8664    1.9818 H   0  0  0  0  0  0  0  0  0  0  0  0
   -5.9478    3.0647   -0.1368 H   0  0  0  0  0  0  0  0  0  0  0  0
   -6.4241   -0.2822   -0.0039 H   0  0  0  0  0  0  0  0  0  0  0  0
   -6.6946   -0.3668    1.7479 H   0  0  0  0  0  0  0  0  0  0  0  0
   -4.3016   -0.6173    2.1959 H   0  0  0  0  0  0  0  0  0  0  0  0
   -4.8568   -1.7649    0.9461 H   0  0  0  0  0  0  0  0  0  0  0  0
   -4.4640   -1.6715   -1.1721 H   0  0  0  0  0  0  0  0  0  0  0  0
   -3.4065   -0.5074   -2.0110 H   0  0  0  0  0  0  0  0  0  0  0  0
   -5.0619   -0.0321   -1.5600 H   0  0  0  0  0  0  0  0  0  0  0  0
   -0.0176    0.0192    1.1678 H   0  0  0  0  0  0  0  0  0  0  0  0
    0.2871    2.1874   -0.6523 H   0  0  0  0  0  0  0  0  0  0  0  0
    1.3516    1.7462    0.6934 H   0  0  0  0  0  0  0  0  0  0  0  0
    2.7273    1.8323   -1.0942 H   0  0  0  0  0  0  0  0  0  0  0  0
    1.5895    1.1036   -2.2351 H   0  0  0  0  0  0  0  0  0  0  0  0
    2.9615   -0.7060   -1.8994 H   0  0  0  0  0  0  0  0  0  0  0  0
    7.5166   -0.8475   -1.6045 H   0  0  0  0  0  0  0  0  0  0  0  0
    9.6546   -0.4704   -0.3946 H   0  0  0  0  0  0  0  0  0  0  0  0
    7.4951    1.0295    2.9275 H   0  0  0  0  0  0  0  0  0  0  0  0
    5.3477    0.6378    1.6808 H   0  0  0  0  0  0  0  0  0  0  0  0
    1.9324   -1.3211    0.8530 H   0  0  0  0  0  0  0  0  0  0  0  0
    2.0820   -2.3472   -0.6110 H   0  0  0  0  0  0  0  0  0  0  0  0
  2  1  1  6
  2  3  1  0
  3  4  1  0
  4  5  1  0
  5  6  1  0
  6  7  1  0
  7  8  1  0
  8  9  1  0
  9 10  1  0
 10 11  1  0
 10 12  1  0
 12 13  1  0
 13 14  1  0
 14 15  1  6
  6 16  1  0
 16 17  1  0
 17 18  1  0
 18 19  1  0
 19 20  1  0
 20 21  1  0
 21 22  2  0
 21 23  1  0
 23 24  2  0
 24 25  1  0
 25 26  2  0
 26 27  1  0
 26 28  1  0
 28 29  2  0
 19 30  1  0
 16  2  1  0
 29 23  1  0
 30  2  1  0
 14  5  1  0
 14  8  1  0
  1 31  1  0
  1 32  1  0
  1 33  1  0
  3 34  1  0
  3 35  1  0
  4 36  1  0
  4 37  1  0
  5 38  1  1
  6 39  1  6
  7 40  1  0
  7 41  1  0
  8 42  1  6
  9 43  1  0
  9 44  1  0
 10 45  1  1
 11 46  1  0
 12 47  1  0
 12 48  1  0
 13 49  1  0
 13 50  1  0
 15 51  1  0
 15 52  1  0
 15 53  1  0
 16 54  1  1
 17 55  1  0
 17 56  1  0
 18 57  1  0
 18 58  1  0
 19 59  1  6
 24 60  1  0
 25 61  1  0
 28 62  1  0
 29 63  1  0
 30 64  1  0
 30 65  1  0
M  END
$$$$
[H]O[C@]1([H])[C@]([H])(n2c([H])nc3c(N([H])[H])nc([H])nc32)O[C@]1([H])C([H])([H])OP(=O)(O[H])OP(=O)(O[H])OP(=O)(O[H])O[H]
     RDKit          3D

 43 45  0  0  0  0  0  0  0  0999 V2000
   -7.5759   -1.0596    0.4550 N   0  0  0  0  0  0  0  0  0  0  0  0
   -6.4523   -0.8238   -0.3755 C   0  0  0  0  0  0  0  0  0  0  0  0
   -6.4013   -1.3648   -1.5983 N   0  0  0  0  0  0  0  0  0  0  0  0
   -5.3239   -1.1401   -2.3979 C   0  0  0  0  0  0  0  0  0  0  0  0
   -4.2874   -0.3809   -2.0007 N   0  0  0  0  0  0  0  0  0  0  0  0
   -4.2989    0.1897   -0.7615 C   0  0  0  0  0  0  0  0  0  0  0  0
   -3.4371    0.9765   -0.0970 N   0  0  0  0  0  0  0  0  0  0  0  0
   -3.9401    1.2616    1.1137 C   0  0  0  0  0  0  0  0  0  0  0  0
   -5.1257    0.6367    1.1825 N   0  0  0  0  0  0  0  0  0  0  0  0
   -5.3990   -0.0403    0.0536 C   0  0  0  0  0  0  0  0  0  0  0  0
   -2.1653    1.4381   -0.6193 C   0  0  2  0  0  0  0  0  0  0  0  0
   -1.2955    0.4069   -1.0127 O   0  0  0  0  0  0  0  0  0  0  0  0
   -0.2305    1.2089   -0.6112 C   0  0  2  0  0  0  0  0  0  0  0  0
    0.8881    0.4704    0.0846 C   0  0  0  0  0  0  0  0  0  0  0  0
    1.4617   -0.5082   -0.7051 O   0  0  0  0  0  0  0  0  0  0  0  0
    2.6884   -1.2459    0.1961 P   0  0  0  0  0  0  0  0  0  0  0  0
    2.9707   -0.3771    1.6416 O   0  0  0  0  0  0  0  0  0  0  0  0
    2.2646   -2.6476    0.6450 O   0  0  0  0  0  0  0  0  0  0  0  0
    4.1410   -1.3124   -0.6381 O   0  0  0  0  0  0  0  0  0  0  0  0
    4.8419    0.2259   -0.6404 P   0  0  0  0  0  0  0  0  0  0  0  0
    3.9911    1.1892   -1.7089 O   0  0  0  0  0  0  0  0  0  0  0  0
    4.7973    0.8627    0.7397 O   0  0  0  0  0  0  0  0  0  0  0  0
    6.4862    0.1290   -1.0689 O   0  0  0  0  0  0  0  0  0  0  0  0
    7.3580   -0.5740    0.2055 P   0  0  0  0  0  0  0  0  0  0  0  0
    6.2554   -1.2372    1.3190 O   0  0  0  0  0  0  0  0  0  0  0  0
    8.2799    0.6164    0.9554 O   0  0  0  0  0  0  0  0  0  0  0  0
    8.2235   -1.6598   -0.3507 O   0  0  0  0  0  0  0  0  0  0  0  0
   -1.1716    1.7944    0.4479 C   0  0  2  0  0  0  0  0  0  0  0  0
   -1.2412    0.9290    1.5226 O   0  0  0  0  0  0  0  0  0  0  0  0
   -7.4433   -1.5729    1.3536 H   0  0  0  0  0  0  0  0  0  0  0  0
   -8.5413   -0.7469    0.2194 H   0  0  0  0  0  0  0  0  0  0  0  0
   -5.3176   -1.6018   -3.3971 H   0  0  0  0  0  0  0  0  0  0  0  0
   -3.4828    1.8818    1.9017 H   0  0  0  0  0  0  0  0  0  0  0  0
   -2.3212    2.2293   -1.3660 H   0  0  0  0  0  0  0  0  0  0  0  0
    0.0618    1.9252   -1.3823 H   0  0  0  0  0  0  0  0  0  0  0  0
    0.5572    0.1043    1.0679 H   0  0  0  0  0  0  0  0  0  0  0  0
    1.6898    1.2361    0.2750 H   0  0  0  0  0  0  0  0  0  0  0  0
    2.1688   -0.5649    2.2260 H   0  0  0  0  0  0  0  0  0  0  0  0
    3.8107    0.7024   -2.5620 H   0  0  0  0  0  0  0  0  0  0  0  0
    6.2939   -0.8018    2.1875 H   0  0  0  0  0  0  0  0  0  0  0  0
    8.7921    0.1896    1.6742 H   0  0  0  0  0  0  0  0  0  0  0  0
   -1.0230    2.8510    0.6624 H   0  0  0  0  0  0  0  0  0  0  0  0
   -1.5471    0.0419    1.1637 H   0  0  0  0  0  0  0  0  0  0  0  0
  1  2  1  0
  2  3  2  0
  3  4  1  0
  4  5  2  0
  5  6  1  0
  6  7  1  0
  7  8  1  0
  8  9  2  0
  9 10  1  0
  7 11  1  0
 11 12  1  0
 12 13  1  0
 13 14  1  0
 14 15  1  0
 15 16  1  0
 16 17  1  0
 16 18  2  0
 16 19  1  0
 19 20  1  0
 20 21  1  0
 20 22  2  0
 20 23  1  0
 23 24  1  0
 24 25  1  0
 24 26  1  0
 24 27  2  0
 13 28  1  0
 28 29  1  0
 10  2  1  0
 28 11  1  0
 10  6  2  0
  1 30  1  0
  1 31  1  0
  4 32  1  0
  8 33  1  0
 11 34  1  6
 13 35  1  6
 14 36  1  0
 14 37  1  0
 17 38  1  0
 21 39  1  0
 25 40  1  0
 26 41  1  0
 28 42  1  1
 29 43  1  0
M  END
$$$$
[H]c1c([H])c([H])c(C([H])([H])[C@@]([H])(C(=O)N([H])[C@]([H])(C(=O)N([H])[C@]([H])(C(=O)N([H])[H])C([H])([H])C([H])(C([H])([H])[H])C([H])([H])[H])C([H])([H])c2c([H])c([H])c([H])c([H])c2[H])N([H])C(=O)[C@@]([H])(N([H])C(=O)[C@@]([H])(N([H])C(=O)[C@@]([H])(N([H])[H])C([H])([H])c2c([H])n([H])c3c([H])c([H])c([H])c([H])c23)C([H])([H])C([H])(C([H])([H])[H])C([H])([H])[H])C([H])([H])c2c([H])c([H])c([H])c([H])c2[H])c([H])c1[H]
     RDKit          3D

126130  0  0  0  0  0  0  0  0999 V2000
   -9.0737   -6.2446   -1.3679 C   0  0  0  0  0  0  0  0  0  0  0  0
   -8.3933   -4.9431   -1.9033 C   0  0  0  0  0  0  0  0  0  0  0  0
   -7.4736   -5.4904   -3.0188 C   0  0  0  0  0  0  0  0  0  0  0  0
   -7.5837   -4.3105   -0.8264 C   0  0  0  0  0  0  0  0  0  0  0  0
   -6.9174   -3.0430   -1.2038 C   0  0  2  0  0  0  0  0  0  0  0  0
   -6.1178   -2.5310   -0.0687 N   0  0  0  0  0  0  0  0  0  0  0  0
   -5.1454   -1.5311   -0.2484 C   0  0  0  0  0  0  0  0  0  0  0  0
   -5.0042   -1.0685   -1.4313 O   0  0  0  0  0  0  0  0  0  0  0  0
   -4.2767   -0.9636    0.7911 C   0  0  2  0  0  0  0  0  0  0  0  0
   -4.8112   -0.7955    2.1567 C   0  0  0  0  0  0  0  0  0  0  0  0
   -5.9299    0.0737    2.4151 C   0  0  0  0  0  0  0  0  0  0  0  0
   -5.6345    1.4264    2.6562 C   0  0  0  0  0  0  0  0  0  0  0  0
   -6.6160    2.3489    2.9228 C   0  0  0  0  0  0  0  0  0  0  0  0
   -7.9490    1.9567    2.9604 C   0  0  0  0  0  0  0  0  0  0  0  0
   -8.2640    0.6346    2.7268 C   0  0  0  0  0  0  0  0  0  0  0  0
   -7.2421   -0.2485    2.4648 C   0  0  0  0  0  0  0  0  0  0  0  0
   -3.6591    0.2690    0.3072 N   0  0  0  0  0  0  0  0  0  0  0  0
   -2.3789    0.7185    0.3046 C   0  0  0  0  0  0  0  0  0  0  0  0
   -1.4250    0.1074    0.7651 O   0  0  0  0  0  0  0  0  0  0  0  0
   -2.0765    2.1105   -0.3098 C   0  0  2  0  0  0  0  0  0  0  0  0
   -2.5546    2.1023   -1.6941 C   0  0  0  0  0  0  0  0  0  0  0  0
   -2.3820    3.3085   -2.5239 C   0  0  0  0  0  0  0  0  0  0  0  0
   -3.2665    4.3657   -2.2755 C   0  0  0  0  0  0  0  0  0  0  0  0
   -3.2100    5.4700   -3.0842 C   0  0  0  0  0  0  0  0  0  0  0  0
   -2.3129    5.5966   -4.1495 C   0  0  0  0  0  0  0  0  0  0  0  0
   -1.4495    4.5164   -4.3575 C   0  0  0  0  0  0  0  0  0  0  0  0
   -1.5012    3.4065   -3.5459 C   0  0  0  0  0  0  0  0  0  0  0  0
   -0.8205    2.5359    0.1007 N   0  0  0  0  0  0  0  0  0  0  0  0
    0.4967    2.2011   -0.2214 C   0  0  0  0  0  0  0  0  0  0  0  0
    0.7509    1.3732   -1.0948 O   0  0  0  0  0  0  0  0  0  0  0  0
    1.5920    2.8547    0.5368 C   0  0  2  0  0  0  0  0  0  0  0  0
    1.5927    4.3096    0.6809 C   0  0  0  0  0  0  0  0  0  0  0  0
    1.6914    5.1956   -0.4600 C   0  0  0  0  0  0  0  0  0  0  0  0
    0.7023    5.7829   -1.1793 C   0  0  0  0  0  0  0  0  0  0  0  0
    0.8928    6.6490   -2.2188 C   0  0  0  0  0  0  0  0  0  0  0  0
    2.2010    6.9500   -2.5643 C   0  0  0  0  0  0  0  0  0  0  0  0
    3.2523    6.3850   -1.8740 C   0  0  0  0  0  0  0  0  0  0  0  0
    3.0245    5.5179   -0.8342 C   0  0  0  0  0  0  0  0  0  0  0  0
    2.9119    2.3032    0.3153 N   0  0  0  0  0  0  0  0  0  0  0  0
    3.3550    1.1838    1.0641 C   0  0  0  0  0  0  0  0  0  0  0  0
    2.5294    0.6844    1.8864 O   0  0  0  0  0  0  0  0  0  0  0  0
    4.7142    0.5664    0.9508 C   0  0  2  0  0  0  0  0  0  0  0  0
    5.5731    1.2422   -0.0337 C   0  0  0  0  0  0  0  0  0  0  0  0
    6.9475    0.7542   -0.2414 C   0  0  0  0  0  0  0  0  0  0  0  0
    7.0931   -0.6479   -0.7275 C   0  0  0  0  0  0  0  0  0  0  0  0
    7.8504    1.0259    0.9629 C   0  0  0  0  0  0  0  0  0  0  0  0
    4.6917   -0.8576    0.9793 N   0  0  0  0  0  0  0  0  0  0  0  0
    4.7737   -1.6039    2.2062 C   0  0  0  0  0  0  0  0  0  0  0  0
    4.8466   -0.9663    3.2711 O   0  0  0  0  0  0  0  0  0  0  0  0
    4.7743   -3.1024    2.1627 C   0  0  1  0  0  0  0  0  0  0  0  0
    4.7603   -3.6186    0.8474 N   0  0  0  0  0  0  0  0  0  0  0  0
    5.7198   -3.7452    3.0963 C   0  0  0  0  0  0  0  0  0  0  0  0
    7.1365   -3.3440    2.9106 C   0  0  0  0  0  0  0  0  0  0  0  0
    7.7809   -2.3559    3.6985 C   0  0  0  0  0  0  0  0  0  0  0  0
    9.0372   -2.2024    3.2821 N   0  0  0  0  0  0  0  0  0  0  0  0
    9.2605   -3.0455    2.2515 C   0  0  0  0  0  0  0  0  0  0  0  0
   10.3795   -3.2976    1.4696 C   0  0  0  0  0  0  0  0  0  0  0  0
   10.3628   -4.2433    0.4582 C   0  0  0  0  0  0  0  0  0  0  0  0
    9.1823   -4.9379    0.2430 C   0  0  0  0  0  0  0  0  0  0  0  0
    8.0527   -4.7031    1.0098 C   0  0  0  0  0  0  0  0  0  0  0  0
    8.1063   -3.7568    2.0073 C   0  0  0  0  0  0  0  0  0  0  0  0
   -7.9064   -1.9969   -1.5707 C   0  0  0  0  0  0  0  0  0  0  0  0
   -8.7915   -2.1207   -2.6469 N   0  0  0  0  0  0  0  0  0  0  0  0
   -7.9884   -0.9055   -0.9057 O   0  0  0  0  0  0  0  0  0  0  0  0
  -10.0504   -6.0188   -0.9417 H   0  0  0  0  0  0  0  0  0  0  0  0
   -8.3763   -6.6999   -0.6547 H   0  0  0  0  0  0  0  0  0  0  0  0
   -9.1842   -6.9165   -2.2490 H   0  0  0  0  0  0  0  0  0  0  0  0
   -9.2253   -4.3725   -2.3043 H   0  0  0  0  0  0  0  0  0  0  0  0
   -7.1079   -6.5143   -2.6809 H   0  0  0  0  0  0  0  0  0  0  0  0
   -6.6185   -4.8218   -3.0993 H   0  0  0  0  0  0  0  0  0  0  0  0
   -8.0435   -5.6623   -3.9516 H   0  0  0  0  0  0  0  0  0  0  0  0
   -6.8257   -5.0872   -0.4853 H   0  0  0  0  0  0  0  0  0  0  0  0
   -8.3038   -4.1415    0.0366 H   0  0  0  0  0  0  0  0  0  0  0  0
   -6.2372   -3.1476   -2.0646 H   0  0  0  0  0  0  0  0  0  0  0  0
   -6.3197   -2.9581    0.8514 H   0  0  0  0  0  0  0  0  0  0  0  0
   -3.4093   -1.6818    0.9088 H   0  0  0  0  0  0  0  0  0  0  0  0
   -5.0470   -1.8358    2.5607 H   0  0  0  0  0  0  0  0  0  0  0  0
   -3.9365   -0.4624    2.8008 H   0  0  0  0  0  0  0  0  0  0  0  0
   -4.6198    1.7848    2.6374 H   0  0  0  0  0  0  0  0  0  0  0  0
   -6.4008    3.4072    3.1074 H   0  0  0  0  0  0  0  0  0  0  0  0
   -8.7459    2.6680    3.1730 H   0  0  0  0  0  0  0  0  0  0  0  0
   -9.3095    0.2869    2.7430 H   0  0  0  0  0  0  0  0  0  0  0  0
   -7.5270   -1.2767    2.2910 H   0  0  0  0  0  0  0  0  0  0  0  0
   -4.4182    0.9144   -0.1171 H   0  0  0  0  0  0  0  0  0  0  0  0
   -2.8489    2.7632    0.2543 H   0  0  0  0  0  0  0  0  0  0  0  0
   -3.6961    1.9619   -1.6572 H   0  0  0  0  0  0  0  0  0  0  0  0
   -2.2637    1.1716   -2.2660 H   0  0  0  0  0  0  0  0  0  0  0  0
   -3.9779    4.2827   -1.4438 H   0  0  0  0  0  0  0  0  0  0  0  0
   -3.8971    6.2880   -2.8828 H   0  0  0  0  0  0  0  0  0  0  0  0
   -2.2901    6.4811   -4.7696 H   0  0  0  0  0  0  0  0  0  0  0  0
   -0.7558    4.5945   -5.1729 H   0  0  0  0  0  0  0  0  0  0  0  0
   -0.8300    2.5944   -3.7295 H   0  0  0  0  0  0  0  0  0  0  0  0
   -0.8510    3.3383    0.8645 H   0  0  0  0  0  0  0  0  0  0  0  0
    1.3510    2.4643    1.6166 H   0  0  0  0  0  0  0  0  0  0  0  0
    2.4326    4.5613    1.4027 H   0  0  0  0  0  0  0  0  0  0  0  0
    0.6782    4.5807    1.3099 H   0  0  0  0  0  0  0  0  0  0  0  0
   -0.3177    5.5503   -0.9044 H   0  0  0  0  0  0  0  0  0  0  0  0
    0.0622    7.1040   -2.7815 H   0  0  0  0  0  0  0  0  0  0  0  0
    2.4123    7.6418   -3.3891 H   0  0  0  0  0  0  0  0  0  0  0  0
    4.2415    6.6682   -2.2077 H   0  0  0  0  0  0  0  0  0  0  0  0
    3.8676    5.1015   -0.3197 H   0  0  0  0  0  0  0  0  0  0  0  0
    3.5281    2.7318   -0.3794 H   0  0  0  0  0  0  0  0  0  0  0  0
    5.1613    0.8515    1.9853 H   0  0  0  0  0  0  0  0  0  0  0  0
    5.6653    2.3198    0.2966 H   0  0  0  0  0  0  0  0  0  0  0  0
    5.1025    1.3367   -1.0457 H   0  0  0  0  0  0  0  0  0  0  0  0
    7.3935    1.4113   -1.0543 H   0  0  0  0  0  0  0  0  0  0  0  0
    8.1335   -0.7733   -1.1869 H   0  0  0  0  0  0  0  0  0  0  0  0
    6.3863   -0.8115   -1.5563 H   0  0  0  0  0  0  0  0  0  0  0  0
    7.0043   -1.4217    0.0615 H   0  0  0  0  0  0  0  0  0  0  0  0
    8.7509    0.3579    0.8709 H   0  0  0  0  0  0  0  0  0  0  0  0
    8.2490    2.0595    0.9498 H   0  0  0  0  0  0  0  0  0  0  0  0
    7.3236    0.9009    1.9203 H   0  0  0  0  0  0  0  0  0  0  0  0
    4.6105   -1.4016    0.0962 H   0  0  0  0  0  0  0  0  0  0  0  0
    3.7311   -3.3721    2.5928 H   0  0  0  0  0  0  0  0  0  0  0  0
    3.9149   -3.2847    0.3125 H   0  0  0  0  0  0  0  0  0  0  0  0
    4.8307   -4.6584    0.8035 H   0  0  0  0  0  0  0  0  0  0  0  0
    5.4600   -3.4913    4.1697 H   0  0  0  0  0  0  0  0  0  0  0  0
    5.6587   -4.8688    3.0723 H   0  0  0  0  0  0  0  0  0  0  0  0
    7.3036   -1.8159    4.5099 H   0  0  0  0  0  0  0  0  0  0  0  0
    9.8010   -1.5671    3.6344 H   0  0  0  0  0  0  0  0  0  0  0  0
   11.2852   -2.7492    1.6485 H   0  0  0  0  0  0  0  0  0  0  0  0
   11.2281   -4.4201   -0.1348 H   0  0  0  0  0  0  0  0  0  0  0  0
    9.1368   -5.6678   -0.5343 H   0  0  0  0  0  0  0  0  0  0  0  0
    7.1622   -5.2609    0.8332 H   0  0  0  0  0  0  0  0  0  0  0  0
   -8.4802   -2.3318   -3.6326 H   0  0  0  0  0  0  0  0  0  0  0  0
   -9.8330   -1.9907   -2.4287 H   0  0  0  0  0  0  0  0  0  0  0  0
  1  2  1  0
  2  3  1  0
  2  4  1  0
  4  5  1  0
  5  6  1  0
  6  7  1  0
  7  8  2  0
  7  9  1  0
  9 10  1  0
 10 11  1  0
 11 12  2  0
 12 13  1  0
 13 14  2  0
 14 15  1  0
 15 16  2  0
  9 17  1  0
 17 18  1  0
 18 19  2  0
 18 20  1  0
 20 21  1  0
 21 22  1  0
 22 23  2  0
 23 24  1  0
 24 25  2  0
 25 26  1  0
 26 27  2  0
 20 28  1  0
 28 29  1  0
 29 30  2  0
 29 31  1  0
 31 32  1  0
 32 33  1  0
 33 34  2  0
 34 35  1  0
 35 36  2  0
 36 37  1  0
 37 38  2  0
 31 39  1  0
 39 40  1  0
 40 41  2  0
 40 42  1  0
 42 43  1  0
 43 44  1  0
 44 45  1  0
 44 46  1  0
 42 47  1  0
 47 48  1  0
 48 49  2  0
 48 50  1  0
 50 51  1  0
 50 52  1  0
 52 53  1  0
 53 54  2  0
 54 55  1  0
 55 56  1  0
 56 57  2  0
 57 58  1  0
 58 59  2  0
 59 60  1  0
 60 61  2  0
  5 62  1  0
 62 63  1  0
 62 64  2  0
 16 11  1  0
 27 22  1  0
 38 33  1  0
 61 53  1  0
 61 56  1  0
  1 65  1  0
  1 66  1  0
  1 67  1  0
  2 68  1  0
  3 69  1  0
  3 70  1  0
  3 71  1  0
  4 72  1  0
  4 73  1  0
  5 74  1  6
  6 75  1  0
  9 76  1  1
 10 77  1  0
 10 78  1  0
 12 79  1  0
 13 80  1  0
 14 81  1  0
 15 82  1  0
 16 83  1  0
 17 84  1  0
 20 85  1  1
 21 86  1  0
 21 87  1  0
 23 88  1  0
 24 89  1  0
 25 90  1  0
 26 91  1  0
 27 92  1  0
 28 93  1  0
 31 94  1  1
 32 95  1  0
 32 96  1  0
 34 97  1  0
 35 98  1  0
 36 99  1  0
 37100  1  0
 38101  1  0
 39102  1  0
 42103  1  1
 43104  1  0
 43105  1  0
 44106  1  0
 45107  1  0
 45108  1  0
 45109  1  0
 46110  1  0
 46111  1  0
 46112  1  0
 47113  1  0
 50114  1  1
 51115  1  0
 51116  1  0
 52117  1  0
 52118  1  0
 54119  1  0
 55120  1  0
 57121  1  0
 58122  1  0
 59123  1  0
 60124  1  0
 63125  1  0
 63126  1  0
M  END
$$$$
[H]c1nc(N([H])C(=O)c2nc(N3C([H])([H])C([H])([H])N(C(C([H])([H])[H])(C([H])([H])[H])C([H])([H])[H])C([H])([H])[C@@]3([H])C([H])([H])[H])nc(-c3c([H])c([H])c(F)c([H])c3[H])c2[H])c([H])c(C(=O)N([H])[H])c1[H]
     RDKit          3D

 66 69  0  0  0  0  0  0  0  0999 V2000
   -3.0443    1.5314    1.4320 C   0  0  0  0  0  0  0  0  0  0  0  0
   -3.2236    0.4447    0.4158 C   0  0  2  0  0  0  0  0  0  0  0  0
   -4.0963   -0.6472    1.0262 C   0  0  0  0  0  0  0  0  0  0  0  0
   -4.4848   -1.6444    0.0841 N   0  0  0  0  0  0  0  0  0  0  0  0
   -3.4919   -1.9630   -0.8945 C   0  0  0  0  0  0  0  0  0  0  0  0
   -2.1103   -1.5184   -0.5566 C   0  0  0  0  0  0  0  0  0  0  0  0
   -2.0051   -0.1940    0.0135 N   0  0  0  0  0  0  0  0  0  0  0  0
   -0.7014    0.3517    0.1067 C   0  0  0  0  0  0  0  0  0  0  0  0
    0.3853   -0.4301   -0.1098 N   0  0  0  0  0  0  0  0  0  0  0  0
    1.6507   -0.0126   -0.0543 C   0  0  0  0  0  0  0  0  0  0  0  0
    1.8443    1.3230    0.2487 C   0  0  0  0  0  0  0  0  0  0  0  0
    0.7760    2.1829    0.4825 C   0  0  0  0  0  0  0  0  0  0  0  0
   -0.4647    1.6348    0.3961 N   0  0  0  0  0  0  0  0  0  0  0  0
    0.9629    3.5932    0.7982 C   0  0  0  0  0  0  0  0  0  0  0  0
   -0.1192    4.4162    1.0066 C   0  0  0  0  0  0  0  0  0  0  0  0
    0.0321    5.7691    1.3121 C   0  0  0  0  0  0  0  0  0  0  0  0
    1.2679    6.3319    1.4166 C   0  0  0  0  0  0  0  0  0  0  0  0
    1.4300    7.6493    1.7140 F   0  0  0  0  0  0  0  0  0  0  0  0
    2.3632    5.5257    1.2118 C   0  0  0  0  0  0  0  0  0  0  0  0
    2.2014    4.1734    0.9067 C   0  0  0  0  0  0  0  0  0  0  0  0
    2.7597   -0.9271   -0.3017 C   0  0  0  0  0  0  0  0  0  0  0  0
    2.4781   -2.1155   -0.5744 O   0  0  0  0  0  0  0  0  0  0  0  0
    4.1196   -0.5405   -0.2488 N   0  0  0  0  0  0  0  0  0  0  0  0
    5.1314   -1.4934   -0.5012 C   0  0  0  0  0  0  0  0  0  0  0  0
    6.4509   -1.1263   -0.4500 C   0  0  0  0  0  0  0  0  0  0  0  0
    7.4355   -2.0670   -0.6979 C   0  0  0  0  0  0  0  0  0  0  0  0
    7.0494   -3.3595   -0.9922 C   0  0  0  0  0  0  0  0  0  0  0  0
    5.7172   -3.7139   -1.0402 C   0  0  0  0  0  0  0  0  0  0  0  0
    4.8122   -2.7547   -0.7900 N   0  0  0  0  0  0  0  0  0  0  0  0
    8.8446   -1.7035   -0.6500 C   0  0  0  0  0  0  0  0  0  0  0  0
    9.8261   -2.7186   -0.8694 N   0  0  0  0  0  0  0  0  0  0  0  0
    9.2361   -0.5368   -0.4240 O   0  0  0  0  0  0  0  0  0  0  0  0
   -5.8145   -1.4930   -0.4154 C   0  0  0  0  0  0  0  0  0  0  0  0
   -6.0600   -0.2247   -1.1818 C   0  0  0  0  0  0  0  0  0  0  0  0
   -6.7563   -1.4898    0.7793 C   0  0  0  0  0  0  0  0  0  0  0  0
   -6.2090   -2.6700   -1.2759 C   0  0  0  0  0  0  0  0  0  0  0  0
   -4.0336    1.6315    1.9584 H   0  0  0  0  0  0  0  0  0  0  0  0
   -2.8837    2.4817    0.8892 H   0  0  0  0  0  0  0  0  0  0  0  0
   -2.2650    1.3027    2.1814 H   0  0  0  0  0  0  0  0  0  0  0  0
   -3.6928    0.8315   -0.5310 H   0  0  0  0  0  0  0  0  0  0  0  0
   -5.0026   -0.2175    1.4911 H   0  0  0  0  0  0  0  0  0  0  0  0
   -3.4977   -1.1119    1.8355 H   0  0  0  0  0  0  0  0  0  0  0  0
   -3.8312   -1.5530   -1.8682 H   0  0  0  0  0  0  0  0  0  0  0  0
   -3.4748   -3.0670   -1.0086 H   0  0  0  0  0  0  0  0  0  0  0  0
   -1.5834   -2.2178    0.1207 H   0  0  0  0  0  0  0  0  0  0  0  0
   -1.5253   -1.4980   -1.5112 H   0  0  0  0  0  0  0  0  0  0  0  0
    2.8444    1.6947    0.3018 H   0  0  0  0  0  0  0  0  0  0  0  0
   -1.1030    4.0012    0.9298 H   0  0  0  0  0  0  0  0  0  0  0  0
   -0.8252    6.4072    1.4740 H   0  0  0  0  0  0  0  0  0  0  0  0
    3.3409    5.9807    1.2969 H   0  0  0  0  0  0  0  0  0  0  0  0
    3.0912    3.5976    0.7586 H   0  0  0  0  0  0  0  0  0  0  0  0
    4.3955    0.4599   -0.0204 H   0  0  0  0  0  0  0  0  0  0  0  0
    6.7936   -0.1155   -0.2210 H   0  0  0  0  0  0  0  0  0  0  0  0
    7.8006   -4.1302   -1.1937 H   0  0  0  0  0  0  0  0  0  0  0  0
    5.4832   -4.7399   -1.2763 H   0  0  0  0  0  0  0  0  0  0  0  0
   10.6018   -2.7785   -0.1720 H   0  0  0  0  0  0  0  0  0  0  0  0
    9.7197   -3.3321   -1.6943 H   0  0  0  0  0  0  0  0  0  0  0  0
   -5.3642   -0.1450   -2.0449 H   0  0  0  0  0  0  0  0  0  0  0  0
   -6.0957    0.6782   -0.5674 H   0  0  0  0  0  0  0  0  0  0  0  0
   -7.0887   -0.3340   -1.6355 H   0  0  0  0  0  0  0  0  0  0  0  0
   -7.6355   -2.1486    0.6023 H   0  0  0  0  0  0  0  0  0  0  0  0
   -7.1467   -0.4878    1.0029 H   0  0  0  0  0  0  0  0  0  0  0  0
   -6.2436   -1.8381    1.7056 H   0  0  0  0  0  0  0  0  0  0  0  0
   -5.9847   -2.4844   -2.3327 H   0  0  0  0  0  0  0  0  0  0  0  0
   -7.3033   -2.8649   -1.1899 H   0  0  0  0  0  0  0  0  0  0  0  0
   -5.6836   -3.5861   -0.9424 H   0  0  0  0  0  0  0  0  0  0  0  0
  1  2  1  0
  2  3  1  0
  3  4  1  0
  4  5  1  0
  5  6  1  0
  6  7  1  0
  7  8  1  0
  8  9  2  0
  9 10  1  0
 10 11  2  0
 11 12  1  0
 12 13  2  0
 12 14  1  0
 14 15  2  0
 15 16  1  0
 16 17  2  0
 17 18  1  0
 17 19  1  0
 19 20  2  0
 10 21  1  0
 21 22  2  0
 21 23  1  0
 23 24  1  0
 24 25  2  0
 25 26  1  0
 26 27  2  0
 27 28  1  0
 28 29  2  0
 26 30  1  0
 30 31  1  0
 30 32  2  0
  4 33  1  0
 33 34  1  0
 33 35  1  0
 33 36  1  0
  7  2  1  0
 13  8  1  0
 20 14  1  0
 29 24  1  0
  1 37  1  0
  1 38  1  0
  1 39  1  0
  2 40  1  6
  3 41  1  0
  3 42  1  0
  5 43  1  0
  5 44  1  0
  6 45  1  0
  6 46  1  0
 11 47  1  0
 15 48  1  0
 16 49  1  0
 19 50  1  0
 20 51  1  0
 23 52  1  0
 25 53  1  0
 27 54  1  0
 28 55  1  0
 31 56  1  0
 31 57  1  0
 34 58  1  0
 34 59  1  0
 34 60  1  0
 35 61  1  0
 35 62  1  0
 35 63  1  0
 36 64  1  0
 36 65  1  0
 36 66  1  0
M  END
$$$$
[H]O[C@]([H])(C([H])([H])[H])[C@@]([H])(N([H])C(=O)[C@]([H])(N([H])C(=O)C([H])([H])N([H])C(=O)c1c([H])c([H])c([H])c(C(F)(F)F)c1[H])C([H])([H])c1c([H])n([H])c2c([H])c([H])c([H])c([H])c12)C(F)(F)F
     RDKit          3D

 63 65  0  0  0  0  0  0  0  0999 V2000
   -3.8472   -5.2860   -0.8633 C   0  0  0  0  0  0  0  0  0  0  0  0
   -3.4999   -3.8495   -0.9976 C   0  0  1  0  0  0  0  0  0  0  0  0
   -3.6413   -3.4206   -2.3002 O   0  0  0  0  0  0  0  0  0  0  0  0
   -4.2225   -2.9287   -0.0012 C   0  0  1  0  0  0  0  0  0  0  0  0
   -3.5955   -1.6349   -0.1852 N   0  0  0  0  0  0  0  0  0  0  0  0
   -2.4483   -1.2205    0.5094 C   0  0  0  0  0  0  0  0  0  0  0  0
   -1.8633   -1.9133    1.3301 O   0  0  0  0  0  0  0  0  0  0  0  0
   -1.9067    0.1745    0.2087 C   0  0  1  0  0  0  0  0  0  0  0  0
   -2.8168    1.0813    0.9665 C   0  0  0  0  0  0  0  0  0  0  0  0
   -2.5387    2.5202    0.9024 C   0  0  0  0  0  0  0  0  0  0  0  0
   -1.9458    3.2249    1.9706 C   0  0  0  0  0  0  0  0  0  0  0  0
   -1.8548    4.5284    1.6362 N   0  0  0  0  0  0  0  0  0  0  0  0
   -2.3585    4.7386    0.3849 C   0  0  0  0  0  0  0  0  0  0  0  0
   -2.4748    5.8826   -0.3625 C   0  0  0  0  0  0  0  0  0  0  0  0
   -3.0381    5.7887   -1.6192 C   0  0  0  0  0  0  0  0  0  0  0  0
   -3.4639    4.5332   -2.0693 C   0  0  0  0  0  0  0  0  0  0  0  0
   -3.3352    3.4200   -1.3125 C   0  0  0  0  0  0  0  0  0  0  0  0
   -2.7736    3.4848   -0.0439 C   0  0  0  0  0  0  0  0  0  0  0  0
   -0.5397    0.1958    0.4989 N   0  0  0  0  0  0  0  0  0  0  0  0
    0.7131   -0.1475    0.2309 C   0  0  0  0  0  0  0  0  0  0  0  0
    0.9603   -0.8839   -0.8075 O   0  0  0  0  0  0  0  0  0  0  0  0
    1.8869    0.2470    1.0260 C   0  0  0  0  0  0  0  0  0  0  0  0
    3.0873   -0.3495    0.4629 N   0  0  0  0  0  0  0  0  0  0  0  0
    4.3173    0.0152    1.0950 C   0  0  0  0  0  0  0  0  0  0  0  0
    4.2688    0.8267    2.0449 O   0  0  0  0  0  0  0  0  0  0  0  0
    5.5632   -0.5567    0.6097 C   0  0  0  0  0  0  0  0  0  0  0  0
    5.7470   -1.8984    0.6576 C   0  0  0  0  0  0  0  0  0  0  0  0
    6.9724   -2.4328    0.2533 C   0  0  0  0  0  0  0  0  0  0  0  0
    7.9804   -1.6125   -0.1901 C   0  0  0  0  0  0  0  0  0  0  0  0
    7.8085   -0.2213   -0.2517 C   0  0  0  0  0  0  0  0  0  0  0  0
    6.5954    0.2817    0.1524 C   0  0  0  0  0  0  0  0  0  0  0  0
    8.9226    0.6741   -0.7261 C   0  0  0  0  0  0  0  0  0  0  0  0
    9.0572    1.6613    0.2336 F   0  0  0  0  0  0  0  0  0  0  0  0
   10.0669   -0.0895   -0.8198 F   0  0  0  0  0  0  0  0  0  0  0  0
    8.5249    1.2216   -1.9308 F   0  0  0  0  0  0  0  0  0  0  0  0
   -5.6865   -2.8854   -0.2483 C   0  0  0  0  0  0  0  0  0  0  0  0
   -5.9692   -2.4007   -1.5197 F   0  0  0  0  0  0  0  0  0  0  0  0
   -6.2604   -2.0543    0.6681 F   0  0  0  0  0  0  0  0  0  0  0  0
   -6.2392   -4.1420   -0.0506 F   0  0  0  0  0  0  0  0  0  0  0  0
   -2.8909   -5.8573   -1.0557 H   0  0  0  0  0  0  0  0  0  0  0  0
   -4.5174   -5.6326   -1.6925 H   0  0  0  0  0  0  0  0  0  0  0  0
   -4.1666   -5.6124    0.1364 H   0  0  0  0  0  0  0  0  0  0  0  0
   -2.4087   -3.7157   -0.7179 H   0  0  0  0  0  0  0  0  0  0  0  0
   -3.2343   -4.1516   -2.8619 H   0  0  0  0  0  0  0  0  0  0  0  0
   -3.9579   -3.3110    0.9958 H   0  0  0  0  0  0  0  0  0  0  0  0
   -4.0756   -1.0130   -0.8885 H   0  0  0  0  0  0  0  0  0  0  0  0
   -2.0960    0.2848   -0.9183 H   0  0  0  0  0  0  0  0  0  0  0  0
   -3.8768    0.8444    0.6238 H   0  0  0  0  0  0  0  0  0  0  0  0
   -2.8579    0.7321    2.0516 H   0  0  0  0  0  0  0  0  0  0  0  0
   -1.6291    2.7745    2.8885 H   0  0  0  0  0  0  0  0  0  0  0  0
   -1.4442    5.2763    2.2400 H   0  0  0  0  0  0  0  0  0  0  0  0
   -2.1553    6.8535   -0.0247 H   0  0  0  0  0  0  0  0  0  0  0  0
   -3.1730    6.6383   -2.2690 H   0  0  0  0  0  0  0  0  0  0  0  0
   -3.9053    4.4449   -3.0560 H   0  0  0  0  0  0  0  0  0  0  0  0
   -3.6651    2.4218   -1.6421 H   0  0  0  0  0  0  0  0  0  0  0  0
   -0.4830    0.8612    1.5121 H   0  0  0  0  0  0  0  0  0  0  0  0
    2.0039    1.3830    0.8930 H   0  0  0  0  0  0  0  0  0  0  0  0
    1.7764    0.0203    2.1131 H   0  0  0  0  0  0  0  0  0  0  0  0
    3.0992   -1.0022   -0.3322 H   0  0  0  0  0  0  0  0  0  0  0  0
    5.0146   -2.6247    0.9784 H   0  0  0  0  0  0  0  0  0  0  0  0
    7.1492   -3.5174    0.2892 H   0  0  0  0  0  0  0  0  0  0  0  0
    8.9371   -1.9891   -0.5082 H   0  0  0  0  0  0  0  0  0  0  0  0
    6.4043    1.3190    0.1288 H   0  0  0  0  0  0  0  0  0  0  0  0
  1  2  1  0
  2  3  1  0
  2  4  1  0
  4  5  1  0
  5  6  1  0
  6  7  2  0
  6  8  1  0
  8  9  1  0
  9 10  1  0
 10 11  2  0
 11 12  1  0
 12 13  1  0
 13 14  2  0
 14 15  1  0
 15 16  2  0
 16 17  1  0
 17 18  2  0
  8 19  1  0
 19 20  1  0
 20 21  2  0
 20 22  1  0
 22 23  1  0
 23 24  1  0
 24 25  2  0
 24 26  1  0
 26 27  2  0
 27 28  1  0
 28 29  2  0
 29 30  1  0
 30 31  2  0
 30 32  1  0
 32 33  1  0
 32 34  1  0
 32 35  1  0
  4 36  1  0
 36 37  1  0
 36 38  1  0
 36 39  1  0
 18 10  1  0
 31 26  1  0
 18 13  1  0
  1 40  1  0
  1 41  1  0
  1 42  1  0
  2 43  1  1
  3 44  1  0
  4 45  1  1
  5 46  1  0
  8 47  1  6
  9 48  1  0
  9 49  1  0
 11 50  1  0
 12 51  1  0
 14 52  1  0
 15 53  1  0
 16 54  1  0
 17 55  1  0
 19 56  1  0
 22 57  1  0
 22 58  1  0
 23 59  1  0
 27 60  1  0
 28 61  1  0
 29 62  1  0
 31 63  1  0
M  END
$$$$
[H]c1c([H])c([H])c(C([H])([H])[C@@]([H])(C(=O)N([H])[H])N([H])C(=O)[C@]([H])(N([H])C(=O)[C@]2([H])C([H])([H])[C@@]3([H])C([H])([H])[C@@]2([H])C([H])([H])[C@]3([H])N([H])S(=O)(=O)c2c([H])c([H])c(OC([H])([H])[H])c([H])c2[H])C([H])([H])c2c([H])c([H])c([H])c([H])c2[H])c([H])c1[H]
     RDKit          2D

 82 86  0  0  0  0  0  0  0  0999 V2000
    5.6844    8.4947    0.0000 C   0  0  0  0  0  0  0  0  0  0  0  0
    4.1926    8.6515    0.0000 O   0  0  0  0  0  0  0  0  0  0  0  0
    3.3109    7.4379    0.0000 C   0  0  0  0  0  0  0  0  0  0  0  0
    3.9210    6.0676    0.0000 C   0  0  0  0  0  0  0  0  0  0  0  0
    3.0393    4.8541    0.0000 C   0  0  0  0  0  0  0  0  0  0  0  0
    1.5475    5.0109    0.0000 C   0  0  0  0  0  0  0  0  0  0  0  0
    0.9374    6.3812    0.0000 C   0  0  0  0  0  0  0  0  0  0  0  0
    1.8191    7.5947    0.0000 C   0  0  0  0  0  0  0  0  0  0  0  0
    0.6659    3.7974    0.0000 S   0  0  0  0  0  0  0  0  0  0  0  0
    1.8794    2.9157    0.0000 O   0  0  0  0  0  0  0  0  0  0  0  0
   -0.5477    4.6790    0.0000 O   0  0  0  0  0  0  0  0  0  0  0  0
   -0.2158    2.5838    0.0000 N   0  0  0  0  0  0  0  0  0  0  0  0
    0.3943    1.2135    0.0000 C   0  0  0  0  0  0  0  0  0  0  0  0
    1.2760    0.0000    0.0000 C   0  0  0  0  0  0  0  0  0  0  0  0
    0.3943   -1.2135    0.0000 C   0  0  0  0  0  0  0  0  0  0  0  0
   -1.0323   -1.6771    0.0000 C   0  0  0  0  0  0  0  0  0  0  0  0
   -1.9140   -0.4635    0.0000 C   0  0  0  0  0  0  0  0  0  0  0  0
   -1.0323    0.7500    0.0000 C   0  0  0  0  0  0  0  0  0  0  0  0
   -1.0323   -0.7500    0.0000 C   0  0  0  0  0  0  0  0  0  0  0  0
   -0.4222   -3.0474    0.0000 C   0  0  0  0  0  0  0  0  0  0  0  0
    0.7617   -3.3207    0.0000 O   0  0  0  0  0  0  0  0  0  0  0  0
   -1.3039   -4.2609    0.0000 N   0  0  0  0  0  0  0  0  0  0  0  0
   -0.6938   -5.6312    0.0000 C   0  0  0  0  0  0  0  0  0  0  0  0
    0.6766   -5.0211    0.0000 C   0  0  0  0  0  0  0  0  0  0  0  0
    2.0469   -4.4110    0.0000 C   0  0  0  0  0  0  0  0  0  0  0  0
    2.2037   -2.9192    0.0000 C   0  0  0  0  0  0  0  0  0  0  0  0
    3.5740   -2.3091    0.0000 C   0  0  0  0  0  0  0  0  0  0  0  0
    4.7875   -3.1908    0.0000 C   0  0  0  0  0  0  0  0  0  0  0  0
    4.6307   -4.6826    0.0000 C   0  0  0  0  0  0  0  0  0  0  0  0
    3.2604   -5.2927    0.0000 C   0  0  0  0  0  0  0  0  0  0  0  0
   -2.0641   -6.2413    0.0000 C   0  0  0  0  0  0  0  0  0  0  0  0
   -2.8638   -5.4955    0.0000 O   0  0  0  0  0  0  0  0  0  0  0  0
   -2.2209   -7.7331    0.0000 N   0  0  0  0  0  0  0  0  0  0  0  0
   -3.5912   -8.3432    0.0000 C   0  0  0  0  0  0  0  0  0  0  0  0
   -2.9811   -9.7135    0.0000 C   0  0  0  0  0  0  0  0  0  0  0  0
   -2.3710  -11.0838    0.0000 C   0  0  0  0  0  0  0  0  0  0  0  0
   -0.8792  -11.2406    0.0000 C   0  0  0  0  0  0  0  0  0  0  0  0
   -0.2691  -12.6110    0.0000 C   0  0  0  0  0  0  0  0  0  0  0  0
   -1.1508  -13.8245    0.0000 C   0  0  0  0  0  0  0  0  0  0  0  0
   -2.6425  -13.6677    0.0000 C   0  0  0  0  0  0  0  0  0  0  0  0
   -3.2527  -12.2974    0.0000 C   0  0  0  0  0  0  0  0  0  0  0  0
   -4.2013   -6.9729    0.0000 C   0  0  0  0  0  0  0  0  0  0  0  0
   -5.6931   -6.8161    0.0000 N   0  0  0  0  0  0  0  0  0  0  0  0
   -3.6712   -6.0165    0.0000 O   0  0  0  0  0  0  0  0  0  0  0  0
    7.1761    8.3379    0.0000 H   0  0  0  0  0  0  0  0  0  0  0  0
    5.8412    9.9865    0.0000 H   0  0  0  0  0  0  0  0  0  0  0  0
    5.5276    7.0029    0.0000 H   0  0  0  0  0  0  0  0  0  0  0  0
    5.4128    5.9108    0.0000 H   0  0  0  0  0  0  0  0  0  0  0  0
    3.6494    3.4838    0.0000 H   0  0  0  0  0  0  0  0  0  0  0  0
   -0.5543    6.5380    0.0000 H   0  0  0  0  0  0  0  0  0  0  0  0
    1.2090    8.9651    0.0000 H   0  0  0  0  0  0  0  0  0  0  0  0
   -1.7076    2.7406    0.0000 H   0  0  0  0  0  0  0  0  0  0  0  0
    1.6933    1.9635    0.0000 H   0  0  0  0  0  0  0  0  0  0  0  0
    2.3907    1.0037    0.0000 H   0  0  0  0  0  0  0  0  0  0  0  0
    2.3907   -1.0037    0.0000 H   0  0  0  0  0  0  0  0  0  0  0  0
    0.7698   -2.3691    0.0000 H   0  0  0  0  0  0  0  0  0  0  0  0
   -2.3313   -2.4271    0.0000 H   0  0  0  0  0  0  0  0  0  0  0  0
   -3.0287   -1.4672    0.0000 H   0  0  0  0  0  0  0  0  0  0  0  0
   -3.0287    0.5402    0.0000 H   0  0  0  0  0  0  0  0  0  0  0  0
   -2.2458    1.6317    0.0000 H   0  0  0  0  0  0  0  0  0  0  0  0
   -1.3818   -1.4665    0.0000 H   0  0  0  0  0  0  0  0  0  0  0  0
   -2.5177   -0.9588    0.0000 H   0  0  0  0  0  0  0  0  0  0  0  0
   -2.7956   -4.1041    0.0000 H   0  0  0  0  0  0  0  0  0  0  0  0
   -0.0836   -7.0015    0.0000 H   0  0  0  0  0  0  0  0  0  0  0  0
    0.4162   -3.5439    0.0000 H   0  0  0  0  0  0  0  0  0  0  0  0
    1.2867   -6.3914    0.0000 H   0  0  0  0  0  0  0  0  0  0  0  0
    0.8917   -2.1920    0.0000 H   0  0  0  0  0  0  0  0  0  0  0  0
    3.7308   -0.8173    0.0000 H   0  0  0  0  0  0  0  0  0  0  0  0
    6.1578   -2.5807    0.0000 H   0  0  0  0  0  0  0  0  0  0  0  0
    5.8443   -5.5643    0.0000 H   0  0  0  0  0  0  0  0  0  0  0  0
    3.1036   -6.7845    0.0000 H   0  0  0  0  0  0  0  0  0  0  0  0
   -0.9089   -8.4603    0.0000 H   0  0  0  0  0  0  0  0  0  0  0  0
   -4.9615   -8.9533    0.0000 H   0  0  0  0  0  0  0  0  0  0  0  0
   -1.5466   -9.2750    0.0000 H   0  0  0  0  0  0  0  0  0  0  0  0
   -4.3514  -10.3236    0.0000 H   0  0  0  0  0  0  0  0  0  0  0  0
    0.0025  -10.0271    0.0000 H   0  0  0  0  0  0  0  0  0  0  0  0
    1.2227  -12.7677    0.0000 H   0  0  0  0  0  0  0  0  0  0  0  0
   -0.5407  -15.1948    0.0000 H   0  0  0  0  0  0  0  0  0  0  0  0
   -3.5242  -14.8812    0.0000 H   0  0  0  0  0  0  0  0  0  0  0  0
   -4.7444  -12.1406    0.0000 H   0  0  0  0  0  0  0  0  0  0  0  0
   -6.3032   -5.4458    0.0000 H   0  0  0  0  0  0  0  0  0  0  0  0
   -6.5747   -8.0296    0.0000 H   0  0  0  0  0  0  0  0  0  0  0  0
  1  2  1  0
  2  3  1  0
  3  4  2  0
  4  5  1  0
  5  6  2  0
  6  7  1  0
  7  8  2  0
  6  9  1  0
  9 10  2  0
  9 11  2  0
  9 12  1  0
 12 13  1  0
 13 14  1  0
 14 15  1  0
 15 16  1  0
 16 17  1  0
 17 18  1  0
 18 19  1  0
 16 20  1  0
 20 21  2  0
 20 22  1  0
 22 23  1  0
 23 24  1  0
 24 25  1  0
 25 26  2  0
 26 27  1  0
 27 28  2  0
 28 29  1  0
 29 30  2  0
 23 31  1  0
 31 32  2  0
 31 33  1  0
 33 34  1  0
 34 35  1  0
 35 36  1  0
 36 37  2  0
 37 38  1  0
 38 39  2  0
 39 40  1  0
 40 41  2  0
 34 42  1  0
 42 43  1  0
 42 44  2  0
  8  3  1  0
 18 13  1  0
 30 25  1  0
 41 36  1  0
 19 15  1  0
  1 45  1  0
  1 46  1  0
  1 47  1  0
  4 48  1  0
  5 49  1  0
  7 50  1  0
  8 51  1  0
 12 52  1  0
 13 53  1  6
 14 54  1  0
 14 55  1  0
 15 56  1  6
 16 57  1  1
 17 58  1  0
 17 59  1  0
 18 60  1  1
 19 61  1  0
 19 62  1  0
 22 63  1  0
 23 64  1  1
 24 65  1  0
 24 66  1  0
 26 67  1  0
 27 68  1  0
 28 69  1  0
 29 70  1  0
 30 71  1  0
 33 72  1  0
 34 73  1  6
 35 74  1  0
 35 75  1  0
 37 76  1  0
 38 77  1  0
 39 78  1  0
 40 79  1  0
 41 80  1  0
 43 81  1  0
 43 82  1  0
M  END
$$$$
