[H]OC([H])([H])[C@@]1(O[H])C([H])([H])[C@@]2([H])O[C@]1(C([H])([H])[H])n1c3c([H])c([H])c([H])c([H])c3c3c4c(c5c6c([H])c([H])c([H])c([H])c6n2c5c31)C(=O)N([H])C4([H])[H]
     RDKit          3D

 54 61  0  0  0  0  0  0  0  0999 V2000
    3.1800    0.8838    1.3878 C   0  0  0  0  0  0  0  0  0  0  0  0
    2.1176    0.2237    0.5774 C   0  0  2  0  0  0  0  0  0  0  0  0
    1.6968   -0.7870    1.4854 O   0  0  0  0  0  0  0  0  0  0  0  0
    1.2511   -1.8639    0.7986 C   0  0  2  0  0  0  0  0  0  0  0  0
    2.0328   -1.9517   -0.4419 C   0  0  0  0  0  0  0  0  0  0  0  0
    2.6347   -0.5714   -0.5849 C   0  0  1  0  0  0  0  0  0  0  0  0
    2.2138   -0.0799   -1.8115 O   0  0  0  0  0  0  0  0  0  0  0  0
    4.1191   -0.7109   -0.6110 C   0  0  0  0  0  0  0  0  0  0  0  0
    4.4589   -1.5975   -1.6334 O   0  0  0  0  0  0  0  0  0  0  0  0
   -0.2014   -1.7853    0.5955 N   0  0  0  0  0  0  0  0  0  0  0  0
   -1.1044   -2.7499    0.6347 C   0  0  0  0  0  0  0  0  0  0  0  0
   -0.9179   -4.0868    0.8734 C   0  0  0  0  0  0  0  0  0  0  0  0
   -2.0299   -4.9199    0.8648 C   0  0  0  0  0  0  0  0  0  0  0  0
   -3.2823   -4.4161    0.6235 C   0  0  0  0  0  0  0  0  0  0  0  0
   -3.4758   -3.0511    0.3794 C   0  0  0  0  0  0  0  0  0  0  0  0
   -2.3768   -2.2421    0.3902 C   0  0  0  0  0  0  0  0  0  0  0  0
   -2.2053   -0.8905    0.1945 C   0  0  0  0  0  0  0  0  0  0  0  0
   -3.0670    0.1511   -0.0975 C   0  0  0  0  0  0  0  0  0  0  0  0
   -4.5001    0.2660   -0.2996 C   0  0  0  0  0  0  0  0  0  0  0  0
   -5.3884   -0.5871   -0.2658 O   0  0  0  0  0  0  0  0  0  0  0  0
   -4.7851    1.6416   -0.5724 N   0  0  0  0  0  0  0  0  0  0  0  0
   -3.5735    2.4248   -0.5610 C   0  0  0  0  0  0  0  0  0  0  0  0
   -2.5314    1.4168   -0.2472 C   0  0  0  0  0  0  0  0  0  0  0  0
   -1.1701    1.6669   -0.1133 C   0  0  0  0  0  0  0  0  0  0  0  0
   -0.3770    2.7657   -0.2198 C   0  0  0  0  0  0  0  0  0  0  0  0
   -0.7006    4.0705   -0.5126 C   0  0  0  0  0  0  0  0  0  0  0  0
    0.3203    5.0230   -0.5829 C   0  0  0  0  0  0  0  0  0  0  0  0
    1.6233    4.6180   -0.3553 C   0  0  0  0  0  0  0  0  0  0  0  0
    1.9232    3.2989   -0.0625 C   0  0  0  0  0  0  0  0  0  0  0  0
    0.9354    2.3466    0.0129 C   0  0  0  0  0  0  0  0  0  0  0  0
    0.9590    1.0103    0.2643 N   0  0  0  0  0  0  0  0  0  0  0  0
   -0.3578    0.6223    0.1746 C   0  0  0  0  0  0  0  0  0  0  0  0
   -0.8544   -0.6533    0.3299 C   0  0  0  0  0  0  0  0  0  0  0  0
    4.0624    1.2462    0.8471 H   0  0  0  0  0  0  0  0  0  0  0  0
    3.5596    0.1949    2.1815 H   0  0  0  0  0  0  0  0  0  0  0  0
    2.7312    1.7230    1.9466 H   0  0  0  0  0  0  0  0  0  0  0  0
    1.4219   -2.7643    1.4120 H   0  0  0  0  0  0  0  0  0  0  0  0
    1.4720   -2.2700   -1.3403 H   0  0  0  0  0  0  0  0  0  0  0  0
    2.8377   -2.7359   -0.3258 H   0  0  0  0  0  0  0  0  0  0  0  0
    2.8799   -0.3390   -2.4928 H   0  0  0  0  0  0  0  0  0  0  0  0
    4.5238   -1.1579    0.3296 H   0  0  0  0  0  0  0  0  0  0  0  0
    4.6358    0.2581   -0.8438 H   0  0  0  0  0  0  0  0  0  0  0  0
    4.7979   -2.4633   -1.2908 H   0  0  0  0  0  0  0  0  0  0  0  0
    0.0592   -4.4684    1.0598 H   0  0  0  0  0  0  0  0  0  0  0  0
   -1.8569   -5.9719    1.0560 H   0  0  0  0  0  0  0  0  0  0  0  0
   -4.1224   -5.0759    0.6219 H   0  0  0  0  0  0  0  0  0  0  0  0
   -4.4721   -2.7398    0.2018 H   0  0  0  0  0  0  0  0  0  0  0  0
   -5.7336    2.0654   -0.7610 H   0  0  0  0  0  0  0  0  0  0  0  0
   -3.6366    3.2333    0.1993 H   0  0  0  0  0  0  0  0  0  0  0  0
   -3.3846    2.8954   -1.5673 H   0  0  0  0  0  0  0  0  0  0  0  0
   -1.7294    4.3700   -0.6881 H   0  0  0  0  0  0  0  0  0  0  0  0
    0.0587    6.0490   -0.8135 H   0  0  0  0  0  0  0  0  0  0  0  0
    2.3774    5.3965   -0.4223 H   0  0  0  0  0  0  0  0  0  0  0  0
    2.9510    3.0689    0.0761 H   0  0  0  0  0  0  0  0  0  0  0  0
  2  1  1  1
  2  3  1  0
  3  4  1  0
  4  5  1  0
  5  6  1  0
  6  7  1  6
  6  8  1  0
  8  9  1  0
  4 10  1  0
 10 11  1  0
 11 12  2  0
 12 13  1  0
 13 14  2  0
 14 15  1  0
 15 16  2  0
 16 17  1  0
 17 18  2  0
 18 19  1  0
 19 20  2  0
 19 21  1  0
 21 22  1  0
 22 23  1  0
 23 24  2  0
 24 25  1  0
 25 26  2  0
 26 27  1  0
 27 28  2  0
 28 29  1  0
 29 30  2  0
 30 31  1  0
 31 32  1  0
 32 33  2  0
  6  2  1  0
 33 10  1  0
 31  2  1  0
 16 11  1  0
 33 17  1  0
 23 18  1  0
 32 24  1  0
 30 25  1  0
  1 34  1  0
  1 35  1  0
  1 36  1  0
  4 37  1  1
  5 38  1  0
  5 39  1  0
  7 40  1  0
  8 41  1  0
  8 42  1  0
  9 43  1  0
 12 44  1  0
 13 45  1  0
 14 46  1  0
 15 47  1  0
 21 48  1  0
 22 49  1  0
 22 50  1  0
 26 51  1  0
 27 52  1  0
 28 53  1  0
 29 54  1  0
M  END
$$$$
[H]c1c([H])c([H])c2c(c1[H])c1c3c(c4c5c([H])c([H])c([H])c([H])c5n5c4c1n2[C@]1([H])O[C@]5(C([H])([H])[H])[C@@]([H])(OC([H])([H])[H])[C@]([H])(N([H])C([H])([H])[H])C1([H])[H])C([H])([H])N([H])C3=O
     RDKit          3D

 61 68  0  0  0  0  0  0  0  0999 V2000
   -5.0032    2.3015   -0.0847 C   0  0  0  0  0  0  0  0  0  0  0  0
   -4.2911    1.1206   -0.5239 N   0  0  0  0  0  0  0  0  0  0  0  0
   -3.1564    0.9314    0.3042 C   0  0  2  0  0  0  0  0  0  0  0  0
   -2.1540    2.1226    0.1663 C   0  0  0  0  0  0  0  0  0  0  0  0
   -0.9665    1.4540   -0.0205 C   0  0  1  0  0  0  0  0  0  0  0  0
   -1.1415    0.7448   -1.1981 O   0  0  0  0  0  0  0  0  0  0  0  0
   -1.4119   -0.5987   -0.7868 C   0  0  2  0  0  0  0  0  0  0  0  0
   -1.8712   -1.2254   -2.1322 C   0  0  0  0  0  0  0  0  0  0  0  0
   -2.4889   -0.4501    0.1598 C   0  0  1  0  0  0  0  0  0  0  0  0
   -2.3890   -1.1153    1.3880 O   0  0  0  0  0  0  0  0  0  0  0  0
   -3.3269   -2.1274    1.5521 C   0  0  0  0  0  0  0  0  0  0  0  0
   -0.1378   -1.2020   -0.4914 N   0  0  0  0  0  0  0  0  0  0  0  0
    0.1616   -2.5344   -0.6109 C   0  0  0  0  0  0  0  0  0  0  0  0
   -0.5901   -3.6465   -0.8619 C   0  0  0  0  0  0  0  0  0  0  0  0
    0.0056   -4.9014   -0.9123 C   0  0  0  0  0  0  0  0  0  0  0  0
    1.3589   -5.0700   -0.7130 C   0  0  0  0  0  0  0  0  0  0  0  0
    2.1437   -3.9569   -0.4556 C   0  0  0  0  0  0  0  0  0  0  0  0
    1.5172   -2.7445   -0.4151 C   0  0  0  0  0  0  0  0  0  0  0  0
    2.0596   -1.5148   -0.1645 C   0  0  0  0  0  0  0  0  0  0  0  0
    3.3310   -1.0167    0.0798 C   0  0  0  0  0  0  0  0  0  0  0  0
    4.6039   -1.7769    0.1721 C   0  0  0  0  0  0  0  0  0  0  0  0
    5.6037   -0.7850    0.4503 N   0  0  0  0  0  0  0  0  0  0  0  0
    5.0034    0.5280    0.5134 C   0  0  0  0  0  0  0  0  0  0  0  0
    5.7188    1.5160    0.7371 O   0  0  0  0  0  0  0  0  0  0  0  0
    3.6006    0.3262    0.2783 C   0  0  0  0  0  0  0  0  0  0  0  0
    2.5644    1.2461    0.2408 C   0  0  0  0  0  0  0  0  0  0  0  0
    2.4247    2.5831    0.4378 C   0  0  0  0  0  0  0  0  0  0  0  0
    3.2960    3.5951    0.7015 C   0  0  0  0  0  0  0  0  0  0  0  0
    2.7602    4.8881    0.8432 C   0  0  0  0  0  0  0  0  0  0  0  0
    1.4157    5.1498    0.7252 C   0  0  0  0  0  0  0  0  0  0  0  0
    0.5372    4.1127    0.4564 C   0  0  0  0  0  0  0  0  0  0  0  0
    1.0796    2.8483    0.3203 C   0  0  0  0  0  0  0  0  0  0  0  0
    0.4024    1.7469    0.0621 N   0  0  0  0  0  0  0  0  0  0  0  0
    1.3106    0.7318   -0.0025 C   0  0  0  0  0  0  0  0  0  0  0  0
    1.0507   -0.6266   -0.2113 C   0  0  0  0  0  0  0  0  0  0  0  0
   -4.4222    3.2206   -0.0758 H   0  0  0  0  0  0  0  0  0  0  0  0
   -5.9751    2.4312   -0.6421 H   0  0  0  0  0  0  0  0  0  0  0  0
   -5.3325    2.1331    0.9827 H   0  0  0  0  0  0  0  0  0  0  0  0
   -4.9231    0.3185   -0.4524 H   0  0  0  0  0  0  0  0  0  0  0  0
   -3.5204    0.9543    1.3717 H   0  0  0  0  0  0  0  0  0  0  0  0
   -2.2319    2.7634    1.0681 H   0  0  0  0  0  0  0  0  0  0  0  0
   -2.5549    2.7584   -0.6810 H   0  0  0  0  0  0  0  0  0  0  0  0
   -1.0177    0.7572    0.9341 H   0  0  0  0  0  0  0  0  0  0  0  0
   -2.1640   -0.4180   -2.8609 H   0  0  0  0  0  0  0  0  0  0  0  0
   -1.0623   -1.7738   -2.6232 H   0  0  0  0  0  0  0  0  0  0  0  0
   -2.8063   -1.7859   -1.9703 H   0  0  0  0  0  0  0  0  0  0  0  0
   -3.3692   -1.0206   -0.3155 H   0  0  0  0  0  0  0  0  0  0  0  0
   -4.3685   -1.7465    1.5031 H   0  0  0  0  0  0  0  0  0  0  0  0
   -3.1360   -2.7642    2.4105 H   0  0  0  0  0  0  0  0  0  0  0  0
   -3.2309   -2.7727    0.6280 H   0  0  0  0  0  0  0  0  0  0  0  0
   -1.6587   -3.5713   -1.0137 H   0  0  0  0  0  0  0  0  0  0  0  0
   -0.5879   -5.7740   -1.1105 H   0  0  0  0  0  0  0  0  0  0  0  0
    1.8233   -6.0462   -0.7522 H   0  0  0  0  0  0  0  0  0  0  0  0
    3.2016   -4.0714   -0.2980 H   0  0  0  0  0  0  0  0  0  0  0  0
    4.5688   -2.4736    1.0276 H   0  0  0  0  0  0  0  0  0  0  0  0
    4.8295   -2.3223   -0.7651 H   0  0  0  0  0  0  0  0  0  0  0  0
    6.6092   -1.0259    0.5823 H   0  0  0  0  0  0  0  0  0  0  0  0
    4.3503    3.4578    0.8021 H   0  0  0  0  0  0  0  0  0  0  0  0
    3.4660    5.6873    1.0540 H   0  0  0  0  0  0  0  0  0  0  0  0
    1.0161    6.1615    0.8387 H   0  0  0  0  0  0  0  0  0  0  0  0
   -0.5241    4.2689    0.3538 H   0  0  0  0  0  0  0  0  0  0  0  0
  1  2  1  0
  2  3  1  0
  3  4  1  0
  4  5  1  0
  5  6  1  0
  6  7  1  0
  7  8  1  6
  7  9  1  0
  9 10  1  0
 10 11  1  0
  7 12  1  0
 12 13  1  0
 13 14  2  0
 14 15  1  0
 15 16  2  0
 16 17  1  0
 17 18  2  0
 18 19  1  0
 19 20  2  0
 20 21  1  0
 21 22  1  0
 22 23  1  0
 23 24  2  0
 23 25  1  0
 25 26  2  0
 26 27  1  0
 27 28  2  0
 28 29  1  0
 29 30  2  0
 30 31  1  0
 31 32  2  0
 32 33  1  0
 33 34  1  0
 34 35  2  0
  9  3  1  0
 35 12  1  0
 33  5  1  0
 18 13  1  0
 35 19  1  0
 25 20  1  0
 34 26  1  0
 32 27  1  0
  1 36  1  0
  1 37  1  0
  1 38  1  0
  2 39  1  0
  3 40  1  1
  4 41  1  0
  4 42  1  0
  5 43  1  1
  8 44  1  0
  8 45  1  0
  8 46  1  0
  9 47  1  6
 11 48  1  0
 11 49  1  0
 11 50  1  0
 14 51  1  0
 15 52  1  0
 16 53  1  0
 17 54  1  0
 21 55  1  0
 21 56  1  0
 22 57  1  0
 28 58  1  0
 29 59  1  0
 30 60  1  0
 31 61  1  0
M  END
$$$$
[H]c1c([H])c([H])c2c(c1[H])c1c3c(c4c5c([H])c([H])c([H])c([H])c5n5c4c1n2[C@@]1([H])O[C@]5(C([H])([H])[H])[C@@]([H])(OC([H])([H])[H])[C@@]([H])(N([H])C([H])([H])[H])C1([H])[H])C([H])([H])N([H])C3=O
     RDKit          3D

 61 68  0  0  0  0  0  0  0  0999 V2000
   -2.5900    1.1246    2.6909 C   0  0  0  0  0  0  0  0  0  0  0  0
   -2.2701    0.1494    1.6691 N   0  0  0  0  0  0  0  0  0  0  0  0
   -2.7037    0.7256    0.3894 C   0  0  1  0  0  0  0  0  0  0  0  0
   -1.9693    1.9591    0.0600 C   0  0  0  0  0  0  0  0  0  0  0  0
   -1.0374    1.8542   -1.1025 C   0  0  2  0  0  0  0  0  0  0  0  0
   -1.1108    0.8211   -1.8978 O   0  0  0  0  0  0  0  0  0  0  0  0
   -1.4719   -0.4453   -1.4993 C   0  0  2  0  0  0  0  0  0  0  0  0
   -1.8587   -1.0747   -2.8537 C   0  0  0  0  0  0  0  0  0  0  0  0
   -2.6627   -0.3659   -0.6565 C   0  0  1  0  0  0  0  0  0  0  0  0
   -3.0555   -1.5061    0.0270 O   0  0  0  0  0  0  0  0  0  0  0  0
   -4.3079   -1.9695   -0.2639 C   0  0  0  0  0  0  0  0  0  0  0  0
   -0.3020   -1.1026   -0.9411 N   0  0  0  0  0  0  0  0  0  0  0  0
   -0.0368   -2.4107   -0.8661 C   0  0  0  0  0  0  0  0  0  0  0  0
   -0.7505   -3.5118   -1.2342 C   0  0  0  0  0  0  0  0  0  0  0  0
   -0.2313   -4.7829   -1.0386 C   0  0  0  0  0  0  0  0  0  0  0  0
    1.0025   -5.0019   -0.4761 C   0  0  0  0  0  0  0  0  0  0  0  0
    1.7444   -3.8826   -0.0939 C   0  0  0  0  0  0  0  0  0  0  0  0
    1.2038   -2.6348   -0.3003 C   0  0  0  0  0  0  0  0  0  0  0  0
    1.7282   -1.3877   -0.0109 C   0  0  0  0  0  0  0  0  0  0  0  0
    2.9250   -0.9637    0.5498 C   0  0  0  0  0  0  0  0  0  0  0  0
    4.0703   -1.7821    1.0519 C   0  0  0  0  0  0  0  0  0  0  0  0
    5.0490   -0.8360    1.5052 N   0  0  0  0  0  0  0  0  0  0  0  0
    4.5511    0.4878    1.3292 C   0  0  0  0  0  0  0  0  0  0  0  0
    5.2116    1.4752    1.6612 O   0  0  0  0  0  0  0  0  0  0  0  0
    3.2325    0.3685    0.7340 C   0  0  0  0  0  0  0  0  0  0  0  0
    2.2736    1.2731    0.3281 C   0  0  0  0  0  0  0  0  0  0  0  0
    2.1943    2.6494    0.3519 C   0  0  0  0  0  0  0  0  0  0  0  0
    3.0346    3.6410    0.7719 C   0  0  0  0  0  0  0  0  0  0  0  0
    2.6237    4.9672    0.6424 C   0  0  0  0  0  0  0  0  0  0  0  0
    1.4040    5.3207    0.1079 C   0  0  0  0  0  0  0  0  0  0  0  0
    0.5569    4.3176   -0.3154 C   0  0  0  0  0  0  0  0  0  0  0  0
    0.9564    3.0255   -0.1896 C   0  0  0  0  0  0  0  0  0  0  0  0
    0.3179    1.9031   -0.5262 N   0  0  0  0  0  0  0  0  0  0  0  0
    1.0813    0.8475   -0.2300 C   0  0  0  0  0  0  0  0  0  0  0  0
    0.8029   -0.4946   -0.4048 C   0  0  0  0  0  0  0  0  0  0  0  0
   -1.7275    1.7656    2.9459 H   0  0  0  0  0  0  0  0  0  0  0  0
   -3.4000    1.7830    2.2910 H   0  0  0  0  0  0  0  0  0  0  0  0
   -3.0290    0.6437    3.5924 H   0  0  0  0  0  0  0  0  0  0  0  0
   -2.7602   -0.7186    1.9035 H   0  0  0  0  0  0  0  0  0  0  0  0
   -3.7998    0.9480    0.5957 H   0  0  0  0  0  0  0  0  0  0  0  0
   -1.4594    2.3204    1.0029 H   0  0  0  0  0  0  0  0  0  0  0  0
   -2.7065    2.7776   -0.1658 H   0  0  0  0  0  0  0  0  0  0  0  0
   -1.0912    2.7965   -1.7221 H   0  0  0  0  0  0  0  0  0  0  0  0
   -2.0056   -0.3257   -3.6573 H   0  0  0  0  0  0  0  0  0  0  0  0
   -1.0068   -1.6950   -3.1940 H   0  0  0  0  0  0  0  0  0  0  0  0
   -2.8277   -1.6039   -2.8044 H   0  0  0  0  0  0  0  0  0  0  0  0
   -3.5358   -0.1252   -1.3381 H   0  0  0  0  0  0  0  0  0  0  0  0
   -4.4650   -2.8889    0.3782 H   0  0  0  0  0  0  0  0  0  0  0  0
   -4.4865   -2.3125   -1.2897 H   0  0  0  0  0  0  0  0  0  0  0  0
   -5.1216   -1.2643    0.0633 H   0  0  0  0  0  0  0  0  0  0  0  0
   -1.7208   -3.3825   -1.6725 H   0  0  0  0  0  0  0  0  0  0  0  0
   -0.8491   -5.6109   -1.3524 H   0  0  0  0  0  0  0  0  0  0  0  0
    1.4213   -5.9802   -0.3168 H   0  0  0  0  0  0  0  0  0  0  0  0
    2.7206   -4.0420    0.3513 H   0  0  0  0  0  0  0  0  0  0  0  0
    3.7648   -2.4865    1.8473 H   0  0  0  0  0  0  0  0  0  0  0  0
    4.5351   -2.3717    0.2322 H   0  0  0  0  0  0  0  0  0  0  0  0
    5.9960   -1.0989    1.9084 H   0  0  0  0  0  0  0  0  0  0  0  0
    3.9823    3.4684    1.1903 H   0  0  0  0  0  0  0  0  0  0  0  0
    3.2909    5.7541    0.9750 H   0  0  0  0  0  0  0  0  0  0  0  0
    1.0902    6.3566    0.0099 H   0  0  0  0  0  0  0  0  0  0  0  0
   -0.4140    4.5350   -0.7434 H   0  0  0  0  0  0  0  0  0  0  0  0
  1  2  1  0
  2  3  1  0
  3  4  1  0
  4  5  1  0
  5  6  1  0
  6  7  1  0
  7  8  1  6
  7  9  1  0
  9 10  1  0
 10 11  1  0
  7 12  1  0
 12 13  1  0
 13 14  2  0
 14 15  1  0
 15 16  2  0
 16 17  1  0
 17 18  2  0
 18 19  1  0
 19 20  2  0
 20 21  1  0
 21 22  1  0
 22 23  1  0
 23 24  2  0
 23 25  1  0
 25 26  2  0
 26 27  1  0
 27 28  2  0
 28 29  1  0
 29 30  2  0
 30 31  1  0
 31 32  2  0
 32 33  1  0
 33 34  1  0
 34 35  2  0
  9  3  1  0
 35 12  1  0
 33  5  1  0
 18 13  1  0
 35 19  1  0
 25 20  1  0
 34 26  1  0
 32 27  1  0
  1 36  1  0
  1 37  1  0
  1 38  1  0
  2 39  1  0
  3 40  1  1
  4 41  1  0
  4 42  1  0
  5 43  1  6
  8 44  1  0
  8 45  1  0
  8 46  1  0
  9 47  1  6
 11 48  1  0
 11 49  1  0
 11 50  1  0
 14 51  1  0
 15 52  1  0
 16 53  1  0
 17 54  1  0
 21 55  1  0
 21 56  1  0
 22 57  1  0
 28 58  1  0
 29 59  1  0
 30 60  1  0
 31 61  1  0
M  END
$$$$
[H]c1nc(N([H])c2c([H])c([H])c(N3C([H])([H])C([H])([H])C([H])(N4C([H])([H])C([H])([H])N(C([H])([H])[H])C([H])([H])C4([H])[H])C([H])([H])C3([H])[H])c([H])c2OC([H])([H])[H])nc(N([H])c2c([H])c([H])c([H])c([H])c2S(=O)(=O)C([H])(C([H])([H])[H])C([H])([H])[H])c1Cl
     RDKit          3D

 82 86  0  0  0  0  0  0  0  0999 V2000
   -0.1870    3.7228   -1.2569 C   0  0  0  0  0  0  0  0  0  0  0  0
    0.4390    2.5297   -0.8437 O   0  0  0  0  0  0  0  0  0  0  0  0
   -0.3483    1.4775   -0.4024 C   0  0  0  0  0  0  0  0  0  0  0  0
   -1.7220    1.6350   -0.3827 C   0  0  0  0  0  0  0  0  0  0  0  0
   -2.5624    0.6308    0.0436 C   0  0  0  0  0  0  0  0  0  0  0  0
   -1.9599   -0.5357    0.4478 C   0  0  0  0  0  0  0  0  0  0  0  0
   -0.5748   -0.7280    0.4408 C   0  0  0  0  0  0  0  0  0  0  0  0
    0.2576    0.2764    0.0150 C   0  0  0  0  0  0  0  0  0  0  0  0
    1.6540    0.2011   -0.0367 N   0  0  0  0  0  0  0  0  0  0  0  0
    2.4984   -0.8842    0.3177 C   0  0  0  0  0  0  0  0  0  0  0  0
    2.1033   -2.0726    0.7812 N   0  0  0  0  0  0  0  0  0  0  0  0
    2.9559   -3.0558    1.0957 C   0  0  0  0  0  0  0  0  0  0  0  0
    4.3092   -2.8632    0.9451 C   0  0  0  0  0  0  0  0  0  0  0  0
    5.4455   -4.1449    1.3534 Cl  0  0  0  0  0  0  0  0  0  0  0  0
    4.7527   -1.6166    0.4572 C   0  0  0  0  0  0  0  0  0  0  0  0
    6.1380   -1.4466    0.3110 N   0  0  0  0  0  0  0  0  0  0  0  0
    6.9009   -0.3576   -0.1368 C   0  0  0  0  0  0  0  0  0  0  0  0
    6.2766    0.8084   -0.5266 C   0  0  0  0  0  0  0  0  0  0  0  0
    7.0240    1.9039   -0.9778 C   0  0  0  0  0  0  0  0  0  0  0  0
    8.3820    1.8034   -1.0274 C   0  0  0  0  0  0  0  0  0  0  0  0
    9.0024    0.6381   -0.6374 C   0  0  0  0  0  0  0  0  0  0  0  0
    8.2961   -0.4485   -0.1920 C   0  0  0  0  0  0  0  0  0  0  0  0
    9.0842   -1.8926    0.2913 S   0  0  0  0  0  0  0  0  0  0  0  0
    8.6633   -3.0312   -0.6035 O   0  0  0  0  0  0  0  0  0  0  0  0
    8.8235   -2.3045    1.7132 O   0  0  0  0  0  0  0  0  0  0  0  0
   10.8572   -1.7881    0.1370 C   0  0  0  0  0  0  0  0  0  0  0  0
   11.2609   -1.6791   -1.2975 C   0  0  0  0  0  0  0  0  0  0  0  0
   11.4760   -0.7869    1.0544 C   0  0  0  0  0  0  0  0  0  0  0  0
    3.8248   -0.7008    0.1721 N   0  0  0  0  0  0  0  0  0  0  0  0
   -3.9818    0.8060    0.0512 N   0  0  0  0  0  0  0  0  0  0  0  0
   -4.5241    1.9609   -0.5784 C   0  0  0  0  0  0  0  0  0  0  0  0
   -6.0011    1.9283   -0.8544 C   0  0  0  0  0  0  0  0  0  0  0  0
   -6.8245    1.3726    0.2584 C   0  0  0  0  0  0  0  0  0  0  0  0
   -6.0036    0.6088    1.2781 C   0  0  0  0  0  0  0  0  0  0  0  0
   -4.8657   -0.1463    0.6796 C   0  0  0  0  0  0  0  0  0  0  0  0
   -7.9560    0.6086   -0.0875 N   0  0  0  0  0  0  0  0  0  0  0  0
   -7.7905   -0.5856   -0.8057 C   0  0  0  0  0  0  0  0  0  0  0  0
   -9.1362   -1.0235   -1.3907 C   0  0  0  0  0  0  0  0  0  0  0  0
  -10.1390   -0.8718   -0.3544 N   0  0  0  0  0  0  0  0  0  0  0  0
  -10.0361   -1.8235    0.7053 C   0  0  0  0  0  0  0  0  0  0  0  0
  -10.3349    0.4834    0.0484 C   0  0  0  0  0  0  0  0  0  0  0  0
   -9.1475    1.3193   -0.4248 C   0  0  0  0  0  0  0  0  0  0  0  0
    0.5375    4.4499   -1.6799 H   0  0  0  0  0  0  0  0  0  0  0  0
   -0.9481    3.5330   -2.0530 H   0  0  0  0  0  0  0  0  0  0  0  0
   -0.6880    4.2523   -0.4156 H   0  0  0  0  0  0  0  0  0  0  0  0
   -2.1476    2.5764   -0.7105 H   0  0  0  0  0  0  0  0  0  0  0  0
   -2.6020   -1.3517    0.7883 H   0  0  0  0  0  0  0  0  0  0  0  0
   -0.2121   -1.6859    0.7807 H   0  0  0  0  0  0  0  0  0  0  0  0
    2.1500    1.0935   -0.3956 H   0  0  0  0  0  0  0  0  0  0  0  0
    2.6174   -4.0222    1.4737 H   0  0  0  0  0  0  0  0  0  0  0  0
    6.7215   -2.3022    0.5911 H   0  0  0  0  0  0  0  0  0  0  0  0
    5.2202    0.9989   -0.5296 H   0  0  0  0  0  0  0  0  0  0  0  0
    6.5603    2.8305   -1.2896 H   0  0  0  0  0  0  0  0  0  0  0  0
    9.0220    2.6252   -1.3712 H   0  0  0  0  0  0  0  0  0  0  0  0
   10.0936    0.6299   -0.7052 H   0  0  0  0  0  0  0  0  0  0  0  0
   11.2252   -2.8031    0.4806 H   0  0  0  0  0  0  0  0  0  0  0  0
   11.9033   -0.7785   -1.4926 H   0  0  0  0  0  0  0  0  0  0  0  0
   10.3307   -1.5514   -1.9199 H   0  0  0  0  0  0  0  0  0  0  0  0
   11.7765   -2.5763   -1.6995 H   0  0  0  0  0  0  0  0  0  0  0  0
   12.0225   -1.2557    1.8769 H   0  0  0  0  0  0  0  0  0  0  0  0
   12.1781   -0.1622    0.4319 H   0  0  0  0  0  0  0  0  0  0  0  0
   10.7434   -0.0899    1.5079 H   0  0  0  0  0  0  0  0  0  0  0  0
   -4.2803    2.8410    0.0525 H   0  0  0  0  0  0  0  0  0  0  0  0
   -3.9354    2.1199   -1.5269 H   0  0  0  0  0  0  0  0  0  0  0  0
   -6.3084    2.9635   -1.1164 H   0  0  0  0  0  0  0  0  0  0  0  0
   -6.1470    1.3325   -1.7818 H   0  0  0  0  0  0  0  0  0  0  0  0
   -7.2139    2.2642    0.8421 H   0  0  0  0  0  0  0  0  0  0  0  0
   -6.6586   -0.1075    1.8153 H   0  0  0  0  0  0  0  0  0  0  0  0
   -5.5929    1.2907    2.0626 H   0  0  0  0  0  0  0  0  0  0  0  0
   -5.1731   -0.8869   -0.0780 H   0  0  0  0  0  0  0  0  0  0  0  0
   -4.3121   -0.6097    1.5260 H   0  0  0  0  0  0  0  0  0  0  0  0
   -7.5080   -1.4012   -0.0997 H   0  0  0  0  0  0  0  0  0  0  0  0
   -7.0082   -0.5774   -1.5870 H   0  0  0  0  0  0  0  0  0  0  0  0
   -9.4445   -0.3742   -2.2343 H   0  0  0  0  0  0  0  0  0  0  0  0
   -9.0261   -2.0597   -1.7202 H   0  0  0  0  0  0  0  0  0  0  0  0
   -9.1822   -2.5377    0.5321 H   0  0  0  0  0  0  0  0  0  0  0  0
   -9.9814   -1.3564    1.7041 H   0  0  0  0  0  0  0  0  0  0  0  0
  -10.9456   -2.4645    0.6802 H   0  0  0  0  0  0  0  0  0  0  0  0
  -11.2261    0.8855   -0.4545 H   0  0  0  0  0  0  0  0  0  0  0  0
  -10.4517    0.5517    1.1515 H   0  0  0  0  0  0  0  0  0  0  0  0
   -9.2778    1.5186   -1.4917 H   0  0  0  0  0  0  0  0  0  0  0  0
   -9.1611    2.2698    0.1783 H   0  0  0  0  0  0  0  0  0  0  0  0
  1  2  1  0
  2  3  1  0
  3  4  2  0
  4  5  1  0
  5  6  2  0
  6  7  1  0
  7  8  2  0
  8  9  1  0
  9 10  1  0
 10 11  2  0
 11 12  1  0
 12 13  2  0
 13 14  1  0
 13 15  1  0
 15 16  1  0
 16 17  1  0
 17 18  2  0
 18 19  1  0
 19 20  2  0
 20 21  1  0
 21 22  2  0
 22 23  1  0
 23 24  2  0
 23 25  2  0
 23 26  1  0
 26 27  1  0
 26 28  1  0
 15 29  2  0
  5 30  1  0
 30 31  1  0
 31 32  1  0
 32 33  1  0
 33 34  1  0
 34 35  1  0
 33 36  1  0
 36 37  1  0
 37 38  1  0
 38 39  1  0
 39 40  1  0
 39 41  1  0
 41 42  1  0
  8  3  1  0
 29 10  1  0
 35 30  1  0
 42 36  1  0
 22 17  1  0
  1 43  1  0
  1 44  1  0
  1 45  1  0
  4 46  1  0
  6 47  1  0
  7 48  1  0
  9 49  1  0
 12 50  1  0
 16 51  1  0
 18 52  1  0
 19 53  1  0
 20 54  1  0
 21 55  1  0
 26 56  1  0
 27 57  1  0
 27 58  1  0
 27 59  1  0
 28 60  1  0
 28 61  1  0
 28 62  1  0
 31 63  1  0
 31 64  1  0
 32 65  1  0
 32 66  1  0
 33 67  1  0
 34 68  1  0
 34 69  1  0
 35 70  1  0
 35 71  1  0
 37 72  1  0
 37 73  1  0
 38 74  1  0
 38 75  1  0
 40 76  1  0
 40 77  1  0
 40 78  1  0
 41 79  1  0
 41 80  1  0
 42 81  1  0
 42 82  1  0
M  END
$$$$
[H]c1c([H])c([H])c(/C(=C2/C(=O)N([H])c3c([H])c(C(=O)OC([H])([H])[H])c([H])c([H])c32)N([H])c2c([H])c([H])c(N(C(=O)C([H])([H])N3C([H])([H])C([H])([H])N(C([H])([H])[H])C([H])([H])C3([H])[H])C([H])([H])[H])c([H])c2[H])c([H])c1[H]
     RDKit          3D

 73 77  0  0  0  0  0  0  0  0999 V2000
   -9.6259    2.7362   -3.1505 C   0  0  0  0  0  0  0  0  0  0  0  0
   -8.5822    2.1423   -2.4234 O   0  0  0  0  0  0  0  0  0  0  0  0
   -7.8814    1.0256   -2.8716 C   0  0  0  0  0  0  0  0  0  0  0  0
   -8.1814    0.5157   -3.9683 O   0  0  0  0  0  0  0  0  0  0  0  0
   -6.8215    0.5153   -2.0123 C   0  0  0  0  0  0  0  0  0  0  0  0
   -6.4947    1.0717   -0.8140 C   0  0  0  0  0  0  0  0  0  0  0  0
   -5.4728    0.5613   -0.0049 C   0  0  0  0  0  0  0  0  0  0  0  0
   -4.7972   -0.5386   -0.4611 C   0  0  0  0  0  0  0  0  0  0  0  0
   -3.6924   -1.2784    0.1218 C   0  0  0  0  0  0  0  0  0  0  0  0
   -3.1406   -1.1461    1.2984 C   0  0  0  0  0  0  0  0  0  0  0  0
   -2.0489   -2.0001    1.6122 N   0  0  0  0  0  0  0  0  0  0  0  0
   -0.6955   -1.7404    1.2757 C   0  0  0  0  0  0  0  0  0  0  0  0
   -0.3049   -0.6232    0.5755 C   0  0  0  0  0  0  0  0  0  0  0  0
    1.0409   -0.3967    0.2619 C   0  0  0  0  0  0  0  0  0  0  0  0
    1.9996   -1.2983    0.6546 C   0  0  0  0  0  0  0  0  0  0  0  0
    1.6109   -2.4148    1.3542 C   0  0  0  0  0  0  0  0  0  0  0  0
    0.2717   -2.6400    1.6660 C   0  0  0  0  0  0  0  0  0  0  0  0
    3.3997   -1.0553    0.3267 N   0  0  0  0  0  0  0  0  0  0  0  0
    4.2743   -1.0443    1.4779 C   0  0  0  0  0  0  0  0  0  0  0  0
    3.8217   -0.9048   -0.9850 C   0  0  0  0  0  0  0  0  0  0  0  0
    2.8737   -1.1517   -1.8665 O   0  0  0  0  0  0  0  0  0  0  0  0
    5.0990   -0.5334   -1.5790 C   0  0  0  0  0  0  0  0  0  0  0  0
    6.1819   -0.1535   -0.7808 N   0  0  0  0  0  0  0  0  0  0  0  0
    6.1479    1.1188   -0.1443 C   0  0  0  0  0  0  0  0  0  0  0  0
    7.0593    2.1225   -0.8152 C   0  0  0  0  0  0  0  0  0  0  0  0
    8.4000    1.6684   -0.9414 N   0  0  0  0  0  0  0  0  0  0  0  0
    9.2089    2.3796   -1.8600 C   0  0  0  0  0  0  0  0  0  0  0  0
    8.6125    0.2731   -0.8355 C   0  0  0  0  0  0  0  0  0  0  0  0
    7.4754   -0.6243   -1.1164 C   0  0  0  0  0  0  0  0  0  0  0  0
   -3.6419   -0.3131    2.3473 C   0  0  0  0  0  0  0  0  0  0  0  0
   -3.0180    0.7830    2.8957 C   0  0  0  0  0  0  0  0  0  0  0  0
   -3.5184    1.4571    3.9801 C   0  0  0  0  0  0  0  0  0  0  0  0
   -4.6869    1.0413    4.5595 C   0  0  0  0  0  0  0  0  0  0  0  0
   -5.3502   -0.0483    4.0505 C   0  0  0  0  0  0  0  0  0  0  0  0
   -4.8397   -0.7104    2.9694 C   0  0  0  0  0  0  0  0  0  0  0  0
   -3.3759   -2.3505   -0.8690 C   0  0  0  0  0  0  0  0  0  0  0  0
   -2.4929   -3.2072   -0.7677 O   0  0  0  0  0  0  0  0  0  0  0  0
   -4.2699   -2.2220   -1.9626 N   0  0  0  0  0  0  0  0  0  0  0  0
   -5.1182   -1.1186   -1.6868 C   0  0  0  0  0  0  0  0  0  0  0  0
   -6.1305   -0.5894   -2.4585 C   0  0  0  0  0  0  0  0  0  0  0  0
   -9.4840    3.8397   -3.1260 H   0  0  0  0  0  0  0  0  0  0  0  0
  -10.6287    2.4400   -2.7994 H   0  0  0  0  0  0  0  0  0  0  0  0
   -9.5092    2.4513   -4.2231 H   0  0  0  0  0  0  0  0  0  0  0  0
   -7.0554    1.9338   -0.4979 H   0  0  0  0  0  0  0  0  0  0  0  0
   -5.2980    1.1170    0.8877 H   0  0  0  0  0  0  0  0  0  0  0  0
   -2.3225   -2.8839    2.1371 H   0  0  0  0  0  0  0  0  0  0  0  0
   -1.0852    0.0650    0.2820 H   0  0  0  0  0  0  0  0  0  0  0  0
    1.2956    0.4918   -0.2875 H   0  0  0  0  0  0  0  0  0  0  0  0
    2.3988   -3.1019    1.6458 H   0  0  0  0  0  0  0  0  0  0  0  0
   -0.0090   -3.5256    2.2172 H   0  0  0  0  0  0  0  0  0  0  0  0
    4.3098   -0.0784    2.0033 H   0  0  0  0  0  0  0  0  0  0  0  0
    5.2439   -1.4894    1.2146 H   0  0  0  0  0  0  0  0  0  0  0  0
    3.8678   -1.7578    2.2758 H   0  0  0  0  0  0  0  0  0  0  0  0
    4.9292    0.2743   -2.3603 H   0  0  0  0  0  0  0  0  0  0  0  0
    5.4335   -1.4380   -2.1821 H   0  0  0  0  0  0  0  0  0  0  0  0
    6.5430    1.0192    0.8973 H   0  0  0  0  0  0  0  0  0  0  0  0
    5.1051    1.4958   -0.1442 H   0  0  0  0  0  0  0  0  0  0  0  0
    7.0209    3.0816   -0.2641 H   0  0  0  0  0  0  0  0  0  0  0  0
    6.6418    2.3090   -1.8254 H   0  0  0  0  0  0  0  0  0  0  0  0
    9.5515    1.7468   -2.6801 H   0  0  0  0  0  0  0  0  0  0  0  0
    8.6875    3.2979   -2.1848 H   0  0  0  0  0  0  0  0  0  0  0  0
   10.1414    2.7025   -1.3095 H   0  0  0  0  0  0  0  0  0  0  0  0
    9.4640   -0.0087   -1.5031 H   0  0  0  0  0  0  0  0  0  0  0  0
    8.9967    0.0613    0.2048 H   0  0  0  0  0  0  0  0  0  0  0  0
    7.6214   -1.6038   -0.5691 H   0  0  0  0  0  0  0  0  0  0  0  0
    7.4535   -0.9472   -2.2000 H   0  0  0  0  0  0  0  0  0  0  0  0
   -2.1060    1.1196    2.4536 H   0  0  0  0  0  0  0  0  0  0  0  0
   -3.0267    2.3165    4.4077 H   0  0  0  0  0  0  0  0  0  0  0  0
   -5.1025    1.5578    5.4176 H   0  0  0  0  0  0  0  0  0  0  0  0
   -6.2843   -0.3557    4.5382 H   0  0  0  0  0  0  0  0  0  0  0  0
   -5.4043   -1.5664    2.6063 H   0  0  0  0  0  0  0  0  0  0  0  0
   -4.3057   -2.8330   -2.8311 H   0  0  0  0  0  0  0  0  0  0  0  0
   -6.3795   -1.0398   -3.4080 H   0  0  0  0  0  0  0  0  0  0  0  0
  1  2  1  0
  2  3  1  0
  3  4  2  0
  3  5  1  0
  5  6  2  0
  6  7  1  0
  7  8  2  0
  8  9  1  0
  9 10  2  0
 10 11  1  0
 11 12  1  0
 12 13  2  0
 13 14  1  0
 14 15  2  0
 15 16  1  0
 16 17  2  0
 15 18  1  0
 18 19  1  0
 18 20  1  0
 20 21  2  0
 20 22  1  0
 22 23  1  0
 23 24  1  0
 24 25  1  0
 25 26  1  0
 26 27  1  0
 26 28  1  0
 28 29  1  0
 10 30  1  0
 30 31  2  0
 31 32  1  0
 32 33  2  0
 33 34  1  0
 34 35  2  0
  9 36  1  0
 36 37  2  0
 36 38  1  0
 38 39  1  0
 39 40  2  0
 40  5  1  0
 39  8  1  0
 17 12  1  0
 29 23  1  0
 35 30  1  0
  1 41  1  0
  1 42  1  0
  1 43  1  0
  6 44  1  0
  7 45  1  0
 11 46  1  0
 13 47  1  0
 14 48  1  0
 16 49  1  0
 17 50  1  0
 19 51  1  0
 19 52  1  0
 19 53  1  0
 22 54  1  0
 22 55  1  0
 24 56  1  0
 24 57  1  0
 25 58  1  0
 25 59  1  0
 27 60  1  0
 27 61  1  0
 27 62  1  0
 28 63  1  0
 28 64  1  0
 29 65  1  0
 29 66  1  0
 31 67  1  0
 32 68  1  0
 33 69  1  0
 34 70  1  0
 35 71  1  0
 38 72  1  0
 40 73  1  0
M  END
$$$$
[H]c1c([H])c([H])c2c(c1[H])c1c3c(c4c5c([H])c([H])c([H])c([H])c5n5c4c1n2[C@]1([H])O[C@]5(C([H])([H])[H])[C@]([H])(OC([H])([H])[H])[C@@]([H])(N([H])C([H])([H])[H])C1([H])[H])C([H])([H])N([H])C3=O
     RDKit          3D

 61 68  0  0  0  0  0  0  0  0999 V2000
   -4.6729    2.4704    0.6701 C   0  0  0  0  0  0  0  0  0  0  0  0
   -3.9561    1.2431    0.7989 N   0  0  0  0  0  0  0  0  0  0  0  0
   -3.1827    0.9142   -0.3838 C   0  0  1  0  0  0  0  0  0  0  0  0
   -2.1402    2.0723   -0.5185 C   0  0  0  0  0  0  0  0  0  0  0  0
   -0.9578    1.3809   -0.4239 C   0  0  1  0  0  0  0  0  0  0  0  0
   -1.0012    0.5004   -1.5008 O   0  0  0  0  0  0  0  0  0  0  0  0
   -1.3700   -0.7676   -0.9505 C   0  0  2  0  0  0  0  0  0  0  0  0
   -1.7787   -1.5242   -2.2382 C   0  0  0  0  0  0  0  0  0  0  0  0
   -2.4988   -0.4528   -0.0976 C   0  0  2  0  0  0  0  0  0  0  0  0
   -3.5516   -1.3395   -0.4711 O   0  0  0  0  0  0  0  0  0  0  0  0
   -4.0462   -2.0650    0.5660 C   0  0  0  0  0  0  0  0  0  0  0  0
   -0.1182   -1.2988   -0.4529 N   0  0  0  0  0  0  0  0  0  0  0  0
    0.2026   -2.6147   -0.3684 C   0  0  0  0  0  0  0  0  0  0  0  0
   -0.5266   -3.7517   -0.5683 C   0  0  0  0  0  0  0  0  0  0  0  0
    0.0524   -5.0036   -0.4051 C   0  0  0  0  0  0  0  0  0  0  0  0
    1.3926   -5.1477   -0.0325 C   0  0  0  0  0  0  0  0  0  0  0  0
    2.1371   -4.0052    0.1725 C   0  0  0  0  0  0  0  0  0  0  0  0
    1.5289   -2.7803    0.0012 C   0  0  0  0  0  0  0  0  0  0  0  0
    2.0485   -1.5465    0.1558 C   0  0  0  0  0  0  0  0  0  0  0  0
    3.3025   -1.0014    0.4712 C   0  0  0  0  0  0  0  0  0  0  0  0
    4.5400   -1.7303    0.7940 C   0  0  0  0  0  0  0  0  0  0  0  0
    5.5206   -0.7063    1.0489 N   0  0  0  0  0  0  0  0  0  0  0  0
    4.9204    0.5944    0.8755 C   0  0  0  0  0  0  0  0  0  0  0  0
    5.6103    1.6121    1.0433 O   0  0  0  0  0  0  0  0  0  0  0  0
    3.5413    0.3604    0.5176 C   0  0  0  0  0  0  0  0  0  0  0  0
    2.5227    1.2647    0.2507 C   0  0  0  0  0  0  0  0  0  0  0  0
    2.3682    2.6229    0.2472 C   0  0  0  0  0  0  0  0  0  0  0  0
    3.2205    3.6549    0.4650 C   0  0  0  0  0  0  0  0  0  0  0  0
    2.7083    4.9621    0.3758 C   0  0  0  0  0  0  0  0  0  0  0  0
    1.3816    5.1770    0.0757 C   0  0  0  0  0  0  0  0  0  0  0  0
    0.5187    4.1120   -0.1455 C   0  0  0  0  0  0  0  0  0  0  0  0
    1.0401    2.8494   -0.0530 C   0  0  0  0  0  0  0  0  0  0  0  0
    0.3949    1.7020   -0.2301 N   0  0  0  0  0  0  0  0  0  0  0  0
    1.3072    0.7097   -0.0536 C   0  0  0  0  0  0  0  0  0  0  0  0
    1.0653   -0.6739   -0.1093 C   0  0  0  0  0  0  0  0  0  0  0  0
   -4.1378    3.2896    1.1811 H   0  0  0  0  0  0  0  0  0  0  0  0
   -4.9117    2.6802   -0.3866 H   0  0  0  0  0  0  0  0  0  0  0  0
   -5.6527    2.3385    1.2050 H   0  0  0  0  0  0  0  0  0  0  0  0
   -3.2976    1.2798    1.6344 H   0  0  0  0  0  0  0  0  0  0  0  0
   -3.8488    0.8666   -1.2338 H   0  0  0  0  0  0  0  0  0  0  0  0
   -2.3900    2.5503   -1.5008 H   0  0  0  0  0  0  0  0  0  0  0  0
   -2.3278    2.8494    0.2401 H   0  0  0  0  0  0  0  0  0  0  0  0
   -1.1232    0.8155    0.6063 H   0  0  0  0  0  0  0  0  0  0  0  0
   -2.0290   -0.8100   -3.0632 H   0  0  0  0  0  0  0  0  0  0  0  0
   -0.9380   -2.1222   -2.6367 H   0  0  0  0  0  0  0  0  0  0  0  0
   -2.6973   -2.1123   -2.1005 H   0  0  0  0  0  0  0  0  0  0  0  0
   -2.3910   -0.6283    0.9834 H   0  0  0  0  0  0  0  0  0  0  0  0
   -3.2245   -2.6856    1.0089 H   0  0  0  0  0  0  0  0  0  0  0  0
   -4.7508   -2.8108    0.1278 H   0  0  0  0  0  0  0  0  0  0  0  0
   -4.5876   -1.5274    1.3339 H   0  0  0  0  0  0  0  0  0  0  0  0
   -1.5381   -3.7221   -0.8394 H   0  0  0  0  0  0  0  0  0  0  0  0
   -0.5262   -5.8823   -0.5635 H   0  0  0  0  0  0  0  0  0  0  0  0
    1.8193   -6.1363    0.0880 H   0  0  0  0  0  0  0  0  0  0  0  0
    3.1750   -4.0914    0.4618 H   0  0  0  0  0  0  0  0  0  0  0  0
    4.3470   -2.2880    1.7377 H   0  0  0  0  0  0  0  0  0  0  0  0
    4.8560   -2.4302   -0.0043 H   0  0  0  0  0  0  0  0  0  0  0  0
    6.5043   -0.9356    1.3160 H   0  0  0  0  0  0  0  0  0  0  0  0
    4.2542    3.5201    0.6968 H   0  0  0  0  0  0  0  0  0  0  0  0
    3.4136    5.7638    0.5555 H   0  0  0  0  0  0  0  0  0  0  0  0
    0.9998    6.1818    0.0099 H   0  0  0  0  0  0  0  0  0  0  0  0
   -0.5210    4.2535   -0.3844 H   0  0  0  0  0  0  0  0  0  0  0  0
  1  2  1  0
  2  3  1  0
  3  4  1  0
  4  5  1  0
  5  6  1  0
  6  7  1  0
  7  8  1  6
  7  9  1  0
  9 10  1  0
 10 11  1  0
  7 12  1  0
 12 13  1  0
 13 14  2  0
 14 15  1  0
 15 16  2  0
 16 17  1  0
 17 18  2  0
 18 19  1  0
 19 20  2  0
 20 21  1  0
 21 22  1  0
 22 23  1  0
 23 24  2  0
 23 25  1  0
 25 26  2  0
 26 27  1  0
 27 28  2  0
 28 29  1  0
 29 30  2  0
 30 31  1  0
 31 32  2  0
 32 33  1  0
 33 34  1  0
 34 35  2  0
  9  3  1  0
 35 12  1  0
 33  5  1  0
 18 13  1  0
 35 19  1  0
 25 20  1  0
 34 26  1  0
 32 27  1  0
  1 36  1  0
  1 37  1  0
  1 38  1  0
  2 39  1  0
  3 40  1  6
  4 41  1  0
  4 42  1  0
  5 43  1  1
  8 44  1  0
  8 45  1  0
  8 46  1  0
  9 47  1  1
 11 48  1  0
 11 49  1  0
 11 50  1  0
 14 51  1  0
 15 52  1  0
 16 53  1  0
 17 54  1  0
 21 55  1  0
 21 56  1  0
 22 57  1  0
 28 58  1  0
 29 59  1  0
 30 60  1  0
 31 61  1  0
M  END
$$$$
[H]/C(=C1/C(=O)N([H])c2c([H])c([H])c(F)c([H])c21)c1c(C([H])([H])[H])c(C(=O)N([H])C([H])([H])C([H])([H])N(C([H])([H])C([H])([H])[H])C([H])([H])C([H])([H])[H])c(C([H])([H])[H])n1[H]
     RDKit          3D

 56 58  0  0  0  0  0  0  0  0999 V2000
   -5.0714    1.8670   -1.0108 C   0  0  0  0  0  0  0  0  0  0  0  0
   -5.3461    0.3881   -0.8275 C   0  0  0  0  0  0  0  0  0  0  0  0
   -4.6170   -0.1646    0.3206 N   0  0  0  0  0  0  0  0  0  0  0  0
   -5.1790    0.4151    1.5016 C   0  0  0  0  0  0  0  0  0  0  0  0
   -4.5345   -0.0334    2.7742 C   0  0  0  0  0  0  0  0  0  0  0  0
   -4.6501   -1.5699    0.2637 C   0  0  0  0  0  0  0  0  0  0  0  0
   -3.7757   -2.2111   -0.7540 C   0  0  0  0  0  0  0  0  0  0  0  0
   -2.3731   -2.1323   -0.6218 N   0  0  0  0  0  0  0  0  0  0  0  0
   -1.4740   -1.0577   -0.5954 C   0  0  0  0  0  0  0  0  0  0  0  0
   -1.9007    0.1569   -0.6986 O   0  0  0  0  0  0  0  0  0  0  0  0
   -0.0260   -1.1673   -0.4518 C   0  0  0  0  0  0  0  0  0  0  0  0
    0.8308   -2.2047   -0.6599 C   0  0  0  0  0  0  0  0  0  0  0  0
    0.5183   -3.5624   -1.1880 C   0  0  0  0  0  0  0  0  0  0  0  0
    2.1148   -1.8439   -0.3380 N   0  0  0  0  0  0  0  0  0  0  0  0
    2.0987   -0.5939    0.0716 C   0  0  0  0  0  0  0  0  0  0  0  0
    3.1774    0.2565    0.5004 C   0  0  0  0  0  0  0  0  0  0  0  0
    4.2152    0.5258   -0.2368 C   0  0  0  0  0  0  0  0  0  0  0  0
    4.5400    0.0878   -1.5770 C   0  0  0  0  0  0  0  0  0  0  0  0
    3.8503   -0.6552   -2.3249 O   0  0  0  0  0  0  0  0  0  0  0  0
    5.8118    0.6670   -1.9034 N   0  0  0  0  0  0  0  0  0  0  0  0
    6.2838    1.4437   -0.8228 C   0  0  0  0  0  0  0  0  0  0  0  0
    7.4169    2.1967   -0.6129 C   0  0  0  0  0  0  0  0  0  0  0  0
    7.6451    2.8791    0.5618 C   0  0  0  0  0  0  0  0  0  0  0  0
    6.7134    2.8201    1.5851 C   0  0  0  0  0  0  0  0  0  0  0  0
    6.8926    3.4732    2.7576 F   0  0  0  0  0  0  0  0  0  0  0  0
    5.5872    2.0654    1.3625 C   0  0  0  0  0  0  0  0  0  0  0  0
    5.3509    1.3770    0.1845 C   0  0  0  0  0  0  0  0  0  0  0  0
    0.7763   -0.1375    0.0139 C   0  0  0  0  0  0  0  0  0  0  0  0
    0.3086    1.2202    0.3933 C   0  0  0  0  0  0  0  0  0  0  0  0
   -5.8586    2.4508   -0.5357 H   0  0  0  0  0  0  0  0  0  0  0  0
   -4.0666    2.1489   -0.6432 H   0  0  0  0  0  0  0  0  0  0  0  0
   -5.0551    2.0620   -2.1045 H   0  0  0  0  0  0  0  0  0  0  0  0
   -5.1075   -0.2012   -1.6994 H   0  0  0  0  0  0  0  0  0  0  0  0
   -6.4302    0.2709   -0.5364 H   0  0  0  0  0  0  0  0  0  0  0  0
   -6.2797    0.2912    1.5323 H   0  0  0  0  0  0  0  0  0  0  0  0
   -5.0076    1.5283    1.4040 H   0  0  0  0  0  0  0  0  0  0  0  0
   -5.0445   -0.8560    3.2889 H   0  0  0  0  0  0  0  0  0  0  0  0
   -3.4622   -0.2647    2.6232 H   0  0  0  0  0  0  0  0  0  0  0  0
   -4.5485    0.8322    3.4886 H   0  0  0  0  0  0  0  0  0  0  0  0
   -4.4903   -2.0463    1.2893 H   0  0  0  0  0  0  0  0  0  0  0  0
   -5.7090   -1.9542    0.0302 H   0  0  0  0  0  0  0  0  0  0  0  0
   -4.1207   -3.3053   -0.7880 H   0  0  0  0  0  0  0  0  0  0  0  0
   -4.0214   -1.8378   -1.7910 H   0  0  0  0  0  0  0  0  0  0  0  0
   -1.9069   -3.1170   -0.4939 H   0  0  0  0  0  0  0  0  0  0  0  0
    1.4454   -4.0202   -1.6271 H   0  0  0  0  0  0  0  0  0  0  0  0
   -0.1980   -3.5119   -2.0293 H   0  0  0  0  0  0  0  0  0  0  0  0
    0.1816   -4.2087   -0.3617 H   0  0  0  0  0  0  0  0  0  0  0  0
    2.9340   -2.4990   -0.4118 H   0  0  0  0  0  0  0  0  0  0  0  0
    3.1447    0.7200    1.5125 H   0  0  0  0  0  0  0  0  0  0  0  0
    6.3151    0.5384   -2.8011 H   0  0  0  0  0  0  0  0  0  0  0  0
    8.1416    2.2410   -1.4148 H   0  0  0  0  0  0  0  0  0  0  0  0
    8.5539    3.4777    0.7183 H   0  0  0  0  0  0  0  0  0  0  0  0
    4.8413    2.0008    2.1446 H   0  0  0  0  0  0  0  0  0  0  0  0
    1.1157    1.7992    0.8832 H   0  0  0  0  0  0  0  0  0  0  0  0
   -0.5276    1.1531    1.1483 H   0  0  0  0  0  0  0  0  0  0  0  0
   -0.0237    1.8018   -0.4924 H   0  0  0  0  0  0  0  0  0  0  0  0
  1  2  1  0
  2  3  1  0
  3  4  1  0
  4  5  1  0
  3  6  1  0
  6  7  1  0
  7  8  1  0
  8  9  1  0
  9 10  2  0
  9 11  1  0
 11 12  2  0
 12 13  1  0
 12 14  1  0
 14 15  1  0
 15 16  1  0
 16 17  2  0
 17 18  1  0
 18 19  2  0
 18 20  1  0
 20 21  1  0
 21 22  2  0
 22 23  1  0
 23 24  2  0
 24 25  1  0
 24 26  1  0
 26 27  2  0
 15 28  2  0
 28 29  1  0
 28 11  1  0
 27 17  1  0
 27 21  1  0
  1 30  1  0
  1 31  1  0
  1 32  1  0
  2 33  1  0
  2 34  1  0
  4 35  1  0
  4 36  1  0
  5 37  1  0
  5 38  1  0
  5 39  1  0
  6 40  1  0
  6 41  1  0
  7 42  1  0
  7 43  1  0
  8 44  1  0
 13 45  1  0
 13 46  1  0
 13 47  1  0
 14 48  1  0
 16 49  1  0
 20 50  1  0
 22 51  1  0
 23 52  1  0
 26 53  1  0
 29 54  1  0
 29 55  1  0
 29 56  1  0
M  END
$$$$
[H]c1c([H])c([H])c2c(c1[H])c1c3c(c4c5c([H])c([H])c([H])c([H])c5n5c4c1n2[C@]1([H])O[C@]5(C([H])([H])[H])[C@@]([H])(OC([H])([H])[H])[C@@]([H])(N([H])C([H])([H])[H])C1([H])[H])C([H])([H])N([H])C3=O
     RDKit          3D

 61 68  0  0  0  0  0  0  0  0999 V2000
   -4.7214    2.4097    0.5983 C   0  0  0  0  0  0  0  0  0  0  0  0
   -3.9822    1.1848    0.6324 N   0  0  0  0  0  0  0  0  0  0  0  0
   -3.1808    0.9438   -0.5514 C   0  0  1  0  0  0  0  0  0  0  0  0
   -2.1287    2.1030   -0.6160 C   0  0  0  0  0  0  0  0  0  0  0  0
   -0.9471    1.4134   -0.5220 C   0  0  1  0  0  0  0  0  0  0  0  0
   -0.9638    0.5601   -1.6162 O   0  0  0  0  0  0  0  0  0  0  0  0
   -1.3378   -0.7198   -1.0906 C   0  0  2  0  0  0  0  0  0  0  0  0
   -1.6688   -1.4664   -2.4309 C   0  0  0  0  0  0  0  0  0  0  0  0
   -2.5304   -0.4438   -0.3258 C   0  0  1  0  0  0  0  0  0  0  0  0
   -2.6388   -0.8827    0.9764 O   0  0  0  0  0  0  0  0  0  0  0  0
   -3.5794   -1.8389    1.2299 C   0  0  0  0  0  0  0  0  0  0  0  0
   -0.1297   -1.2831   -0.5475 N   0  0  0  0  0  0  0  0  0  0  0  0
    0.1543   -2.6040   -0.4727 C   0  0  0  0  0  0  0  0  0  0  0  0
   -0.5674   -3.7659   -0.7148 C   0  0  0  0  0  0  0  0  0  0  0  0
    0.0003   -5.0248   -0.5414 C   0  0  0  0  0  0  0  0  0  0  0  0
    1.3049   -5.1599   -0.1206 C   0  0  0  0  0  0  0  0  0  0  0  0
    2.0493   -4.0271    0.1293 C   0  0  0  0  0  0  0  0  0  0  0  0
    1.4590   -2.8076   -0.0520 C   0  0  0  0  0  0  0  0  0  0  0  0
    1.9904   -1.5692    0.1419 C   0  0  0  0  0  0  0  0  0  0  0  0
    3.2344   -1.0437    0.5170 C   0  0  0  0  0  0  0  0  0  0  0  0
    4.4559   -1.7835    0.8800 C   0  0  0  0  0  0  0  0  0  0  0  0
    5.4345   -0.7771    1.2024 N   0  0  0  0  0  0  0  0  0  0  0  0
    4.8582    0.5339    1.0195 C   0  0  0  0  0  0  0  0  0  0  0  0
    5.5482    1.5411    1.2321 O   0  0  0  0  0  0  0  0  0  0  0  0
    3.4942    0.3130    0.5954 C   0  0  0  0  0  0  0  0  0  0  0  0
    2.4992    1.2349    0.2990 C   0  0  0  0  0  0  0  0  0  0  0  0
    2.3596    2.5925    0.3108 C   0  0  0  0  0  0  0  0  0  0  0  0
    3.2065    3.6185    0.5806 C   0  0  0  0  0  0  0  0  0  0  0  0
    2.7033    4.9291    0.4896 C   0  0  0  0  0  0  0  0  0  0  0  0
    1.3946    5.1670    0.1386 C   0  0  0  0  0  0  0  0  0  0  0  0
    0.5300    4.1103   -0.1373 C   0  0  0  0  0  0  0  0  0  0  0  0
    1.0459    2.8409   -0.0415 C   0  0  0  0  0  0  0  0  0  0  0  0
    0.3968    1.7103   -0.2639 N   0  0  0  0  0  0  0  0  0  0  0  0
    1.2898    0.7040   -0.0649 C   0  0  0  0  0  0  0  0  0  0  0  0
    1.0348   -0.6769   -0.1506 C   0  0  0  0  0  0  0  0  0  0  0  0
   -4.1718    3.2170    1.1277 H   0  0  0  0  0  0  0  0  0  0  0  0
   -4.9729    2.6635   -0.4314 H   0  0  0  0  0  0  0  0  0  0  0  0
   -5.6660    2.2404    1.1684 H   0  0  0  0  0  0  0  0  0  0  0  0
   -3.5211    0.9595    1.5171 H   0  0  0  0  0  0  0  0  0  0  0  0
   -3.8406    0.9718   -1.4128 H   0  0  0  0  0  0  0  0  0  0  0  0
   -2.3613    2.6480   -1.5550 H   0  0  0  0  0  0  0  0  0  0  0  0
   -2.3259    2.8337    0.2023 H   0  0  0  0  0  0  0  0  0  0  0  0
   -1.1567    0.8348    0.4905 H   0  0  0  0  0  0  0  0  0  0  0  0
   -1.8666   -0.7570   -3.2417 H   0  0  0  0  0  0  0  0  0  0  0  0
   -0.8467   -2.0981   -2.7423 H   0  0  0  0  0  0  0  0  0  0  0  0
   -2.6367   -1.9690   -2.2345 H   0  0  0  0  0  0  0  0  0  0  0  0
   -3.3459   -1.0936   -0.8266 H   0  0  0  0  0  0  0  0  0  0  0  0
   -3.5387   -2.0794    2.3110 H   0  0  0  0  0  0  0  0  0  0  0  0
   -3.3830   -2.8163    0.6973 H   0  0  0  0  0  0  0  0  0  0  0  0
   -4.6203   -1.5293    1.0081 H   0  0  0  0  0  0  0  0  0  0  0  0
   -1.5742   -3.6918   -1.0322 H   0  0  0  0  0  0  0  0  0  0  0  0
   -0.6332   -5.8901   -0.7533 H   0  0  0  0  0  0  0  0  0  0  0  0
    1.6909   -6.1578   -0.0050 H   0  0  0  0  0  0  0  0  0  0  0  0
    3.0778   -4.1234    0.4614 H   0  0  0  0  0  0  0  0  0  0  0  0
    4.2970   -2.4098    1.7823 H   0  0  0  0  0  0  0  0  0  0  0  0
    4.7645   -2.4091    0.0144 H   0  0  0  0  0  0  0  0  0  0  0  0
    6.4012   -1.0207    1.5162 H   0  0  0  0  0  0  0  0  0  0  0  0
    4.2259    3.4694    0.8539 H   0  0  0  0  0  0  0  0  0  0  0  0
    3.4090    5.7212    0.7122 H   0  0  0  0  0  0  0  0  0  0  0  0
    1.0230    6.1798    0.0722 H   0  0  0  0  0  0  0  0  0  0  0  0
   -0.4958    4.2706   -0.4133 H   0  0  0  0  0  0  0  0  0  0  0  0
  1  2  1  0
  2  3  1  0
  3  4  1  0
  4  5  1  0
  5  6  1  0
  6  7  1  0
  7  8  1  6
  7  9  1  0
  9 10  1  0
 10 11  1  0
  7 12  1  0
 12 13  1  0
 13 14  2  0
 14 15  1  0
 15 16  2  0
 16 17  1  0
 17 18  2  0
 18 19  1  0
 19 20  2  0
 20 21  1  0
 21 22  1  0
 22 23  1  0
 23 24  2  0
 23 25  1  0
 25 26  2  0
 26 27  1  0
 27 28  2  0
 28 29  1  0
 29 30  2  0
 30 31  1  0
 31 32  2  0
 32 33  1  0
 33 34  1  0
 34 35  2  0
  9  3  1  0
 35 12  1  0
 33  5  1  0
 18 13  1  0
 35 19  1  0
 25 20  1  0
 34 26  1  0
 32 27  1  0
  1 36  1  0
  1 37  1  0
  1 38  1  0
  2 39  1  0
  3 40  1  6
  4 41  1  0
  4 42  1  0
  5 43  1  1
  8 44  1  0
  8 45  1  0
  8 46  1  0
  9 47  1  6
 11 48  1  0
 11 49  1  0
 11 50  1  0
 14 51  1  0
 15 52  1  0
 16 53  1  0
 17 54  1  0
 21 55  1  0
 21 56  1  0
 22 57  1  0
 28 58  1  0
 29 59  1  0
 30 60  1  0
 31 61  1  0
M  END
$$$$
[H]c1nc(Oc2c([H])c([H])c(N([H])C(=O)N([H])c3c([H])c([H])c(C([H])([H])N4C([H])([H])C([H])([H])N(C([H])([H])C([H])([H])[H])C([H])([H])C4([H])[H])c(C(F)(F)F)c3[H])c([H])c2[H])c([H])c(N([H])C([H])([H])[H])n1
     RDKit          3D

 68 71  0  0  0  0  0  0  0  0999 V2000
  -10.2990   -0.3201   -0.2443 C   0  0  0  0  0  0  0  0  0  0  0  0
   -9.0487    0.5002   -0.4280 C   0  0  0  0  0  0  0  0  0  0  0  0
   -8.1793   -0.0359   -1.4572 N   0  0  0  0  0  0  0  0  0  0  0  0
   -7.0305    0.8062   -1.5517 C   0  0  0  0  0  0  0  0  0  0  0  0
   -5.7154    0.1130   -1.2911 C   0  0  0  0  0  0  0  0  0  0  0  0
   -5.7379   -0.8228   -0.2229 N   0  0  0  0  0  0  0  0  0  0  0  0
   -5.1553   -0.4373    1.0060 C   0  0  0  0  0  0  0  0  0  0  0  0
   -3.7153   -0.2169    1.0542 C   0  0  0  0  0  0  0  0  0  0  0  0
   -2.9459   -0.4458   -0.0457 C   0  0  0  0  0  0  0  0  0  0  0  0
   -1.5554   -0.2549    0.0222 C   0  0  0  0  0  0  0  0  0  0  0  0
   -0.9188    0.1543    1.1522 C   0  0  0  0  0  0  0  0  0  0  0  0
    0.4451    0.3547    1.3623 N   0  0  0  0  0  0  0  0  0  0  0  0
    1.4499   -0.2261    0.5465 C   0  0  0  0  0  0  0  0  0  0  0  0
    1.1958   -0.9699   -0.4220 O   0  0  0  0  0  0  0  0  0  0  0  0
    2.8063    0.0526    0.8476 N   0  0  0  0  0  0  0  0  0  0  0  0
    3.8841   -0.4730    0.1219 C   0  0  0  0  0  0  0  0  0  0  0  0
    5.0696    0.2695    0.1595 C   0  0  0  0  0  0  0  0  0  0  0  0
    6.1724   -0.1959   -0.5017 C   0  0  0  0  0  0  0  0  0  0  0  0
    6.1984   -1.3743   -1.2203 C   0  0  0  0  0  0  0  0  0  0  0  0
    7.3559   -1.8175   -1.8874 O   0  0  0  0  0  0  0  0  0  0  0  0
    8.4788   -0.9936   -1.7796 C   0  0  0  0  0  0  0  0  0  0  0  0
    9.3306   -1.0781   -0.6992 C   0  0  0  0  0  0  0  0  0  0  0  0
   10.4383   -0.2312   -0.6411 C   0  0  0  0  0  0  0  0  0  0  0  0
   11.3426   -0.2777    0.4449 N   0  0  0  0  0  0  0  0  0  0  0  0
   12.4721    0.6190    0.4560 C   0  0  0  0  0  0  0  0  0  0  0  0
   10.6148    0.6290   -1.6528 N   0  0  0  0  0  0  0  0  0  0  0  0
    9.7904    0.7181   -2.7086 C   0  0  0  0  0  0  0  0  0  0  0  0
    8.7293   -0.1014   -2.7527 N   0  0  0  0  0  0  0  0  0  0  0  0
    5.0337   -2.0940   -1.2508 C   0  0  0  0  0  0  0  0  0  0  0  0
    3.8935   -1.6380   -0.5818 C   0  0  0  0  0  0  0  0  0  0  0  0
   -1.7503    0.3770    2.2572 C   0  0  0  0  0  0  0  0  0  0  0  0
   -3.1090    0.2069    2.2445 C   0  0  0  0  0  0  0  0  0  0  0  0
   -3.9076    0.4692    3.4596 C   0  0  0  0  0  0  0  0  0  0  0  0
   -3.0267    0.8724    4.4765 F   0  0  0  0  0  0  0  0  0  0  0  0
   -4.5531   -0.6222    3.9660 F   0  0  0  0  0  0  0  0  0  0  0  0
   -4.7451    1.5847    3.3219 F   0  0  0  0  0  0  0  0  0  0  0  0
   -6.9874   -1.4884    0.0062 C   0  0  0  0  0  0  0  0  0  0  0  0
   -7.8513   -1.4181   -1.2341 C   0  0  0  0  0  0  0  0  0  0  0  0
  -10.0056   -1.2236    0.3376 H   0  0  0  0  0  0  0  0  0  0  0  0
  -11.0156    0.2828    0.3494 H   0  0  0  0  0  0  0  0  0  0  0  0
  -10.7451   -0.5533   -1.2099 H   0  0  0  0  0  0  0  0  0  0  0  0
   -9.3902    1.5064   -0.7967 H   0  0  0  0  0  0  0  0  0  0  0  0
   -8.5282    0.6942    0.5188 H   0  0  0  0  0  0  0  0  0  0  0  0
   -6.9427    1.2787   -2.5729 H   0  0  0  0  0  0  0  0  0  0  0  0
   -7.0852    1.6803   -0.8419 H   0  0  0  0  0  0  0  0  0  0  0  0
   -5.3787   -0.3639   -2.2424 H   0  0  0  0  0  0  0  0  0  0  0  0
   -4.9782    0.9378   -1.0987 H   0  0  0  0  0  0  0  0  0  0  0  0
   -5.3596   -1.2873    1.7313 H   0  0  0  0  0  0  0  0  0  0  0  0
   -5.7610    0.3966    1.4141 H   0  0  0  0  0  0  0  0  0  0  0  0
   -3.3300   -0.7898   -1.0118 H   0  0  0  0  0  0  0  0  0  0  0  0
   -0.9627   -0.4277   -0.8741 H   0  0  0  0  0  0  0  0  0  0  0  0
    0.7597    0.9698    2.1611 H   0  0  0  0  0  0  0  0  0  0  0  0
    3.0013    0.6928    1.6707 H   0  0  0  0  0  0  0  0  0  0  0  0
    5.0877    1.2125    0.7209 H   0  0  0  0  0  0  0  0  0  0  0  0
    7.0847    0.3965   -0.4601 H   0  0  0  0  0  0  0  0  0  0  0  0
    9.1416   -1.7902    0.0899 H   0  0  0  0  0  0  0  0  0  0  0  0
   11.2010   -0.9471    1.2284 H   0  0  0  0  0  0  0  0  0  0  0  0
   12.6067    1.1140   -0.5277 H   0  0  0  0  0  0  0  0  0  0  0  0
   13.4237    0.0623    0.6491 H   0  0  0  0  0  0  0  0  0  0  0  0
   12.3043    1.3858    1.2464 H   0  0  0  0  0  0  0  0  0  0  0  0
    9.9776    1.4417   -3.5159 H   0  0  0  0  0  0  0  0  0  0  0  0
    5.0003   -3.0327   -1.8043 H   0  0  0  0  0  0  0  0  0  0  0  0
    3.0130   -2.2945   -0.6480 H   0  0  0  0  0  0  0  0  0  0  0  0
   -1.3081    0.7006    3.1773 H   0  0  0  0  0  0  0  0  0  0  0  0
   -7.5417   -1.0573    0.8567 H   0  0  0  0  0  0  0  0  0  0  0  0
   -6.7530   -2.5420    0.2777 H   0  0  0  0  0  0  0  0  0  0  0  0
   -7.2335   -1.7544   -2.0856 H   0  0  0  0  0  0  0  0  0  0  0  0
   -8.7522   -2.0077   -1.0717 H   0  0  0  0  0  0  0  0  0  0  0  0
  1  2  1  0
  2  3  1  0
  3  4  1  0
  4  5  1  0
  5  6  1  0
  6  7  1  0
  7  8  1  0
  8  9  2  0
  9 10  1  0
 10 11  2  0
 11 12  1  0
 12 13  1  0
 13 14  2  0
 13 15  1  0
 15 16  1  0
 16 17  2  0
 17 18  1  0
 18 19  2  0
 19 20  1  0
 20 21  1  0
 21 22  2  0
 22 23  1  0
 23 24  1  0
 24 25  1  0
 23 26  2  0
 26 27  1  0
 27 28  2  0
 19 29  1  0
 29 30  2  0
 11 31  1  0
 31 32  2  0
 32 33  1  0
 33 34  1  0
 33 35  1  0
 33 36  1  0
  6 37  1  0
 37 38  1  0
 38  3  1  0
 32  8  1  0
 30 16  1  0
 28 21  1  0
  1 39  1  0
  1 40  1  0
  1 41  1  0
  2 42  1  0
  2 43  1  0
  4 44  1  0
  4 45  1  0
  5 46  1  0
  5 47  1  0
  7 48  1  0
  7 49  1  0
  9 50  1  0
 10 51  1  0
 12 52  1  0
 15 53  1  0
 17 54  1  0
 18 55  1  0
 22 56  1  0
 24 57  1  0
 25 58  1  0
 25 59  1  0
 25 60  1  0
 27 61  1  0
 29 62  1  0
 30 63  1  0
 31 64  1  0
 37 65  1  0
 37 66  1  0
 38 67  1  0
 38 68  1  0
M  END
$$$$
[H]O[C@@]([H])(C([H])([H])N([H])C(=O)c1c(C([H])([H])[H])c(/C([H])=C2\C(=O)N([H])c3c([H])c([H])c(F)c([H])c32)n([H])c1C([H])([H])[H])C([H])([H])N1C([H])([H])C([H])([H])OC([H])([H])C1([H])[H]
     RDKit          3D

 59 62  0  0  0  0  0  0  0  0999 V2000
    0.5434    1.8709   -1.4311 C   0  0  0  0  0  0  0  0  0  0  0  0
   -0.4427    0.9570   -0.7965 C   0  0  0  0  0  0  0  0  0  0  0  0
   -1.7020    1.3372   -0.3875 N   0  0  0  0  0  0  0  0  0  0  0  0
   -2.3133    0.3080    0.1594 C   0  0  0  0  0  0  0  0  0  0  0  0
   -3.6480    0.2411    0.7055 C   0  0  0  0  0  0  0  0  0  0  0  0
   -4.7607    0.5357    0.0615 C   0  0  0  0  0  0  0  0  0  0  0  0
   -4.8813    0.9776   -1.3199 C   0  0  0  0  0  0  0  0  0  0  0  0
   -3.9652    1.1413   -2.1757 O   0  0  0  0  0  0  0  0  0  0  0  0
   -6.2822    1.1939   -1.5277 N   0  0  0  0  0  0  0  0  0  0  0  0
   -7.0185    0.9059   -0.3463 C   0  0  0  0  0  0  0  0  0  0  0  0
   -8.3804    0.9570   -0.0375 C   0  0  0  0  0  0  0  0  0  0  0  0
   -8.8185    0.6128    1.2203 C   0  0  0  0  0  0  0  0  0  0  0  0
   -7.9450    0.2111    2.2067 C   0  0  0  0  0  0  0  0  0  0  0  0
   -8.3926   -0.1282    3.4510 F   0  0  0  0  0  0  0  0  0  0  0  0
   -6.6088    0.1700    1.8745 C   0  0  0  0  0  0  0  0  0  0  0  0
   -6.1273    0.5074    0.6247 C   0  0  0  0  0  0  0  0  0  0  0  0
   -1.4539   -0.7490    0.1101 C   0  0  0  0  0  0  0  0  0  0  0  0
   -1.7160   -2.1333    0.6175 C   0  0  0  0  0  0  0  0  0  0  0  0
   -0.2276   -0.3619   -0.5071 C   0  0  0  0  0  0  0  0  0  0  0  0
    0.8684   -1.2679   -0.7407 C   0  0  0  0  0  0  0  0  0  0  0  0
    0.8415   -2.3820   -0.1194 O   0  0  0  0  0  0  0  0  0  0  0  0
    1.9546   -1.0550   -1.5785 N   0  0  0  0  0  0  0  0  0  0  0  0
    3.0570   -1.9381   -1.8104 C   0  0  0  0  0  0  0  0  0  0  0  0
    3.9689   -2.3180   -0.7358 C   0  0  2  0  0  0  0  0  0  0  0  0
    3.4757   -2.9311    0.3958 O   0  0  0  0  0  0  0  0  0  0  0  0
    5.1734   -1.5126   -0.4315 C   0  0  0  0  0  0  0  0  0  0  0  0
    5.0802   -0.4764    0.5535 N   0  0  0  0  0  0  0  0  0  0  0  0
    6.4545   -0.0090    0.7838 C   0  0  0  0  0  0  0  0  0  0  0  0
    6.5092    1.1618    1.6985 C   0  0  0  0  0  0  0  0  0  0  0  0
    5.2437    1.7672    1.8516 O   0  0  0  0  0  0  0  0  0  0  0  0
    4.7890    1.9593    0.5478 C   0  0  0  0  0  0  0  0  0  0  0  0
    4.2723    0.6120    0.0523 C   0  0  0  0  0  0  0  0  0  0  0  0
    0.6208    1.7579   -2.5114 H   0  0  0  0  0  0  0  0  0  0  0  0
    1.5339    1.8130   -0.9175 H   0  0  0  0  0  0  0  0  0  0  0  0
    0.1820    2.9283   -1.2325 H   0  0  0  0  0  0  0  0  0  0  0  0
   -2.0481    2.3309   -0.5171 H   0  0  0  0  0  0  0  0  0  0  0  0
   -3.8121   -0.0819    1.7595 H   0  0  0  0  0  0  0  0  0  0  0  0
   -6.6783    1.5177   -2.4309 H   0  0  0  0  0  0  0  0  0  0  0  0
   -9.0579    1.2661   -0.7945 H   0  0  0  0  0  0  0  0  0  0  0  0
   -9.8799    0.6411    1.4979 H   0  0  0  0  0  0  0  0  0  0  0  0
   -5.8716   -0.1358    2.5994 H   0  0  0  0  0  0  0  0  0  0  0  0
   -2.7998   -2.2109    0.8768 H   0  0  0  0  0  0  0  0  0  0  0  0
   -1.5684   -2.9046   -0.1895 H   0  0  0  0  0  0  0  0  0  0  0  0
   -1.1456   -2.3493    1.5271 H   0  0  0  0  0  0  0  0  0  0  0  0
    1.9329   -0.1227   -2.1140 H   0  0  0  0  0  0  0  0  0  0  0  0
    3.7030   -1.4496   -2.6197 H   0  0  0  0  0  0  0  0  0  0  0  0
    2.6802   -2.8543   -2.3936 H   0  0  0  0  0  0  0  0  0  0  0  0
    4.4993   -3.2973   -1.2347 H   0  0  0  0  0  0  0  0  0  0  0  0
    3.5028   -2.2677    1.1293 H   0  0  0  0  0  0  0  0  0  0  0  0
    5.5638   -1.0571   -1.4030 H   0  0  0  0  0  0  0  0  0  0  0  0
    6.0509   -2.1641   -0.1280 H   0  0  0  0  0  0  0  0  0  0  0  0
    6.9472    0.1397   -0.1746 H   0  0  0  0  0  0  0  0  0  0  0  0
    6.9517   -0.8720    1.2990 H   0  0  0  0  0  0  0  0  0  0  0  0
    6.9905    0.9784    2.6724 H   0  0  0  0  0  0  0  0  0  0  0  0
    7.1373    1.9603    1.2073 H   0  0  0  0  0  0  0  0  0  0  0  0
    5.5465    2.3883   -0.1148 H   0  0  0  0  0  0  0  0  0  0  0  0
    3.9366    2.6683    0.5646 H   0  0  0  0  0  0  0  0  0  0  0  0
    3.2700    0.5184    0.5051 H   0  0  0  0  0  0  0  0  0  0  0  0
    4.2644    0.6939   -1.0422 H   0  0  0  0  0  0  0  0  0  0  0  0
  1  2  1  0
  2  3  1  0
  3  4  1  0
  4  5  1  0
  5  6  2  0
  6  7  1  0
  7  8  2  0
  7  9  1  0
  9 10  1  0
 10 11  2  0
 11 12  1  0
 12 13  2  0
 13 14  1  0
 13 15  1  0
 15 16  2  0
  4 17  2  0
 17 18  1  0
 17 19  1  0
 19 20  1  0
 20 21  2  0
 20 22  1  0
 22 23  1  0
 23 24  1  0
 24 25  1  0
 24 26  1  0
 26 27  1  0
 27 28  1  0
 28 29  1  0
 29 30  1  0
 30 31  1  0
 31 32  1  0
 19  2  2  0
 32 27  1  0
 16  6  1  0
 16 10  1  0
  1 33  1  0
  1 34  1  0
  1 35  1  0
  3 36  1  0
  5 37  1  0
  9 38  1  0
 11 39  1  0
 12 40  1  0
 15 41  1  0
 18 42  1  0
 18 43  1  0
 18 44  1  0
 22 45  1  0
 23 46  1  0
 23 47  1  0
 24 48  1  6
 25 49  1  0
 26 50  1  0
 26 51  1  0
 28 52  1  0
 28 53  1  0
 29 54  1  0
 29 55  1  0
 31 56  1  0
 31 57  1  0
 32 58  1  0
 32 59  1  0
M  END
$$$$
[H]c1nc2c([H])c(OC([H])([H])C([H])([H])C([H])([H])N3C([H])([H])C([H])([H])N(C([H])([H])[H])C([H])([H])C3([H])[H])c(OC([H])([H])[H])c([H])c2c(N([H])c2c([H])c(OC([H])([H])[H])c(Cl)c([H])c2Cl)c1C#N
     RDKit          3D

 65 68  0  0  0  0  0  0  0  0999 V2000
   -5.2946    0.1799   -2.9709 C   0  0  0  0  0  0  0  0  0  0  0  0
   -6.0951   -0.9158   -2.5530 O   0  0  0  0  0  0  0  0  0  0  0  0
   -6.1608   -1.1576   -1.1778 C   0  0  0  0  0  0  0  0  0  0  0  0
   -5.4971   -0.3938   -0.2509 C   0  0  0  0  0  0  0  0  0  0  0  0
   -5.5371   -0.6002    1.1107 C   0  0  0  0  0  0  0  0  0  0  0  0
   -4.8166    0.2382    2.0340 N   0  0  0  0  0  0  0  0  0  0  0  0
   -4.0248    1.3195    1.6049 C   0  0  0  0  0  0  0  0  0  0  0  0
   -4.6352    2.5531    1.4917 C   0  0  0  0  0  0  0  0  0  0  0  0
   -3.8290    3.6094    1.0643 C   0  0  0  0  0  0  0  0  0  0  0  0
   -2.5270    3.4300    0.7791 N   0  0  0  0  0  0  0  0  0  0  0  0
   -1.9535    2.2186    0.8968 C   0  0  0  0  0  0  0  0  0  0  0  0
   -0.6053    1.9975    0.6091 C   0  0  0  0  0  0  0  0  0  0  0  0
   -0.0254    0.7512    0.7328 C   0  0  0  0  0  0  0  0  0  0  0  0
    1.3282    0.5594    0.4376 O   0  0  0  0  0  0  0  0  0  0  0  0
    2.1607    1.6065    0.0051 C   0  0  0  0  0  0  0  0  0  0  0  0
    3.5417    1.0243   -0.2125 C   0  0  0  0  0  0  0  0  0  0  0  0
    3.4226   -0.0554   -1.2622 C   0  0  0  0  0  0  0  0  0  0  0  0
    4.6627   -0.6900   -1.5641 N   0  0  0  0  0  0  0  0  0  0  0  0
    5.1982   -1.4923   -0.4904 C   0  0  0  0  0  0  0  0  0  0  0  0
    6.5388   -0.9813   -0.0123 C   0  0  0  0  0  0  0  0  0  0  0  0
    7.5161   -0.9508   -1.0794 N   0  0  0  0  0  0  0  0  0  0  0  0
    8.4297    0.1509   -0.7994 C   0  0  0  0  0  0  0  0  0  0  0  0
    6.9128   -0.6710   -2.3660 C   0  0  0  0  0  0  0  0  0  0  0  0
    5.6339    0.1418   -2.1961 C   0  0  0  0  0  0  0  0  0  0  0  0
   -0.7837   -0.3247    1.1524 C   0  0  0  0  0  0  0  0  0  0  0  0
   -0.1660   -1.5451    1.2609 O   0  0  0  0  0  0  0  0  0  0  0  0
   -0.8182   -2.7273    1.6769 C   0  0  0  0  0  0  0  0  0  0  0  0
   -2.1295   -0.1321    1.4455 C   0  0  0  0  0  0  0  0  0  0  0  0
   -2.6832    1.1246    1.3132 C   0  0  0  0  0  0  0  0  0  0  0  0
   -6.0331    2.7467    1.7978 C   0  0  0  0  0  0  0  0  0  0  0  0
   -7.1560    2.8867    2.0549 N   0  0  0  0  0  0  0  0  0  0  0  0
   -6.3055   -1.6561    1.5519 C   0  0  0  0  0  0  0  0  0  0  0  0
   -6.4410   -2.0259    3.2478 Cl  0  0  0  0  0  0  0  0  0  0  0  0
   -7.0004   -2.4646    0.6587 C   0  0  0  0  0  0  0  0  0  0  0  0
   -6.9278   -2.2166   -0.6919 C   0  0  0  0  0  0  0  0  0  0  0  0
   -7.7733   -3.1886   -1.8765 Cl  0  0  0  0  0  0  0  0  0  0  0  0
   -5.4136    0.3597   -4.0746 H   0  0  0  0  0  0  0  0  0  0  0  0
   -4.2180   -0.0377   -2.8166 H   0  0  0  0  0  0  0  0  0  0  0  0
   -5.5182    1.1093   -2.4102 H   0  0  0  0  0  0  0  0  0  0  0  0
   -4.8824    0.4495   -0.5886 H   0  0  0  0  0  0  0  0  0  0  0  0
   -4.9019    0.0142    3.0487 H   0  0  0  0  0  0  0  0  0  0  0  0
   -4.3295    4.5717    0.9823 H   0  0  0  0  0  0  0  0  0  0  0  0
   -0.0170    2.8280    0.2846 H   0  0  0  0  0  0  0  0  0  0  0  0
    1.7778    1.9385   -1.0008 H   0  0  0  0  0  0  0  0  0  0  0  0
    2.1821    2.4558    0.7154 H   0  0  0  0  0  0  0  0  0  0  0  0
    4.2210    1.8377   -0.5139 H   0  0  0  0  0  0  0  0  0  0  0  0
    3.9285    0.6049    0.7361 H   0  0  0  0  0  0  0  0  0  0  0  0
    2.9821    0.3266   -2.1992 H   0  0  0  0  0  0  0  0  0  0  0  0
    2.7315   -0.8214   -0.8541 H   0  0  0  0  0  0  0  0  0  0  0  0
    5.2338   -2.5366   -0.8312 H   0  0  0  0  0  0  0  0  0  0  0  0
    4.5037   -1.4099    0.3697 H   0  0  0  0  0  0  0  0  0  0  0  0
    6.3881   -0.0055    0.4627 H   0  0  0  0  0  0  0  0  0  0  0  0
    6.9097   -1.6815    0.7631 H   0  0  0  0  0  0  0  0  0  0  0  0
    7.9186    0.8915   -0.1786 H   0  0  0  0  0  0  0  0  0  0  0  0
    9.2446   -0.2873   -0.1540 H   0  0  0  0  0  0  0  0  0  0  0  0
    8.8635    0.5756   -1.7319 H   0  0  0  0  0  0  0  0  0  0  0  0
    7.6268   -0.0558   -2.9818 H   0  0  0  0  0  0  0  0  0  0  0  0
    6.6852   -1.5665   -2.9435 H   0  0  0  0  0  0  0  0  0  0  0  0
    5.9066    1.0433   -1.6186 H   0  0  0  0  0  0  0  0  0  0  0  0
    5.2600    0.4179   -3.1952 H   0  0  0  0  0  0  0  0  0  0  0  0
   -1.6281   -3.0342    0.9852 H   0  0  0  0  0  0  0  0  0  0  0  0
   -0.0534   -3.5288    1.7326 H   0  0  0  0  0  0  0  0  0  0  0  0
   -1.1857   -2.5572    2.7031 H   0  0  0  0  0  0  0  0  0  0  0  0
   -2.7370   -0.9576    1.7739 H   0  0  0  0  0  0  0  0  0  0  0  0
   -7.6050   -3.2933    0.9881 H   0  0  0  0  0  0  0  0  0  0  0  0
  1  2  1  0
  2  3  1  0
  3  4  2  0
  4  5  1  0
  5  6  1  0
  6  7  1  0
  7  8  2  0
  8  9  1  0
  9 10  2  0
 10 11  1  0
 11 12  2  0
 12 13  1  0
 13 14  1  0
 14 15  1  0
 15 16  1  0
 16 17  1  0
 17 18  1  0
 18 19  1  0
 19 20  1  0
 20 21  1  0
 21 22  1  0
 21 23  1  0
 23 24  1  0
 13 25  2  0
 25 26  1  0
 26 27  1  0
 25 28  1  0
 28 29  2  0
  8 30  1  0
 30 31  3  0
  5 32  2  0
 32 33  1  0
 32 34  1  0
 34 35  2  0
 35 36  1  0
 35  3  1  0
 29  7  1  0
 29 11  1  0
 24 18  1  0
  1 37  1  0
  1 38  1  0
  1 39  1  0
  4 40  1  0
  6 41  1  0
  9 42  1  0
 12 43  1  0
 15 44  1  0
 15 45  1  0
 16 46  1  0
 16 47  1  0
 17 48  1  0
 17 49  1  0
 19 50  1  0
 19 51  1  0
 20 52  1  0
 20 53  1  0
 22 54  1  0
 22 55  1  0
 22 56  1  0
 23 57  1  0
 23 58  1  0
 24 59  1  0
 24 60  1  0
 27 61  1  0
 27 62  1  0
 27 63  1  0
 28 64  1  0
 34 65  1  0
M  END
$$$$
[H]OC([H])([H])[C@@]1(O[H])C([H])([H])[C@@]2([H])O[C@]1(C([H])([H])[H])n1c3c([H])c([H])c([H])c([H])c3c3c4c(c5c6c([H])c([H])c([H])c([H])c6n2c5c31)C(=O)N([H])C4=O
     RDKit          3D

 53 60  0  0  0  0  0  0  0  0999 V2000
   -3.2536   -0.3191   -1.3077 C   0  0  0  0  0  0  0  0  0  0  0  0
   -1.9922   -0.5302   -0.4891 C   0  0  2  0  0  0  0  0  0  0  0  0
   -1.2261   -1.3263   -1.3816 O   0  0  0  0  0  0  0  0  0  0  0  0
   -0.4552   -2.1851   -0.6434 C   0  0  2  0  0  0  0  0  0  0  0  0
   -1.1492   -2.4550    0.6346 C   0  0  0  0  0  0  0  0  0  0  0  0
   -2.1837   -1.3578    0.7255 C   0  0  1  0  0  0  0  0  0  0  0  0
   -1.9546   -0.6647    1.9131 O   0  0  0  0  0  0  0  0  0  0  0  0
   -3.5376   -2.0044    0.8351 C   0  0  0  0  0  0  0  0  0  0  0  0
   -3.5035   -2.8809    1.9429 O   0  0  0  0  0  0  0  0  0  0  0  0
    0.8706   -1.5405   -0.4677 N   0  0  0  0  0  0  0  0  0  0  0  0
    2.0538   -2.1365   -0.4814 C   0  0  0  0  0  0  0  0  0  0  0  0
    2.3914   -3.4572   -0.6338 C   0  0  0  0  0  0  0  0  0  0  0  0
    3.7055   -3.8346   -0.6121 C   0  0  0  0  0  0  0  0  0  0  0  0
    4.7011   -2.9015   -0.4384 C   0  0  0  0  0  0  0  0  0  0  0  0
    4.3734   -1.5527   -0.2818 C   0  0  0  0  0  0  0  0  0  0  0  0
    3.0666   -1.1853   -0.3044 C   0  0  0  0  0  0  0  0  0  0  0  0
    2.4186    0.0421   -0.1795 C   0  0  0  0  0  0  0  0  0  0  0  0
    2.8449    1.3517    0.0302 C   0  0  0  0  0  0  0  0  0  0  0  0
    4.1760    1.9185    0.1715 C   0  0  0  0  0  0  0  0  0  0  0  0
    5.3248    1.4136    0.1523 O   0  0  0  0  0  0  0  0  0  0  0  0
    3.9953    3.3287    0.3634 N   0  0  0  0  0  0  0  0  0  0  0  0
    2.5851    3.6428    0.3433 C   0  0  0  0  0  0  0  0  0  0  0  0
    2.1845    4.8257    0.4922 O   0  0  0  0  0  0  0  0  0  0  0  0
    1.9021    2.3866    0.1339 C   0  0  0  0  0  0  0  0  0  0  0  0
    0.5577    2.0739    0.0234 C   0  0  0  0  0  0  0  0  0  0  0  0
   -0.6212    2.8071    0.1087 C   0  0  0  0  0  0  0  0  0  0  0  0
   -0.8522    4.1373    0.3325 C   0  0  0  0  0  0  0  0  0  0  0  0
   -2.1789    4.5830    0.3956 C   0  0  0  0  0  0  0  0  0  0  0  0
   -3.2184    3.7235    0.2404 C   0  0  0  0  0  0  0  0  0  0  0  0
   -2.9946    2.3720    0.0133 C   0  0  0  0  0  0  0  0  0  0  0  0
   -1.6901    1.9279   -0.0519 C   0  0  0  0  0  0  0  0  0  0  0  0
   -1.2201    0.6787   -0.2397 N   0  0  0  0  0  0  0  0  0  0  0  0
    0.1527    0.7758   -0.1867 C   0  0  0  0  0  0  0  0  0  0  0  0
    1.0789   -0.2375   -0.2874 C   0  0  0  0  0  0  0  0  0  0  0  0
   -3.1208    0.5742   -1.9395 H   0  0  0  0  0  0  0  0  0  0  0  0
   -3.3563   -1.1553   -2.0912 H   0  0  0  0  0  0  0  0  0  0  0  0
   -4.1831   -0.4024   -0.7531 H   0  0  0  0  0  0  0  0  0  0  0  0
   -0.2576   -3.0975   -1.2082 H   0  0  0  0  0  0  0  0  0  0  0  0
   -1.6411   -3.4681    0.5339 H   0  0  0  0  0  0  0  0  0  0  0  0
   -0.4690   -2.4559    1.5142 H   0  0  0  0  0  0  0  0  0  0  0  0
   -1.6587   -1.3562    2.5850 H   0  0  0  0  0  0  0  0  0  0  0  0
   -4.2695   -1.2222    1.1100 H   0  0  0  0  0  0  0  0  0  0  0  0
   -3.8200   -2.6146   -0.0282 H   0  0  0  0  0  0  0  0  0  0  0  0
   -4.2951   -3.4856    1.8211 H   0  0  0  0  0  0  0  0  0  0  0  0
    1.5744   -4.1807   -0.7709 H   0  0  0  0  0  0  0  0  0  0  0  0
    3.9673   -4.8787   -0.7329 H   0  0  0  0  0  0  0  0  0  0  0  0
    5.7406   -3.1581   -0.4159 H   0  0  0  0  0  0  0  0  0  0  0  0
    5.1602   -0.8441   -0.1477 H   0  0  0  0  0  0  0  0  0  0  0  0
    4.7619    4.0384    0.4993 H   0  0  0  0  0  0  0  0  0  0  0  0
   -0.0814    4.8576    0.4628 H   0  0  0  0  0  0  0  0  0  0  0  0
   -2.3091    5.6540    0.5756 H   0  0  0  0  0  0  0  0  0  0  0  0
   -4.2457    4.0593    0.2881 H   0  0  0  0  0  0  0  0  0  0  0  0
   -3.8490    1.7165   -0.0715 H   0  0  0  0  0  0  0  0  0  0  0  0
  2  1  1  6
  2  3  1  0
  3  4  1  0
  4  5  1  0
  5  6  1  0
  6  7  1  1
  6  8  1  0
  8  9  1  0
  4 10  1  0
 10 11  1  0
 11 12  2  0
 12 13  1  0
 13 14  2  0
 14 15  1  0
 15 16  2  0
 16 17  1  0
 17 18  2  0
 18 19  1  0
 19 20  2  0
 19 21  1  0
 21 22  1  0
 22 23  2  0
 22 24  1  0
 24 25  2  0
 25 26  1  0
 26 27  2  0
 27 28  1  0
 28 29  2  0
 29 30  1  0
 30 31  2  0
 31 32  1  0
 32 33  1  0
 33 34  2  0
  6  2  1  0
 34 10  1  0
 32  2  1  0
 16 11  1  0
 34 17  1  0
 24 18  1  0
 33 25  1  0
 31 26  1  0
  1 35  1  0
  1 36  1  0
  1 37  1  0
  4 38  1  6
  5 39  1  0
  5 40  1  0
  7 41  1  0
  8 42  1  0
  8 43  1  0
  9 44  1  0
 12 45  1  0
 13 46  1  0
 14 47  1  0
 15 48  1  0
 21 49  1  0
 27 50  1  0
 28 51  1  0
 29 52  1  0
 30 53  1  0
M  END
$$$$
[H]O[C@]([H])(C([H])([H])N([H])C(=O)c1c(C([H])([H])[H])c(/C([H])=C2\C(=O)N([H])c3c([H])c([H])c(F)c([H])c32)n([H])c1C([H])([H])[H])C([H])([H])N1C([H])([H])C([H])([H])OC([H])([H])C1([H])[H]
     RDKit          3D

 59 62  0  0  0  0  0  0  0  0999 V2000
   -0.0067    3.0051   -1.0071 C   0  0  0  0  0  0  0  0  0  0  0  0
   -0.8501    1.8317   -0.6247 C   0  0  0  0  0  0  0  0  0  0  0  0
   -2.0811    1.8440   -0.1243 N   0  0  0  0  0  0  0  0  0  0  0  0
   -2.5055    0.6096    0.0967 C   0  0  0  0  0  0  0  0  0  0  0  0
   -3.7672    0.1046    0.6046 C   0  0  0  0  0  0  0  0  0  0  0  0
   -4.9551    0.3616    0.1015 C   0  0  0  0  0  0  0  0  0  0  0  0
   -5.2686    1.1831   -1.0526 C   0  0  0  0  0  0  0  0  0  0  0  0
   -4.4447    1.7926   -1.8068 O   0  0  0  0  0  0  0  0  0  0  0  0
   -6.6877    1.1703   -1.1787 N   0  0  0  0  0  0  0  0  0  0  0  0
   -7.2854    0.3683   -0.1452 C   0  0  0  0  0  0  0  0  0  0  0  0
   -8.5932    0.0485    0.1572 C   0  0  0  0  0  0  0  0  0  0  0  0
   -8.8890   -0.7569    1.2253 C   0  0  0  0  0  0  0  0  0  0  0  0
   -7.8675   -1.2558    2.0099 C   0  0  0  0  0  0  0  0  0  0  0  0
   -8.1704   -2.0582    3.0732 F   0  0  0  0  0  0  0  0  0  0  0  0
   -6.5671   -0.9274    1.6946 C   0  0  0  0  0  0  0  0  0  0  0  0
   -6.2525   -0.1198    0.6256 C   0  0  0  0  0  0  0  0  0  0  0  0
   -1.4701   -0.2719   -0.2891 C   0  0  0  0  0  0  0  0  0  0  0  0
   -1.5634   -1.7560   -0.2190 C   0  0  0  0  0  0  0  0  0  0  0  0
   -0.4504    0.4817   -0.7334 C   0  0  0  0  0  0  0  0  0  0  0  0
    0.8421    0.0665   -1.2851 C   0  0  0  0  0  0  0  0  0  0  0  0
    1.4391    0.9461   -2.0019 O   0  0  0  0  0  0  0  0  0  0  0  0
    1.4641   -1.1610   -1.1017 N   0  0  0  0  0  0  0  0  0  0  0  0
    2.7215   -1.6317   -1.5988 C   0  0  0  0  0  0  0  0  0  0  0  0
    3.9100   -0.9040   -1.0858 C   0  0  1  0  0  0  0  0  0  0  0  0
    3.9623    0.4288   -1.4233 O   0  0  0  0  0  0  0  0  0  0  0  0
    3.9389   -1.0769    0.4336 C   0  0  0  0  0  0  0  0  0  0  0  0
    5.1145   -0.5489    1.0231 N   0  0  0  0  0  0  0  0  0  0  0  0
    6.3057   -1.2328    0.7606 C   0  0  0  0  0  0  0  0  0  0  0  0
    7.5650   -0.4418    0.7566 C   0  0  0  0  0  0  0  0  0  0  0  0
    7.4895    0.7846    1.3637 O   0  0  0  0  0  0  0  0  0  0  0  0
    6.4448    1.4794    0.7104 C   0  0  0  0  0  0  0  0  0  0  0  0
    5.1722    0.8464    1.2284 C   0  0  0  0  0  0  0  0  0  0  0  0
    0.0822    3.1015   -2.1049 H   0  0  0  0  0  0  0  0  0  0  0  0
    0.9945    2.8829   -0.5849 H   0  0  0  0  0  0  0  0  0  0  0  0
   -0.4526    3.9508   -0.6159 H   0  0  0  0  0  0  0  0  0  0  0  0
   -2.6066    2.7533    0.0695 H   0  0  0  0  0  0  0  0  0  0  0  0
   -3.7823   -0.5608    1.4939 H   0  0  0  0  0  0  0  0  0  0  0  0
   -7.2117    1.6663   -1.9082 H   0  0  0  0  0  0  0  0  0  0  0  0
   -9.3955    0.4290   -0.4451 H   0  0  0  0  0  0  0  0  0  0  0  0
   -9.9115   -1.0343    1.4983 H   0  0  0  0  0  0  0  0  0  0  0  0
   -5.7718   -1.3177    2.3089 H   0  0  0  0  0  0  0  0  0  0  0  0
   -2.6454   -2.0706   -0.0938 H   0  0  0  0  0  0  0  0  0  0  0  0
   -1.2591   -2.2559   -1.1569 H   0  0  0  0  0  0  0  0  0  0  0  0
   -1.0707   -2.1818    0.6776 H   0  0  0  0  0  0  0  0  0  0  0  0
    0.9409   -1.8713   -0.4745 H   0  0  0  0  0  0  0  0  0  0  0  0
    2.7227   -1.5655   -2.7387 H   0  0  0  0  0  0  0  0  0  0  0  0
    2.8856   -2.7214   -1.3345 H   0  0  0  0  0  0  0  0  0  0  0  0
    4.8252   -1.3984   -1.5342 H   0  0  0  0  0  0  0  0  0  0  0  0
    4.6728    0.6685   -2.0620 H   0  0  0  0  0  0  0  0  0  0  0  0
    3.8608   -2.1623    0.6551 H   0  0  0  0  0  0  0  0  0  0  0  0
    3.0333   -0.6218    0.8919 H   0  0  0  0  0  0  0  0  0  0  0  0
    6.4000   -2.0516    1.5425 H   0  0  0  0  0  0  0  0  0  0  0  0
    6.2394   -1.7948   -0.1894 H   0  0  0  0  0  0  0  0  0  0  0  0
    8.3678   -1.0168    1.3034 H   0  0  0  0  0  0  0  0  0  0  0  0
    7.9510   -0.2953   -0.2738 H   0  0  0  0  0  0  0  0  0  0  0  0
    6.5258    1.2239   -0.3654 H   0  0  0  0  0  0  0  0  0  0  0  0
    6.4620    2.5549    0.9159 H   0  0  0  0  0  0  0  0  0  0  0  0
    5.1227    1.0724    2.3311 H   0  0  0  0  0  0  0  0  0  0  0  0
    4.3267    1.4070    0.7958 H   0  0  0  0  0  0  0  0  0  0  0  0
  1  2  1  0
  2  3  1  0
  3  4  1  0
  4  5  1  0
  5  6  2  0
  6  7  1  0
  7  8  2  0
  7  9  1  0
  9 10  1  0
 10 11  2  0
 11 12  1  0
 12 13  2  0
 13 14  1  0
 13 15  1  0
 15 16  2  0
  4 17  2  0
 17 18  1  0
 17 19  1  0
 19 20  1  0
 20 21  2  0
 20 22  1  0
 22 23  1  0
 23 24  1  0
 24 25  1  0
 24 26  1  0
 26 27  1  0
 27 28  1  0
 28 29  1  0
 29 30  1  0
 30 31  1  0
 31 32  1  0
 19  2  2  0
 32 27  1  0
 16  6  1  0
 16 10  1  0
  1 33  1  0
  1 34  1  0
  1 35  1  0
  3 36  1  0
  5 37  1  0
  9 38  1  0
 11 39  1  0
 12 40  1  0
 15 41  1  0
 18 42  1  0
 18 43  1  0
 18 44  1  0
 22 45  1  0
 23 46  1  0
 23 47  1  0
 24 48  1  6
 25 49  1  0
 26 50  1  0
 26 51  1  0
 28 52  1  0
 28 53  1  0
 29 54  1  0
 29 55  1  0
 31 56  1  0
 31 57  1  0
 32 58  1  0
 32 59  1  0
M  END
$$$$
[H]/C(=C(/[H])c1nn([H])c2c([H])c([H])c([H])c([H])c12)c1c([H])c([H])c(C(=O)N2C([H])([H])C([H])([H])N([H])C([H])([H])C2([H])[H])c([H])c1[H]
     RDKit          3D

 45 48  0  0  0  0  0  0  0  0999 V2000
    3.5514    0.7440    1.9711 O   0  0  0  0  0  0  0  0  0  0  0  0
    3.3892    0.0685    0.8672 C   0  0  0  0  0  0  0  0  0  0  0  0
    4.5907   -0.4046    0.3401 N   0  0  0  0  0  0  0  0  0  0  0  0
    5.8363   -0.0821    1.0805 C   0  0  0  0  0  0  0  0  0  0  0  0
    6.8464    0.5740    0.1955 C   0  0  0  0  0  0  0  0  0  0  0  0
    6.9351   -0.1389   -1.0738 N   0  0  0  0  0  0  0  0  0  0  0  0
    6.3062   -1.4335   -0.9851 C   0  0  0  0  0  0  0  0  0  0  0  0
    4.7909   -1.1844   -0.8492 C   0  0  0  0  0  0  0  0  0  0  0  0
    2.0269   -0.0476    0.4278 C   0  0  0  0  0  0  0  0  0  0  0  0
    1.6279   -0.7053   -0.7085 C   0  0  0  0  0  0  0  0  0  0  0  0
    0.2723   -0.7857   -1.0847 C   0  0  0  0  0  0  0  0  0  0  0  0
   -0.7036   -0.2003   -0.3150 C   0  0  0  0  0  0  0  0  0  0  0  0
   -2.0925   -0.3054   -0.7371 C   0  0  0  0  0  0  0  0  0  0  0  0
   -3.1132    0.2129   -0.0839 C   0  0  0  0  0  0  0  0  0  0  0  0
   -4.4888    0.0482   -0.6000 C   0  0  0  0  0  0  0  0  0  0  0  0
   -4.8416   -0.6046   -1.7200 N   0  0  0  0  0  0  0  0  0  0  0  0
   -6.1395   -0.5577   -1.8797 N   0  0  0  0  0  0  0  0  0  0  0  0
   -6.6557    0.1457   -0.8354 C   0  0  0  0  0  0  0  0  0  0  0  0
   -7.9602    0.4571   -0.5683 C   0  0  0  0  0  0  0  0  0  0  0  0
   -8.2539    1.1947    0.5715 C   0  0  0  0  0  0  0  0  0  0  0  0
   -7.2213    1.5923    1.4019 C   0  0  0  0  0  0  0  0  0  0  0  0
   -5.9075    1.2749    1.1269 C   0  0  0  0  0  0  0  0  0  0  0  0
   -5.6302    0.5432   -0.0064 C   0  0  0  0  0  0  0  0  0  0  0  0
   -0.3026    0.4578    0.8222 C   0  0  0  0  0  0  0  0  0  0  0  0
    1.0089    0.5439    1.1996 C   0  0  0  0  0  0  0  0  0  0  0  0
    6.2423   -0.9896    1.5215 H   0  0  0  0  0  0  0  0  0  0  0  0
    5.5531    0.6221    1.8808 H   0  0  0  0  0  0  0  0  0  0  0  0
    7.8569    0.5491    0.6272 H   0  0  0  0  0  0  0  0  0  0  0  0
    6.6110    1.6519   -0.0034 H   0  0  0  0  0  0  0  0  0  0  0  0
    7.9122   -0.2166   -1.4132 H   0  0  0  0  0  0  0  0  0  0  0  0
    6.6537   -2.0110   -0.1378 H   0  0  0  0  0  0  0  0  0  0  0  0
    6.4605   -1.9379   -1.9665 H   0  0  0  0  0  0  0  0  0  0  0  0
    4.2816   -2.1691   -0.7810 H   0  0  0  0  0  0  0  0  0  0  0  0
    4.4864   -0.6351   -1.7695 H   0  0  0  0  0  0  0  0  0  0  0  0
    2.3212   -1.1854   -1.3618 H   0  0  0  0  0  0  0  0  0  0  0  0
    0.0611   -1.3257   -1.9963 H   0  0  0  0  0  0  0  0  0  0  0  0
   -2.3642   -0.8450   -1.6590 H   0  0  0  0  0  0  0  0  0  0  0  0
   -2.9354    0.7590    0.8314 H   0  0  0  0  0  0  0  0  0  0  0  0
   -6.6500   -0.9934   -2.6771 H   0  0  0  0  0  0  0  0  0  0  0  0
   -8.7873    0.1480   -1.2184 H   0  0  0  0  0  0  0  0  0  0  0  0
   -9.2919    1.4273    0.7594 H   0  0  0  0  0  0  0  0  0  0  0  0
   -7.4766    2.1675    2.2861 H   0  0  0  0  0  0  0  0  0  0  0  0
   -5.0901    1.5762    1.7625 H   0  0  0  0  0  0  0  0  0  0  0  0
   -1.0284    0.9367    1.4648 H   0  0  0  0  0  0  0  0  0  0  0  0
    1.3120    1.0639    2.0958 H   0  0  0  0  0  0  0  0  0  0  0  0
  1  2  2  0
  2  3  1  0
  3  4  1  0
  4  5  1  0
  5  6  1  0
  6  7  1  0
  7  8  1  0
  2  9  1  0
  9 10  2  0
 10 11  1  0
 11 12  2  0
 12 13  1  0
 13 14  2  0
 14 15  1  0
 15 16  2  0
 16 17  1  0
 17 18  1  0
 18 19  2  0
 19 20  1  0
 20 21  2  0
 21 22  1  0
 22 23  2  0
 12 24  1  0
 24 25  2  0
  8  3  1  0
 25  9  1  0
 23 15  1  0
 23 18  1  0
  4 26  1  0
  4 27  1  0
  5 28  1  0
  5 29  1  0
  6 30  1  0
  7 31  1  0
  7 32  1  0
  8 33  1  0
  8 34  1  0
 10 35  1  0
 11 36  1  0
 13 37  1  0
 14 38  1  0
 17 39  1  0
 19 40  1  0
 20 41  1  0
 21 42  1  0
 22 43  1  0
 24 44  1  0
 25 45  1  0
M  END
$$$$
[H]O[C@]([H])(c1c([H])c([H])c([H])c([H])c1[H])C([H])([H])N([H])C(=O)c1c(C([H])([H])[H])c(/C([H])=C2\C(=O)N([H])c3c([H])c([H])c(F)c([H])c32)n([H])c1C([H])([H])[H]
     RDKit          3D

 53 56  0  0  0  0  0  0  0  0999 V2000
   -0.0331   -0.4705    3.0093 C   0  0  0  0  0  0  0  0  0  0  0  0
   -0.6525   -0.1847    1.7140 C   0  0  0  0  0  0  0  0  0  0  0  0
   -2.0104   -0.0783    1.5345 N   0  0  0  0  0  0  0  0  0  0  0  0
   -2.2901    0.1901    0.2573 C   0  0  0  0  0  0  0  0  0  0  0  0
   -3.5798    0.3629   -0.3743 C   0  0  0  0  0  0  0  0  0  0  0  0
   -4.5229   -0.5341   -0.3567 C   0  0  0  0  0  0  0  0  0  0  0  0
   -4.5386   -1.8396    0.2401 C   0  0  0  0  0  0  0  0  0  0  0  0
   -3.6026   -2.3905    0.8557 O   0  0  0  0  0  0  0  0  0  0  0  0
   -5.8485   -2.3966   -0.0126 N   0  0  0  0  0  0  0  0  0  0  0  0
   -6.6056   -1.4463   -0.7475 C   0  0  0  0  0  0  0  0  0  0  0  0
   -7.8990   -1.4758   -1.2385 C   0  0  0  0  0  0  0  0  0  0  0  0
   -8.4121   -0.4039   -1.9347 C   0  0  0  0  0  0  0  0  0  0  0  0
   -7.6640    0.7445   -2.1743 C   0  0  0  0  0  0  0  0  0  0  0  0
   -8.1552    1.7980   -2.8534 F   0  0  0  0  0  0  0  0  0  0  0  0
   -6.3794    0.7478   -1.6746 C   0  0  0  0  0  0  0  0  0  0  0  0
   -5.8539   -0.3174   -0.9767 C   0  0  0  0  0  0  0  0  0  0  0  0
   -1.0559    0.2555   -0.3898 C   0  0  0  0  0  0  0  0  0  0  0  0
   -0.9285    0.5367   -1.8338 C   0  0  0  0  0  0  0  0  0  0  0  0
   -0.0322    0.0224    0.5128 C   0  0  0  0  0  0  0  0  0  0  0  0
    1.3627    0.0175    0.1355 C   0  0  0  0  0  0  0  0  0  0  0  0
    1.6447    0.2990   -1.0839 O   0  0  0  0  0  0  0  0  0  0  0  0
    2.4689   -0.2606    0.9431 N   0  0  0  0  0  0  0  0  0  0  0  0
    3.8392   -0.2433    0.5648 C   0  0  0  0  0  0  0  0  0  0  0  0
    4.4660    1.0332    0.1607 C   0  0  2  0  0  0  0  0  0  0  0  0
    3.9211    1.6398   -0.9405 O   0  0  0  0  0  0  0  0  0  0  0  0
    5.9118    0.7598   -0.1875 C   0  0  0  0  0  0  0  0  0  0  0  0
    6.8887    1.0462    0.7252 C   0  0  0  0  0  0  0  0  0  0  0  0
    8.2287    0.7967    0.4114 C   0  0  0  0  0  0  0  0  0  0  0  0
    8.5801    0.2679   -0.8000 C   0  0  0  0  0  0  0  0  0  0  0  0
    7.6078   -0.0200   -1.7150 C   0  0  0  0  0  0  0  0  0  0  0  0
    6.2669    0.2282   -1.4049 C   0  0  0  0  0  0  0  0  0  0  0  0
    0.6342    0.3640    3.3583 H   0  0  0  0  0  0  0  0  0  0  0  0
    0.4628   -1.4595    3.0885 H   0  0  0  0  0  0  0  0  0  0  0  0
   -0.8319   -0.5061    3.7988 H   0  0  0  0  0  0  0  0  0  0  0  0
   -2.7001   -0.1824    2.3104 H   0  0  0  0  0  0  0  0  0  0  0  0
   -3.7591    1.3203   -0.8996 H   0  0  0  0  0  0  0  0  0  0  0  0
   -6.1589   -3.3358    0.3014 H   0  0  0  0  0  0  0  0  0  0  0  0
   -8.4929   -2.3495   -1.0659 H   0  0  0  0  0  0  0  0  0  0  0  0
   -9.4351   -0.4061   -2.3329 H   0  0  0  0  0  0  0  0  0  0  0  0
   -5.7840    1.6324   -1.8517 H   0  0  0  0  0  0  0  0  0  0  0  0
   -1.9118    0.6978   -2.3175 H   0  0  0  0  0  0  0  0  0  0  0  0
   -0.4251   -0.2806   -2.3942 H   0  0  0  0  0  0  0  0  0  0  0  0
   -0.3673    1.4866   -1.9497 H   0  0  0  0  0  0  0  0  0  0  0  0
    2.2908   -0.5180    1.9535 H   0  0  0  0  0  0  0  0  0  0  0  0
    3.9313   -0.9753   -0.3140 H   0  0  0  0  0  0  0  0  0  0  0  0
    4.4786   -0.6828    1.4033 H   0  0  0  0  0  0  0  0  0  0  0  0
    4.4697    1.7931    0.9881 H   0  0  0  0  0  0  0  0  0  0  0  0
    3.8385    2.6218   -0.8788 H   0  0  0  0  0  0  0  0  0  0  0  0
    6.6629    1.4629    1.6910 H   0  0  0  0  0  0  0  0  0  0  0  0
    8.9943    1.0215    1.1277 H   0  0  0  0  0  0  0  0  0  0  0  0
    9.6235    0.0645   -1.0664 H   0  0  0  0  0  0  0  0  0  0  0  0
    7.8513   -0.4434   -2.6935 H   0  0  0  0  0  0  0  0  0  0  0  0
    5.5065   -0.0099   -2.1522 H   0  0  0  0  0  0  0  0  0  0  0  0
  1  2  1  0
  2  3  1  0
  3  4  1  0
  4  5  1  0
  5  6  2  0
  6  7  1  0
  7  8  2  0
  7  9  1  0
  9 10  1  0
 10 11  2  0
 11 12  1  0
 12 13  2  0
 13 14  1  0
 13 15  1  0
 15 16  2  0
  4 17  2  0
 17 18  1  0
 17 19  1  0
 19 20  1  0
 20 21  2  0
 20 22  1  0
 22 23  1  0
 23 24  1  0
 24 25  1  0
 24 26  1  0
 26 27  2  0
 27 28  1  0
 28 29  2  0
 29 30  1  0
 30 31  2  0
 19  2  2  0
 31 26  1  0
 16  6  1  0
 16 10  1  0
  1 32  1  0
  1 33  1  0
  1 34  1  0
  3 35  1  0
  5 36  1  0
  9 37  1  0
 11 38  1  0
 12 39  1  0
 15 40  1  0
 18 41  1  0
 18 42  1  0
 18 43  1  0
 22 44  1  0
 23 45  1  0
 23 46  1  0
 24 47  1  1
 25 48  1  0
 27 49  1  0
 28 50  1  0
 29 51  1  0
 30 52  1  0
 31 53  1  0
M  END
$$$$
[H]O[C@@]([H])(C([H])([H])N([H])C(=O)c1c(C([H])([H])[H])c(/C([H])=C2\C(=O)N([H])c3c([H])c([H])c(F)c([H])c32)n([H])c1C([H])([H])[H])C([H])([H])N1C([H])([H])C([H])([H])C([H])([H])C1([H])[H]
     RDKit          3D

 58 61  0  0  0  0  0  0  0  0999 V2000
   -0.8227   -0.5506    3.2377 C   0  0  0  0  0  0  0  0  0  0  0  0
   -1.4020   -0.2058    1.9009 C   0  0  0  0  0  0  0  0  0  0  0  0
   -2.6919    0.2064    1.7116 N   0  0  0  0  0  0  0  0  0  0  0  0
   -2.9448    0.4538    0.4229 C   0  0  0  0  0  0  0  0  0  0  0  0
   -4.1585    0.8891   -0.2560 C   0  0  0  0  0  0  0  0  0  0  0  0
   -5.3276    0.2826   -0.1986 C   0  0  0  0  0  0  0  0  0  0  0  0
   -5.6490   -0.9198    0.5258 C   0  0  0  0  0  0  0  0  0  0  0  0
   -4.8752   -1.6292    1.2116 O   0  0  0  0  0  0  0  0  0  0  0  0
   -7.0545   -1.1580    0.3051 N   0  0  0  0  0  0  0  0  0  0  0  0
   -7.5713   -0.1357   -0.5267 C   0  0  0  0  0  0  0  0  0  0  0  0
   -8.8581    0.0937   -1.0312 C   0  0  0  0  0  0  0  0  0  0  0  0
   -9.1559    1.1693   -1.8391 C   0  0  0  0  0  0  0  0  0  0  0  0
   -8.1353    2.0475   -2.1552 C   0  0  0  0  0  0  0  0  0  0  0  0
   -8.4288    3.1077   -2.9517 F   0  0  0  0  0  0  0  0  0  0  0  0
   -6.8638    1.8250   -1.6590 C   0  0  0  0  0  0  0  0  0  0  0  0
   -6.5770    0.7488   -0.8543 C   0  0  0  0  0  0  0  0  0  0  0  0
   -1.7522    0.1827   -0.2220 C   0  0  0  0  0  0  0  0  0  0  0  0
   -1.5683    0.3270   -1.6923 C   0  0  0  0  0  0  0  0  0  0  0  0
   -0.7791   -0.2303    0.6849 C   0  0  0  0  0  0  0  0  0  0  0  0
    0.5685   -0.5943    0.2968 C   0  0  0  0  0  0  0  0  0  0  0  0
    0.8953   -0.4262   -0.9427 O   0  0  0  0  0  0  0  0  0  0  0  0
    1.5731   -1.1115    1.1047 N   0  0  0  0  0  0  0  0  0  0  0  0
    2.9150   -1.4725    0.7889 C   0  0  0  0  0  0  0  0  0  0  0  0
    3.8509   -0.4221    0.3316 C   0  0  2  0  0  0  0  0  0  0  0  0
    3.5467    0.2205   -0.8405 O   0  0  0  0  0  0  0  0  0  0  0  0
    5.2480   -1.0404    0.1761 C   0  0  0  0  0  0  0  0  0  0  0  0
    6.2658   -0.1096   -0.0710 N   0  0  0  0  0  0  0  0  0  0  0  0
    6.3138    0.5653   -1.3124 C   0  0  0  0  0  0  0  0  0  0  0  0
    7.7718    0.8655   -1.6173 C   0  0  0  0  0  0  0  0  0  0  0  0
    8.4976    0.5654   -0.3271 C   0  0  0  0  0  0  0  0  0  0  0  0
    7.5889   -0.4821    0.3043 C   0  0  0  0  0  0  0  0  0  0  0  0
    0.0211    0.1378    3.4417 H   0  0  0  0  0  0  0  0  0  0  0  0
   -0.6285   -1.6112    3.3816 H   0  0  0  0  0  0  0  0  0  0  0  0
   -1.5836   -0.2599    4.0227 H   0  0  0  0  0  0  0  0  0  0  0  0
   -3.3614    0.3198    2.4959 H   0  0  0  0  0  0  0  0  0  0  0  0
   -4.1471    1.8025   -0.8860 H   0  0  0  0  0  0  0  0  0  0  0  0
   -7.5651   -1.9607    0.7087 H   0  0  0  0  0  0  0  0  0  0  0  0
   -9.6182   -0.6074   -0.7636 H   0  0  0  0  0  0  0  0  0  0  0  0
  -10.1798    1.3181   -2.2168 H   0  0  0  0  0  0  0  0  0  0  0  0
   -6.0790    2.5148   -1.9111 H   0  0  0  0  0  0  0  0  0  0  0  0
   -0.7834    1.0705   -1.9372 H   0  0  0  0  0  0  0  0  0  0  0  0
   -1.2705   -0.6567   -2.1355 H   0  0  0  0  0  0  0  0  0  0  0  0
   -2.4861    0.6361   -2.1894 H   0  0  0  0  0  0  0  0  0  0  0  0
    1.3145   -1.2788    2.1275 H   0  0  0  0  0  0  0  0  0  0  0  0
    2.8408   -2.2224   -0.0604 H   0  0  0  0  0  0  0  0  0  0  0  0
    3.4153   -2.0238    1.6471 H   0  0  0  0  0  0  0  0  0  0  0  0
    3.9490    0.4068    1.1059 H   0  0  0  0  0  0  0  0  0  0  0  0
    3.6787   -0.4392   -1.5931 H   0  0  0  0  0  0  0  0  0  0  0  0
    5.4592   -1.6410    1.1018 H   0  0  0  0  0  0  0  0  0  0  0  0
    5.1642   -1.7287   -0.7079 H   0  0  0  0  0  0  0  0  0  0  0  0
    5.9594   -0.1267   -2.1187 H   0  0  0  0  0  0  0  0  0  0  0  0
    5.6817    1.4755   -1.3972 H   0  0  0  0  0  0  0  0  0  0  0  0
    8.1561    0.2297   -2.4462 H   0  0  0  0  0  0  0  0  0  0  0  0
    7.9274    1.9342   -1.8492 H   0  0  0  0  0  0  0  0  0  0  0  0
    8.5995    1.4712    0.3104 H   0  0  0  0  0  0  0  0  0  0  0  0
    9.4763    0.1044   -0.5707 H   0  0  0  0  0  0  0  0  0  0  0  0
    7.8587   -1.4653   -0.1102 H   0  0  0  0  0  0  0  0  0  0  0  0
    7.7816   -0.4617    1.4033 H   0  0  0  0  0  0  0  0  0  0  0  0
  1  2  1  0
  2  3  1  0
  3  4  1  0
  4  5  1  0
  5  6  2  0
  6  7  1  0
  7  8  2  0
  7  9  1  0
  9 10  1  0
 10 11  2  0
 11 12  1  0
 12 13  2  0
 13 14  1  0
 13 15  1  0
 15 16  2  0
  4 17  2  0
 17 18  1  0
 17 19  1  0
 19 20  1  0
 20 21  2  0
 20 22  1  0
 22 23  1  0
 23 24  1  0
 24 25  1  0
 24 26  1  0
 26 27  1  0
 27 28  1  0
 28 29  1  0
 29 30  1  0
 30 31  1  0
 19  2  2  0
 31 27  1  0
 16  6  1  0
 16 10  1  0
  1 32  1  0
  1 33  1  0
  1 34  1  0
  3 35  1  0
  5 36  1  0
  9 37  1  0
 11 38  1  0
 12 39  1  0
 15 40  1  0
 18 41  1  0
 18 42  1  0
 18 43  1  0
 22 44  1  0
 23 45  1  0
 23 46  1  0
 24 47  1  1
 25 48  1  0
 26 49  1  0
 26 50  1  0
 28 51  1  0
 28 52  1  0
 29 53  1  0
 29 54  1  0
 30 55  1  0
 30 56  1  0
 31 57  1  0
 31 58  1  0
M  END
$$$$
[H]c1nc(C([H])([H])[H])nc([H])c1N([H])C(=O)c1c([H])c(N([H])C(=O)c2c([H])c([H])c(C([H])([H])N3C([H])([H])C([H])([H])N(C([H])([H])[H])C([H])([H])C3([H])[H])c(C(F)(F)F)c2[H])c([H])c([H])c1C([H])([H])[H]
     RDKit          3D

 67 70  0  0  0  0  0  0  0  0999 V2000
   -8.6830    3.2244    0.5518 C   0  0  0  0  0  0  0  0  0  0  0  0
   -8.5138    1.9204   -0.0314 N   0  0  0  0  0  0  0  0  0  0  0  0
   -8.5407    0.8595    0.9467 C   0  0  0  0  0  0  0  0  0  0  0  0
   -7.7176   -0.2692    0.3899 C   0  0  0  0  0  0  0  0  0  0  0  0
   -6.2936    0.0718    0.5249 N   0  0  0  0  0  0  0  0  0  0  0  0
   -5.5252   -0.8668   -0.2696 C   0  0  0  0  0  0  0  0  0  0  0  0
   -4.0807   -0.8100   -0.1325 C   0  0  0  0  0  0  0  0  0  0  0  0
   -3.4486    0.0481    0.7575 C   0  0  0  0  0  0  0  0  0  0  0  0
   -2.0893    0.0823    0.9133 C   0  0  0  0  0  0  0  0  0  0  0  0
   -1.3061   -0.7738    0.1536 C   0  0  0  0  0  0  0  0  0  0  0  0
   -1.9358   -1.6222   -0.7267 C   0  0  0  0  0  0  0  0  0  0  0  0
   -3.3099   -1.6822   -0.9093 C   0  0  0  0  0  0  0  0  0  0  0  0
   -3.9032   -2.6172   -1.8793 C   0  0  0  0  0  0  0  0  0  0  0  0
   -4.6039   -2.0555   -2.8968 F   0  0  0  0  0  0  0  0  0  0  0  0
   -4.6669   -3.6032   -1.2364 F   0  0  0  0  0  0  0  0  0  0  0  0
   -2.8723   -3.3451   -2.4853 F   0  0  0  0  0  0  0  0  0  0  0  0
    0.1618   -0.7629    0.2879 C   0  0  0  0  0  0  0  0  0  0  0  0
    0.6707    0.2725    0.7257 O   0  0  0  0  0  0  0  0  0  0  0  0
    0.9138   -1.8875   -0.0704 N   0  0  0  0  0  0  0  0  0  0  0  0
    2.3175   -2.0530   -0.0135 C   0  0  0  0  0  0  0  0  0  0  0  0
    2.8122   -3.3481   -0.2151 C   0  0  0  0  0  0  0  0  0  0  0  0
    4.1700   -3.5577   -0.1808 C   0  0  0  0  0  0  0  0  0  0  0  0
    5.0770   -2.5361    0.0463 C   0  0  0  0  0  0  0  0  0  0  0  0
    6.5078   -2.9159    0.1226 C   0  0  0  0  0  0  0  0  0  0  0  0
    4.6255   -1.2748    0.2419 C   0  0  0  0  0  0  0  0  0  0  0  0
    3.2304   -1.0589    0.2077 C   0  0  0  0  0  0  0  0  0  0  0  0
    5.4683   -0.0937    0.4213 C   0  0  0  0  0  0  0  0  0  0  0  0
    4.9910    0.7742    1.2270 O   0  0  0  0  0  0  0  0  0  0  0  0
    6.6716    0.0724   -0.2259 N   0  0  0  0  0  0  0  0  0  0  0  0
    7.5924    1.1568   -0.1241 C   0  0  0  0  0  0  0  0  0  0  0  0
    8.7113    1.1546   -0.9673 C   0  0  0  0  0  0  0  0  0  0  0  0
    9.6200    2.1352   -0.9181 N   0  0  0  0  0  0  0  0  0  0  0  0
    9.4954    3.1599   -0.0587 C   0  0  0  0  0  0  0  0  0  0  0  0
   10.5043    4.2464   -0.0049 C   0  0  0  0  0  0  0  0  0  0  0  0
    8.4344    3.1603    0.7394 N   0  0  0  0  0  0  0  0  0  0  0  0
    7.4791    2.2006    0.7410 C   0  0  0  0  0  0  0  0  0  0  0  0
   -6.0890    1.4428    0.0661 C   0  0  0  0  0  0  0  0  0  0  0  0
   -7.2780    1.8412   -0.7697 C   0  0  0  0  0  0  0  0  0  0  0  0
   -9.3006    3.8268   -0.1323 H   0  0  0  0  0  0  0  0  0  0  0  0
   -7.6930    3.6358    0.7628 H   0  0  0  0  0  0  0  0  0  0  0  0
   -9.2378    3.0816    1.5060 H   0  0  0  0  0  0  0  0  0  0  0  0
   -8.0886    1.1550    1.9114 H   0  0  0  0  0  0  0  0  0  0  0  0
   -9.5918    0.5610    1.1141 H   0  0  0  0  0  0  0  0  0  0  0  0
   -7.9252   -1.2092    0.9779 H   0  0  0  0  0  0  0  0  0  0  0  0
   -7.9303   -0.5307   -0.6528 H   0  0  0  0  0  0  0  0  0  0  0  0
   -5.9108   -0.7639   -1.3214 H   0  0  0  0  0  0  0  0  0  0  0  0
   -5.8987   -1.8840    0.0600 H   0  0  0  0  0  0  0  0  0  0  0  0
   -4.0070    0.7462    1.4026 H   0  0  0  0  0  0  0  0  0  0  0  0
   -1.5959    0.7455    1.6020 H   0  0  0  0  0  0  0  0  0  0  0  0
   -1.3577   -2.3167   -1.3586 H   0  0  0  0  0  0  0  0  0  0  0  0
    0.3419   -2.7269   -0.4332 H   0  0  0  0  0  0  0  0  0  0  0  0
    2.1365   -4.1524   -0.3912 H   0  0  0  0  0  0  0  0  0  0  0  0
    4.5537   -4.5517   -0.3348 H   0  0  0  0  0  0  0  0  0  0  0  0
    6.5707   -3.9471    0.6061 H   0  0  0  0  0  0  0  0  0  0  0  0
    6.9850   -3.0360   -0.8618 H   0  0  0  0  0  0  0  0  0  0  0  0
    7.1079   -2.2755    0.7886 H   0  0  0  0  0  0  0  0  0  0  0  0
    2.9260   -0.0543    0.3613 H   0  0  0  0  0  0  0  0  0  0  0  0
    6.9497   -0.6919   -0.9326 H   0  0  0  0  0  0  0  0  0  0  0  0
    8.8526    0.3400   -1.6824 H   0  0  0  0  0  0  0  0  0  0  0  0
   11.5135    3.8001   -0.2038 H   0  0  0  0  0  0  0  0  0  0  0  0
   10.5581    4.7279    0.9889 H   0  0  0  0  0  0  0  0  0  0  0  0
   10.3375    5.0117   -0.7634 H   0  0  0  0  0  0  0  0  0  0  0  0
    6.6689    2.2866    1.4207 H   0  0  0  0  0  0  0  0  0  0  0  0
   -5.8775    2.1469    0.8793 H   0  0  0  0  0  0  0  0  0  0  0  0
   -5.2311    1.3991   -0.6580 H   0  0  0  0  0  0  0  0  0  0  0  0
   -7.3639    1.1423   -1.6242 H   0  0  0  0  0  0  0  0  0  0  0  0
   -7.0895    2.8446   -1.2687 H   0  0  0  0  0  0  0  0  0  0  0  0
  1  2  1  0
  2  3  1  0
  3  4  1  0
  4  5  1  0
  5  6  1  0
  6  7  1  0
  7  8  2  0
  8  9  1  0
  9 10  2  0
 10 11  1  0
 11 12  2  0
 12 13  1  0
 13 14  1  0
 13 15  1  0
 13 16  1  0
 10 17  1  0
 17 18  2  0
 17 19  1  0
 19 20  1  0
 20 21  2  0
 21 22  1  0
 22 23  2  0
 23 24  1  0
 23 25  1  0
 25 26  2  0
 25 27  1  0
 27 28  2  0
 27 29  1  0
 29 30  1  0
 30 31  2  0
 31 32  1  0
 32 33  2  0
 33 34  1  0
 33 35  1  0
 35 36  2  0
  5 37  1  0
 37 38  1  0
 38  2  1  0
 12  7  1  0
 26 20  1  0
 36 30  1  0
  1 39  1  0
  1 40  1  0
  1 41  1  0
  3 42  1  0
  3 43  1  0
  4 44  1  0
  4 45  1  0
  6 46  1  0
  6 47  1  0
  8 48  1  0
  9 49  1  0
 11 50  1  0
 19 51  1  0
 21 52  1  0
 22 53  1  0
 24 54  1  0
 24 55  1  0
 24 56  1  0
 26 57  1  0
 29 58  1  0
 31 59  1  0
 34 60  1  0
 34 61  1  0
 34 62  1  0
 36 63  1  0
 37 64  1  0
 37 65  1  0
 38 66  1  0
 38 67  1  0
M  END
$$$$
[H]c1c([H])c(C([H])([H])N2C([H])([H])C([H])([H])N(C([H])([H])[H])C([H])([H])C2([H])[H])c(C(F)(F)F)c([H])c1C(=O)N([H])c1c([H])c([H])c(C([H])([H])[H])c(C(=O)N([H])c2c([H])c([H])c(C([H])([H])[H])c(C(=O)N([H])[H])c2[H])c1[H]
     RDKit          3D

 73 76  0  0  0  0  0  0  0  0999 V2000
   -9.9776    1.6591   -2.0986 C   0  0  0  0  0  0  0  0  0  0  0  0
   -9.7451    0.4289   -1.3941 N   0  0  0  0  0  0  0  0  0  0  0  0
   -9.2208   -0.5563   -2.3264 C   0  0  0  0  0  0  0  0  0  0  0  0
   -8.2008   -1.4344   -1.6345 C   0  0  0  0  0  0  0  0  0  0  0  0
   -6.9643   -0.7118   -1.3211 N   0  0  0  0  0  0  0  0  0  0  0  0
   -6.3759   -1.4955   -0.2160 C   0  0  0  0  0  0  0  0  0  0  0  0
   -5.0422   -1.0487    0.1772 C   0  0  0  0  0  0  0  0  0  0  0  0
   -4.3589   -0.0346   -0.5002 C   0  0  0  0  0  0  0  0  0  0  0  0
   -3.0768    0.3701   -0.1339 C   0  0  0  0  0  0  0  0  0  0  0  0
   -2.4483   -0.2319    0.9202 C   0  0  0  0  0  0  0  0  0  0  0  0
   -3.1203   -1.2293    1.5854 C   0  0  0  0  0  0  0  0  0  0  0  0
   -4.4058   -1.6516    1.2360 C   0  0  0  0  0  0  0  0  0  0  0  0
   -5.0479   -2.7246    1.9942 C   0  0  0  0  0  0  0  0  0  0  0  0
   -5.3565   -3.8543    1.2665 F   0  0  0  0  0  0  0  0  0  0  0  0
   -6.1378   -2.2850    2.7342 F   0  0  0  0  0  0  0  0  0  0  0  0
   -4.1509   -3.1875    2.9768 F   0  0  0  0  0  0  0  0  0  0  0  0
   -1.0913    0.1224    1.3712 C   0  0  0  0  0  0  0  0  0  0  0  0
   -0.8910    0.1565    2.6304 O   0  0  0  0  0  0  0  0  0  0  0  0
   -0.0469    0.4109    0.5057 N   0  0  0  0  0  0  0  0  0  0  0  0
    1.2502    0.7571    1.0077 C   0  0  0  0  0  0  0  0  0  0  0  0
    1.4470    1.5355    2.1211 C   0  0  0  0  0  0  0  0  0  0  0  0
    2.7139    1.8031    2.6008 C   0  0  0  0  0  0  0  0  0  0  0  0
    3.8648    1.2947    1.9760 C   0  0  0  0  0  0  0  0  0  0  0  0
    5.1824    1.5819    2.5774 C   0  0  0  0  0  0  0  0  0  0  0  0
    3.6671    0.5260    0.8730 C   0  0  0  0  0  0  0  0  0  0  0  0
    2.3826    0.2598    0.3942 C   0  0  0  0  0  0  0  0  0  0  0  0
    4.7499   -0.0510    0.0886 C   0  0  0  0  0  0  0  0  0  0  0  0
    4.4840   -1.1852   -0.4728 O   0  0  0  0  0  0  0  0  0  0  0  0
    6.0209    0.4711   -0.1267 N   0  0  0  0  0  0  0  0  0  0  0  0
    7.1098   -0.0437   -0.8468 C   0  0  0  0  0  0  0  0  0  0  0  0
    7.0857   -1.2470   -1.4802 C   0  0  0  0  0  0  0  0  0  0  0  0
    8.2239   -1.6939   -2.1699 C   0  0  0  0  0  0  0  0  0  0  0  0
    9.3737   -0.9416   -2.2235 C   0  0  0  0  0  0  0  0  0  0  0  0
   10.5764   -1.4256   -2.9594 C   0  0  0  0  0  0  0  0  0  0  0  0
    9.4129    0.2797   -1.5868 C   0  0  0  0  0  0  0  0  0  0  0  0
    8.2805    0.6833   -0.9228 C   0  0  0  0  0  0  0  0  0  0  0  0
   10.5785    1.1501   -1.5801 C   0  0  0  0  0  0  0  0  0  0  0  0
   10.4957    2.4117   -0.8907 N   0  0  0  0  0  0  0  0  0  0  0  0
   11.6422    0.8360   -2.1524 O   0  0  0  0  0  0  0  0  0  0  0  0
   -7.3662    0.5999   -0.8120 C   0  0  0  0  0  0  0  0  0  0  0  0
   -8.8037    0.5885   -0.3055 C   0  0  0  0  0  0  0  0  0  0  0  0
  -10.5134    1.4844   -3.0605 H   0  0  0  0  0  0  0  0  0  0  0  0
  -10.6349    2.3082   -1.4628 H   0  0  0  0  0  0  0  0  0  0  0  0
   -9.0285    2.1598   -2.3467 H   0  0  0  0  0  0  0  0  0  0  0  0
   -8.8446   -0.1030   -3.2428 H   0  0  0  0  0  0  0  0  0  0  0  0
  -10.0795   -1.2184   -2.5699 H   0  0  0  0  0  0  0  0  0  0  0  0
   -8.6537   -1.9145   -0.7633 H   0  0  0  0  0  0  0  0  0  0  0  0
   -7.9104   -2.2257   -2.3513 H   0  0  0  0  0  0  0  0  0  0  0  0
   -7.0719   -1.3356    0.6329 H   0  0  0  0  0  0  0  0  0  0  0  0
   -6.4555   -2.5824   -0.4629 H   0  0  0  0  0  0  0  0  0  0  0  0
   -4.8024    0.4690   -1.3404 H   0  0  0  0  0  0  0  0  0  0  0  0
   -2.5541    1.1544   -0.6618 H   0  0  0  0  0  0  0  0  0  0  0  0
   -2.6132   -1.7079    2.4282 H   0  0  0  0  0  0  0  0  0  0  0  0
   -0.1944    0.3794   -0.5464 H   0  0  0  0  0  0  0  0  0  0  0  0
    0.5980    1.9656    2.6321 H   0  0  0  0  0  0  0  0  0  0  0  0
    2.8777    2.4201    3.4836 H   0  0  0  0  0  0  0  0  0  0  0  0
    5.0045    1.6985    3.6981 H   0  0  0  0  0  0  0  0  0  0  0  0
    5.6022    2.5700    2.2964 H   0  0  0  0  0  0  0  0  0  0  0  0
    5.9022    0.7433    2.5330 H   0  0  0  0  0  0  0  0  0  0  0  0
    2.2256   -0.3588   -0.4941 H   0  0  0  0  0  0  0  0  0  0  0  0
    6.1644    1.4474    0.3051 H   0  0  0  0  0  0  0  0  0  0  0  0
    6.2598   -1.9257   -1.5147 H   0  0  0  0  0  0  0  0  0  0  0  0
    8.2282   -2.6484   -2.6814 H   0  0  0  0  0  0  0  0  0  0  0  0
   11.4393   -1.5508   -2.3141 H   0  0  0  0  0  0  0  0  0  0  0  0
   10.2892   -2.4058   -3.4544 H   0  0  0  0  0  0  0  0  0  0  0  0
   10.8142   -0.7206   -3.7776 H   0  0  0  0  0  0  0  0  0  0  0  0
    8.3175    1.6582   -0.4166 H   0  0  0  0  0  0  0  0  0  0  0  0
   10.3415    3.2974   -1.4250 H   0  0  0  0  0  0  0  0  0  0  0  0
   10.5832    2.4959    0.1417 H   0  0  0  0  0  0  0  0  0  0  0  0
   -7.2792    1.3827   -1.5828 H   0  0  0  0  0  0  0  0  0  0  0  0
   -6.7578    0.8955    0.0505 H   0  0  0  0  0  0  0  0  0  0  0  0
   -9.0051    1.5311    0.1973 H   0  0  0  0  0  0  0  0  0  0  0  0
   -8.9623   -0.2562    0.3886 H   0  0  0  0  0  0  0  0  0  0  0  0
  1  2  1  0
  2  3  1  0
  3  4  1  0
  4  5  1  0
  5  6  1  0
  6  7  1  0
  7  8  2  0
  8  9  1  0
  9 10  2  0
 10 11  1  0
 11 12  2  0
 12 13  1  0
 13 14  1  0
 13 15  1  0
 13 16  1  0
 10 17  1  0
 17 18  2  0
 17 19  1  0
 19 20  1  0
 20 21  2  0
 21 22  1  0
 22 23  2  0
 23 24  1  0
 23 25  1  0
 25 26  2  0
 25 27  1  0
 27 28  2  0
 27 29  1  0
 29 30  1  0
 30 31  2  0
 31 32  1  0
 32 33  2  0
 33 34  1  0
 33 35  1  0
 35 36  2  0
 35 37  1  0
 37 38  1  0
 37 39  2  0
  5 40  1  0
 40 41  1  0
 41  2  1  0
 12  7  1  0
 26 20  1  0
 36 30  1  0
  1 42  1  0
  1 43  1  0
  1 44  1  0
  3 45  1  0
  3 46  1  0
  4 47  1  0
  4 48  1  0
  6 49  1  0
  6 50  1  0
  8 51  1  0
  9 52  1  0
 11 53  1  0
 19 54  1  0
 21 55  1  0
 22 56  1  0
 24 57  1  0
 24 58  1  0
 24 59  1  0
 26 60  1  0
 29 61  1  0
 31 62  1  0
 32 63  1  0
 34 64  1  0
 34 65  1  0
 34 66  1  0
 36 67  1  0
 38 68  1  0
 38 69  1  0
 40 70  1  0
 40 71  1  0
 41 72  1  0
 41 73  1  0
M  END
$$$$
[H]OC([H])([H])[C@@]([H])(O[H])C([H])([H])N([H])C(=O)c1c(C([H])([H])[H])c(/C([H])=C2\C(=O)N([H])c3c([H])c([H])c(F)c([H])c32)n([H])c1C([H])([H])[H]
     RDKit          3D

 47 49  0  0  0  0  0  0  0  0999 V2000
   -1.0673    2.1276   -2.1376 C   0  0  0  0  0  0  0  0  0  0  0  0
   -0.4521    1.0862   -1.2542 C   0  0  0  0  0  0  0  0  0  0  0  0
    0.8790    0.8569   -1.1313 N   0  0  0  0  0  0  0  0  0  0  0  0
    1.1294   -0.1512   -0.3048 C   0  0  0  0  0  0  0  0  0  0  0  0
    2.4205   -0.6814    0.0973 C   0  0  0  0  0  0  0  0  0  0  0  0
    3.3969   -0.0019    0.6712 C   0  0  0  0  0  0  0  0  0  0  0  0
    3.3725    1.3994    1.0196 C   0  0  0  0  0  0  0  0  0  0  0  0
    2.4457    2.2151    0.8754 O   0  0  0  0  0  0  0  0  0  0  0  0
    4.6718    1.6879    1.5913 N   0  0  0  0  0  0  0  0  0  0  0  0
    5.4542    0.4951    1.5880 C   0  0  0  0  0  0  0  0  0  0  0  0
    6.7464    0.2165    2.0137 C   0  0  0  0  0  0  0  0  0  0  0  0
    7.3227   -1.0226    1.9202 C   0  0  0  0  0  0  0  0  0  0  0  0
    6.5851   -2.0534    1.3745 C   0  0  0  0  0  0  0  0  0  0  0  0
    7.0615   -3.2962    1.2417 F   0  0  0  0  0  0  0  0  0  0  0  0
    5.2890   -1.7806    0.9458 C   0  0  0  0  0  0  0  0  0  0  0  0
    4.7277   -0.5359    1.0467 C   0  0  0  0  0  0  0  0  0  0  0  0
   -0.0806   -0.6167    0.1437 C   0  0  0  0  0  0  0  0  0  0  0  0
   -0.3512   -1.7362    1.0894 C   0  0  0  0  0  0  0  0  0  0  0  0
   -1.0696    0.1695   -0.4586 C   0  0  0  0  0  0  0  0  0  0  0  0
   -2.5169   -0.0245   -0.1573 C   0  0  0  0  0  0  0  0  0  0  0  0
   -2.8625   -1.1710    0.2760 O   0  0  0  0  0  0  0  0  0  0  0  0
   -3.4817    0.9608   -0.3187 N   0  0  0  0  0  0  0  0  0  0  0  0
   -4.8751    1.0447   -0.1550 C   0  0  0  0  0  0  0  0  0  0  0  0
   -5.8120    0.3216   -1.0170 C   0  0  2  0  0  0  0  0  0  0  0  0
   -7.1455    0.7091   -0.6232 O   0  0  0  0  0  0  0  0  0  0  0  0
   -5.7586   -1.1655   -1.0054 C   0  0  0  0  0  0  0  0  0  0  0  0
   -6.0414   -1.7002    0.2609 O   0  0  0  0  0  0  0  0  0  0  0  0
   -0.2952    2.3632   -2.9382 H   0  0  0  0  0  0  0  0  0  0  0  0
   -1.9392    1.7055   -2.6644 H   0  0  0  0  0  0  0  0  0  0  0  0
   -1.2427    3.0649   -1.6172 H   0  0  0  0  0  0  0  0  0  0  0  0
    1.5805    1.4398   -1.6702 H   0  0  0  0  0  0  0  0  0  0  0  0
    2.6607   -1.7528   -0.0702 H   0  0  0  0  0  0  0  0  0  0  0  0
    4.9452    2.6250    1.9341 H   0  0  0  0  0  0  0  0  0  0  0  0
    7.3334    1.0289    2.4460 H   0  0  0  0  0  0  0  0  0  0  0  0
    8.3383   -1.2273    2.2585 H   0  0  0  0  0  0  0  0  0  0  0  0
    4.7192   -2.6192    0.5131 H   0  0  0  0  0  0  0  0  0  0  0  0
   -0.8427   -2.5508    0.4820 H   0  0  0  0  0  0  0  0  0  0  0  0
    0.5802   -2.1909    1.4613 H   0  0  0  0  0  0  0  0  0  0  0  0
   -1.0033   -1.3862    1.9008 H   0  0  0  0  0  0  0  0  0  0  0  0
   -3.0577    1.9360   -0.6283 H   0  0  0  0  0  0  0  0  0  0  0  0
   -5.2368    2.1259   -0.1272 H   0  0  0  0  0  0  0  0  0  0  0  0
   -5.1576    0.7432    0.9415 H   0  0  0  0  0  0  0  0  0  0  0  0
   -5.6583    0.6555   -2.0719 H   0  0  0  0  0  0  0  0  0  0  0  0
   -7.2234    1.6847   -0.6623 H   0  0  0  0  0  0  0  0  0  0  0  0
   -4.8590   -1.5534   -1.4473 H   0  0  0  0  0  0  0  0  0  0  0  0
   -6.6326   -1.5167   -1.6902 H   0  0  0  0  0  0  0  0  0  0  0  0
   -6.9967   -1.9286    0.3708 H   0  0  0  0  0  0  0  0  0  0  0  0
  1  2  1  0
  2  3  1  0
  3  4  1  0
  4  5  1  0
  5  6  2  0
  6  7  1  0
  7  8  2  0
  7  9  1  0
  9 10  1  0
 10 11  2  0
 11 12  1  0
 12 13  2  0
 13 14  1  0
 13 15  1  0
 15 16  2  0
  4 17  2  0
 17 18  1  0
 17 19  1  0
 19 20  1  0
 20 21  2  0
 20 22  1  0
 22 23  1  0
 23 24  1  0
 24 25  1  0
 24 26  1  0
 26 27  1  0
 19  2  2  0
 16  6  1  0
 16 10  1  0
  1 28  1  0
  1 29  1  0
  1 30  1  0
  3 31  1  0
  5 32  1  0
  9 33  1  0
 11 34  1  0
 12 35  1  0
 15 36  1  0
 18 37  1  0
 18 38  1  0
 18 39  1  0
 22 40  1  0
 23 41  1  0
 23 42  1  0
 24 43  1  6
 25 44  1  0
 26 45  1  0
 26 46  1  0
 27 47  1  0
M  END
$$$$
[H]c1c([H])c(C([H])([H])N2C([H])([H])C([H])([H])N(C([H])([H])[H])C([H])([H])C2([H])[H])c(C(F)(F)F)c([H])c1C(=O)N([H])c1c([H])c([H])c(C([H])([H])[H])c(C(=O)N([H])c2c([H])c([H])c(C([H])([H])[H])c(N3C([H])([H])C([H])([H])OC([H])([H])C3([H])[H])c2[H])c1[H]
     RDKit          3D

 82 86  0  0  0  0  0  0  0  0999 V2000
    7.1877   -1.5770    4.9503 C   0  0  0  0  0  0  0  0  0  0  0  0
    8.0702   -1.4710    3.8237 N   0  0  0  0  0  0  0  0  0  0  0  0
    8.5119   -0.1290    3.5587 C   0  0  0  0  0  0  0  0  0  0  0  0
    8.5512    0.0928    2.0766 C   0  0  0  0  0  0  0  0  0  0  0  0
    7.1857    0.2277    1.5124 N   0  0  0  0  0  0  0  0  0  0  0  0
    7.2875    0.1818    0.0688 C   0  0  0  0  0  0  0  0  0  0  0  0
    6.0493    0.4119   -0.6682 C   0  0  0  0  0  0  0  0  0  0  0  0
    4.8386    0.6807   -0.0484 C   0  0  0  0  0  0  0  0  0  0  0  0
    3.6648    0.9127   -0.7391 C   0  0  0  0  0  0  0  0  0  0  0  0
    3.7153    0.8720   -2.1047 C   0  0  0  0  0  0  0  0  0  0  0  0
    4.8985    0.6094   -2.7291 C   0  0  0  0  0  0  0  0  0  0  0  0
    6.0917    0.3727   -2.0594 C   0  0  0  0  0  0  0  0  0  0  0  0
    7.3429    0.0923   -2.7878 C   0  0  0  0  0  0  0  0  0  0  0  0
    7.8947   -1.1401   -2.5243 F   0  0  0  0  0  0  0  0  0  0  0  0
    7.0280    0.0614   -4.1542 F   0  0  0  0  0  0  0  0  0  0  0  0
    8.2706    1.1105   -2.6697 F   0  0  0  0  0  0  0  0  0  0  0  0
    2.5215    1.0907   -2.9519 C   0  0  0  0  0  0  0  0  0  0  0  0
    2.7207    1.4960   -4.1113 O   0  0  0  0  0  0  0  0  0  0  0  0
    1.2657    0.8375   -2.4258 N   0  0  0  0  0  0  0  0  0  0  0  0
    0.0203    0.9894   -3.0955 C   0  0  0  0  0  0  0  0  0  0  0  0
   -0.1445    1.2688   -4.4185 C   0  0  0  0  0  0  0  0  0  0  0  0
   -1.3788    1.4059   -4.9941 C   0  0  0  0  0  0  0  0  0  0  0  0
   -2.5460    1.2615   -4.2306 C   0  0  0  0  0  0  0  0  0  0  0  0
   -3.8336    1.4739   -4.8981 C   0  0  0  0  0  0  0  0  0  0  0  0
   -2.4135    0.9810   -2.9105 C   0  0  0  0  0  0  0  0  0  0  0  0
   -1.1524    0.8482   -2.3501 C   0  0  0  0  0  0  0  0  0  0  0  0
   -3.5402    0.7280   -2.0194 C   0  0  0  0  0  0  0  0  0  0  0  0
   -3.3412    1.1298   -0.8151 O   0  0  0  0  0  0  0  0  0  0  0  0
   -4.7379    0.1097   -2.3805 N   0  0  0  0  0  0  0  0  0  0  0  0
   -5.8641   -0.1549   -1.5499 C   0  0  0  0  0  0  0  0  0  0  0  0
   -7.1083   -0.4213   -2.1512 C   0  0  0  0  0  0  0  0  0  0  0  0
   -8.2411   -0.7020   -1.4353 C   0  0  0  0  0  0  0  0  0  0  0  0
   -8.1851   -0.7304   -0.0564 C   0  0  0  0  0  0  0  0  0  0  0  0
   -9.4293   -1.0334    0.7422 C   0  0  0  0  0  0  0  0  0  0  0  0
   -6.9832   -0.4742    0.5524 C   0  0  0  0  0  0  0  0  0  0  0  0
   -5.8277   -0.1880   -0.1896 C   0  0  0  0  0  0  0  0  0  0  0  0
   -6.8844   -0.4868    1.9528 N   0  0  0  0  0  0  0  0  0  0  0  0
   -7.1695   -1.6367    2.7772 C   0  0  0  0  0  0  0  0  0  0  0  0
   -6.3886   -1.4255    4.0863 C   0  0  0  0  0  0  0  0  0  0  0  0
   -6.7826   -0.2989    4.7615 O   0  0  0  0  0  0  0  0  0  0  0  0
   -7.2267    0.7424    3.9749 C   0  0  0  0  0  0  0  0  0  0  0  0
   -6.4636    0.7141    2.6689 C   0  0  0  0  0  0  0  0  0  0  0  0
    6.4643   -0.9106    2.0366 C   0  0  0  0  0  0  0  0  0  0  0  0
    7.3742   -1.9458    2.6426 C   0  0  0  0  0  0  0  0  0  0  0  0
    6.1462   -1.8279    4.6466 H   0  0  0  0  0  0  0  0  0  0  0  0
    7.1550   -0.6595    5.5831 H   0  0  0  0  0  0  0  0  0  0  0  0
    7.5274   -2.4173    5.5919 H   0  0  0  0  0  0  0  0  0  0  0  0
    9.5777   -0.0248    3.9139 H   0  0  0  0  0  0  0  0  0  0  0  0
    7.9113    0.6527    4.0253 H   0  0  0  0  0  0  0  0  0  0  0  0
    9.0931    1.0533    1.8895 H   0  0  0  0  0  0  0  0  0  0  0  0
    9.0773   -0.6724    1.4982 H   0  0  0  0  0  0  0  0  0  0  0  0
    8.1302    0.8444   -0.2132 H   0  0  0  0  0  0  0  0  0  0  0  0
    7.6417   -0.8723   -0.1482 H   0  0  0  0  0  0  0  0  0  0  0  0
    4.7644    0.7329    1.0456 H   0  0  0  0  0  0  0  0  0  0  0  0
    2.7304    1.1247   -0.2185 H   0  0  0  0  0  0  0  0  0  0  0  0
    4.9600    0.5727   -3.8237 H   0  0  0  0  0  0  0  0  0  0  0  0
    1.2506    0.4823   -1.4064 H   0  0  0  0  0  0  0  0  0  0  0  0
    0.7023    1.3862   -5.0655 H   0  0  0  0  0  0  0  0  0  0  0  0
   -1.4633    1.6292   -6.0522 H   0  0  0  0  0  0  0  0  0  0  0  0
   -3.6564    2.2941   -5.6696 H   0  0  0  0  0  0  0  0  0  0  0  0
   -4.2041    0.6072   -5.4763 H   0  0  0  0  0  0  0  0  0  0  0  0
   -4.5903    1.9306   -4.2212 H   0  0  0  0  0  0  0  0  0  0  0  0
   -1.0485    0.6260   -1.2890 H   0  0  0  0  0  0  0  0  0  0  0  0
   -4.8388   -0.2511   -3.3754 H   0  0  0  0  0  0  0  0  0  0  0  0
   -7.1184   -0.3889   -3.2327 H   0  0  0  0  0  0  0  0  0  0  0  0
   -9.1766   -0.9002   -1.9408 H   0  0  0  0  0  0  0  0  0  0  0  0
   -9.5165   -0.3421    1.5774 H   0  0  0  0  0  0  0  0  0  0  0  0
   -9.4540   -2.1018    0.9853 H   0  0  0  0  0  0  0  0  0  0  0  0
  -10.3150   -0.8665    0.0624 H   0  0  0  0  0  0  0  0  0  0  0  0
   -4.9170   -0.0099    0.3518 H   0  0  0  0  0  0  0  0  0  0  0  0
   -6.7423   -2.5752    2.3566 H   0  0  0  0  0  0  0  0  0  0  0  0
   -8.2424   -1.7707    3.0143 H   0  0  0  0  0  0  0  0  0  0  0  0
   -6.5157   -2.2919    4.7586 H   0  0  0  0  0  0  0  0  0  0  0  0
   -5.3170   -1.4072    3.7576 H   0  0  0  0  0  0  0  0  0  0  0  0
   -6.8945    1.6905    4.4885 H   0  0  0  0  0  0  0  0  0  0  0  0
   -8.3247    0.7402    3.8140 H   0  0  0  0  0  0  0  0  0  0  0  0
   -5.3776    0.6221    2.9679 H   0  0  0  0  0  0  0  0  0  0  0  0
   -6.6789    1.6324    2.1206 H   0  0  0  0  0  0  0  0  0  0  0  0
    5.8044   -0.5506    2.8652 H   0  0  0  0  0  0  0  0  0  0  0  0
    5.8241   -1.4139    1.2813 H   0  0  0  0  0  0  0  0  0  0  0  0
    8.0840   -2.3812    1.9030 H   0  0  0  0  0  0  0  0  0  0  0  0
    6.6987   -2.8122    2.9168 H   0  0  0  0  0  0  0  0  0  0  0  0
  1  2  1  0
  2  3  1  0
  3  4  1  0
  4  5  1  0
  5  6  1  0
  6  7  1  0
  7  8  2  0
  8  9  1  0
  9 10  2  0
 10 11  1  0
 11 12  2  0
 12 13  1  0
 13 14  1  0
 13 15  1  0
 13 16  1  0
 10 17  1  0
 17 18  2  0
 17 19  1  0
 19 20  1  0
 20 21  2  0
 21 22  1  0
 22 23  2  0
 23 24  1  0
 23 25  1  0
 25 26  2  0
 25 27  1  0
 27 28  2  0
 27 29  1  0
 29 30  1  0
 30 31  2  0
 31 32  1  0
 32 33  2  0
 33 34  1  0
 33 35  1  0
 35 36  2  0
 35 37  1  0
 37 38  1  0
 38 39  1  0
 39 40  1  0
 40 41  1  0
 41 42  1  0
  5 43  1  0
 43 44  1  0
 44  2  1  0
 12  7  1  0
 26 20  1  0
 36 30  1  0
 42 37  1  0
  1 45  1  0
  1 46  1  0
  1 47  1  0
  3 48  1  0
  3 49  1  0
  4 50  1  0
  4 51  1  0
  6 52  1  0
  6 53  1  0
  8 54  1  0
  9 55  1  0
 11 56  1  0
 19 57  1  0
 21 58  1  0
 22 59  1  0
 24 60  1  0
 24 61  1  0
 24 62  1  0
 26 63  1  0
 29 64  1  0
 31 65  1  0
 32 66  1  0
 34 67  1  0
 34 68  1  0
 34 69  1  0
 36 70  1  0
 38 71  1  0
 38 72  1  0
 39 73  1  0
 39 74  1  0
 41 75  1  0
 41 76  1  0
 42 77  1  0
 42 78  1  0
 43 79  1  0
 43 80  1  0
 44 81  1  0
 44 82  1  0
M  END
$$$$
