[H]c1sc([H])c2c1N([H])C(=O)C(c1c([H])c([H])c(-c3c([H])c([H])c4nc(-c5c([H])c([H])c([H])c([H])c5[H])sc4c3[H])c([H])c1[H])=C(C([H])([H])[H])N2[H]
     RDKit          3D

 52 57  0  0  0  0  0  0  0  0999 V2000
   -4.1914    2.1315   -0.9560 C   0  0  0  0  0  0  0  0  0  0  0  0
   -5.0262    0.9826   -0.4527 C   0  0  0  0  0  0  0  0  0  0  0  0
   -4.4473    0.0022    0.2124 C   0  0  0  0  0  0  0  0  0  0  0  0
   -5.0203   -1.2150    0.8073 C   0  0  0  0  0  0  0  0  0  0  0  0
   -4.2151   -1.9121    1.4910 O   0  0  0  0  0  0  0  0  0  0  0  0
   -6.3557   -1.6677    0.6883 N   0  0  0  0  0  0  0  0  0  0  0  0
   -7.4277   -1.1791   -0.1792 C   0  0  0  0  0  0  0  0  0  0  0  0
   -8.5036   -2.0025   -0.3738 C   0  0  0  0  0  0  0  0  0  0  0  0
   -9.5147   -1.1079   -1.4046 S   0  0  0  0  0  0  0  0  0  0  0  0
   -8.5587    0.2902   -1.5706 C   0  0  0  0  0  0  0  0  0  0  0  0
   -7.4533    0.0245   -0.8060 C   0  0  0  0  0  0  0  0  0  0  0  0
   -6.4306    1.0591   -0.7499 N   0  0  0  0  0  0  0  0  0  0  0  0
   -3.0130    0.0999    0.3420 C   0  0  0  0  0  0  0  0  0  0  0  0
   -2.4689    0.0639    1.5992 C   0  0  0  0  0  0  0  0  0  0  0  0
   -1.1055    0.1106    1.7498 C   0  0  0  0  0  0  0  0  0  0  0  0
   -0.2594    0.1930    0.6663 C   0  0  0  0  0  0  0  0  0  0  0  0
   -0.8291    0.2272   -0.5869 C   0  0  0  0  0  0  0  0  0  0  0  0
   -2.1988    0.1809   -0.7549 C   0  0  0  0  0  0  0  0  0  0  0  0
    1.1672    0.2552    0.7606 C   0  0  0  0  0  0  0  0  0  0  0  0
    1.8719    0.8465    1.7882 C   0  0  0  0  0  0  0  0  0  0  0  0
    3.2200    0.9147    1.8856 C   0  0  0  0  0  0  0  0  0  0  0  0
    4.0228    0.3441    0.8700 C   0  0  0  0  0  0  0  0  0  0  0  0
    5.3291    0.3314    0.8228 N   0  0  0  0  0  0  0  0  0  0  0  0
    5.9471   -0.2376   -0.1894 C   0  0  0  0  0  0  0  0  0  0  0  0
    4.6490   -0.7966   -1.1463 S   0  0  0  0  0  0  0  0  0  0  0  0
    3.3491   -0.2509   -0.1633 C   0  0  0  0  0  0  0  0  0  0  0  0
    1.9486   -0.3071   -0.2391 C   0  0  0  0  0  0  0  0  0  0  0  0
    7.3953   -0.3400   -0.3911 C   0  0  0  0  0  0  0  0  0  0  0  0
    7.8718   -1.0036   -1.5018 C   0  0  0  0  0  0  0  0  0  0  0  0
    9.2275   -1.1144   -1.7288 C   0  0  0  0  0  0  0  0  0  0  0  0
   10.1080   -0.5464   -0.8203 C   0  0  0  0  0  0  0  0  0  0  0  0
    9.6271    0.1143    0.2857 C   0  0  0  0  0  0  0  0  0  0  0  0
    8.2701    0.2099    0.4880 C   0  0  0  0  0  0  0  0  0  0  0  0
   -4.9305    3.0054   -0.8889 H   0  0  0  0  0  0  0  0  0  0  0  0
   -3.9653    2.0958   -2.0131 H   0  0  0  0  0  0  0  0  0  0  0  0
   -3.4170    2.4453   -0.2622 H   0  0  0  0  0  0  0  0  0  0  0  0
   -6.5944   -2.4539    1.3038 H   0  0  0  0  0  0  0  0  0  0  0  0
   -8.6666   -3.0137    0.0471 H   0  0  0  0  0  0  0  0  0  0  0  0
   -8.7759    1.2057   -2.1581 H   0  0  0  0  0  0  0  0  0  0  0  0
   -6.7565    2.0261   -0.9588 H   0  0  0  0  0  0  0  0  0  0  0  0
   -3.0932    0.0015    2.5162 H   0  0  0  0  0  0  0  0  0  0  0  0
   -0.6900    0.0806    2.7671 H   0  0  0  0  0  0  0  0  0  0  0  0
   -0.1938    0.2925   -1.4840 H   0  0  0  0  0  0  0  0  0  0  0  0
   -2.6004    0.1972   -1.7946 H   0  0  0  0  0  0  0  0  0  0  0  0
    1.2453    1.2886    2.5753 H   0  0  0  0  0  0  0  0  0  0  0  0
    3.6630    1.4061    2.7419 H   0  0  0  0  0  0  0  0  0  0  0  0
    1.5472   -0.7993   -1.0954 H   0  0  0  0  0  0  0  0  0  0  0  0
    7.2127   -1.4571   -2.2268 H   0  0  0  0  0  0  0  0  0  0  0  0
    9.6145   -1.6354   -2.6006 H   0  0  0  0  0  0  0  0  0  0  0  0
   11.1712   -0.6574   -1.0388 H   0  0  0  0  0  0  0  0  0  0  0  0
   10.3533    0.5421    0.9661 H   0  0  0  0  0  0  0  0  0  0  0  0
    7.8909    0.7291    1.3564 H   0  0  0  0  0  0  0  0  0  0  0  0
  1  2  1  0
  2  3  2  0
  3  4  1  0
  4  5  2  0
  4  6  1  0
  6  7  1  0
  7  8  2  0
  8  9  1  0
  9 10  1  0
 10 11  2  0
 11 12  1  0
  3 13  1  0
 13 14  2  0
 14 15  1  0
 15 16  2  0
 16 17  1  0
 17 18  2  0
 16 19  1  0
 19 20  2  0
 20 21  1  0
 21 22  2  0
 22 23  1  0
 23 24  2  0
 24 25  1  0
 25 26  1  0
 26 27  2  0
 24 28  1  0
 28 29  2  0
 29 30  1  0
 30 31  2  0
 31 32  1  0
 32 33  2  0
 12  2  1  0
 18 13  1  0
 27 19  1  0
 33 28  1  0
 11  7  1  0
 26 22  1  0
  1 34  1  0
  1 35  1  0
  1 36  1  0
  6 37  1  0
  8 38  1  0
 10 39  1  0
 12 40  1  0
 14 41  1  0
 15 42  1  0
 17 43  1  0
 18 44  1  0
 20 45  1  0
 21 46  1  0
 27 47  1  0
 29 48  1  0
 30 49  1  0
 31 50  1  0
 32 51  1  0
 33 52  1  0
M  END
$$$$
[H]c1c([H])c(C(=O)N([H])[H])c(N([H])C(=O)N([H])c2c([H])c([H])c3c([H])c([H])c(C(F)(F)F)c([H])c3c2[H])c([H])c1Cl
     RDKit          3D

 41 43  0  0  0  0  0  0  0  0999 V2000
   -6.7995    0.7854   -1.3200 N   0  0  0  0  0  0  0  0  0  0  0  0
   -5.3678    0.8344   -1.0714 C   0  0  0  0  0  0  0  0  0  0  0  0
   -4.6242    1.4122   -1.8605 O   0  0  0  0  0  0  0  0  0  0  0  0
   -4.9436    0.1484    0.1485 C   0  0  0  0  0  0  0  0  0  0  0  0
   -5.8847   -0.4917    0.9567 C   0  0  0  0  0  0  0  0  0  0  0  0
   -5.5259   -1.1738    2.0900 C   0  0  0  0  0  0  0  0  0  0  0  0
   -4.2084   -1.2330    2.4466 C   0  0  0  0  0  0  0  0  0  0  0  0
   -3.7259   -2.1078    3.9050 Cl  0  0  0  0  0  0  0  0  0  0  0  0
   -3.2588   -0.6038    1.6590 C   0  0  0  0  0  0  0  0  0  0  0  0
   -3.6126    0.0820    0.5196 C   0  0  0  0  0  0  0  0  0  0  0  0
   -2.5813    0.7584   -0.1758 N   0  0  0  0  0  0  0  0  0  0  0  0
   -1.2470    0.2684   -0.2127 C   0  0  0  0  0  0  0  0  0  0  0  0
   -0.8789   -0.8065    0.3465 O   0  0  0  0  0  0  0  0  0  0  0  0
   -0.2094    0.9632   -0.8975 N   0  0  0  0  0  0  0  0  0  0  0  0
    1.1094    0.3792   -0.9251 C   0  0  0  0  0  0  0  0  0  0  0  0
    1.2028   -0.9724   -1.2538 C   0  0  0  0  0  0  0  0  0  0  0  0
    2.4405   -1.5699   -1.2117 C   0  0  0  0  0  0  0  0  0  0  0  0
    3.5818   -0.8889   -0.8607 C   0  0  0  0  0  0  0  0  0  0  0  0
    4.7908   -1.5622   -0.8151 C   0  0  0  0  0  0  0  0  0  0  0  0
    5.9422   -0.8848   -0.4380 C   0  0  0  0  0  0  0  0  0  0  0  0
    5.8706    0.4755   -0.1071 C   0  0  0  0  0  0  0  0  0  0  0  0
    4.6455    1.0757   -0.1735 C   0  0  0  0  0  0  0  0  0  0  0  0
    3.4876    0.4553   -0.5372 C   0  0  0  0  0  0  0  0  0  0  0  0
    2.2318    1.0605   -0.5804 C   0  0  0  0  0  0  0  0  0  0  0  0
    7.1223    1.1691    0.2992 C   0  0  0  0  0  0  0  0  0  0  0  0
    7.2557    2.2837   -0.4938 F   0  0  0  0  0  0  0  0  0  0  0  0
    7.0060    1.4783    1.6406 F   0  0  0  0  0  0  0  0  0  0  0  0
    8.1938    0.3462    0.0424 F   0  0  0  0  0  0  0  0  0  0  0  0
   -7.1964   -0.1572   -1.4384 H   0  0  0  0  0  0  0  0  0  0  0  0
   -7.3845    1.6258   -1.3837 H   0  0  0  0  0  0  0  0  0  0  0  0
   -6.9431   -0.4432    0.6759 H   0  0  0  0  0  0  0  0  0  0  0  0
   -6.3040   -1.6570    2.6761 H   0  0  0  0  0  0  0  0  0  0  0  0
   -2.2401   -0.6847    2.0525 H   0  0  0  0  0  0  0  0  0  0  0  0
   -2.7815    1.6530   -0.6465 H   0  0  0  0  0  0  0  0  0  0  0  0
   -0.4277    1.8624   -1.3455 H   0  0  0  0  0  0  0  0  0  0  0  0
    0.3100   -1.4834   -1.5430 H   0  0  0  0  0  0  0  0  0  0  0  0
    2.5071   -2.6371   -1.4679 H   0  0  0  0  0  0  0  0  0  0  0  0
    4.7757   -2.5929   -1.0810 H   0  0  0  0  0  0  0  0  0  0  0  0
    6.8708   -1.4261   -0.4085 H   0  0  0  0  0  0  0  0  0  0  0  0
    4.5737    2.1344    0.0836 H   0  0  0  0  0  0  0  0  0  0  0  0
    2.2271    2.1248   -0.3116 H   0  0  0  0  0  0  0  0  0  0  0  0
  1  2  1  0
  2  3  2  0
  2  4  1  0
  4  5  2  0
  5  6  1  0
  6  7  2  0
  7  8  1  0
  7  9  1  0
  9 10  2  0
 10 11  1  0
 11 12  1  0
 12 13  2  0
 12 14  1  0
 14 15  1  0
 15 16  2  0
 16 17  1  0
 17 18  2  0
 18 19  1  0
 19 20  2  0
 20 21  1  0
 21 22  2  0
 22 23  1  0
 23 24  2  0
 21 25  1  0
 25 26  1  0
 25 27  1  0
 25 28  1  0
 10  4  1  0
 24 15  1  0
 23 18  1  0
  1 29  1  0
  1 30  1  0
  5 31  1  0
  6 32  1  0
  9 33  1  0
 11 34  1  0
 14 35  1  0
 16 36  1  0
 17 37  1  0
 19 38  1  0
 20 39  1  0
 22 40  1  0
 24 41  1  0
M  END
$$$$
[H]O[C@@]([H])(C([H])([H])[H])[C@]([H])(Oc1c([H])c([H])c([H])c([H])c1[H])c1c([H])c([H])c2c(c1[H])c(C([H])([H])C([H])([H])C([H])([H])c1c([H])sc([H])c1[H])c([H])n2[H]
     RDKit          3D

 53 56  0  0  0  0  0  0  0  0999 V2000
   -1.5532    2.1367    1.9763 C   0  0  0  0  0  0  0  0  0  0  0  0
   -2.3596    0.9308    1.7043 C   0  0  2  0  0  0  0  0  0  0  0  0
   -2.1016   -0.1795    2.5088 O   0  0  0  0  0  0  0  0  0  0  0  0
   -2.4687    0.5474    0.2204 C   0  0  2  0  0  0  0  0  0  0  0  0
   -3.6149   -0.2892    0.1765 O   0  0  0  0  0  0  0  0  0  0  0  0
   -4.7777   -0.0276   -0.5318 C   0  0  0  0  0  0  0  0  0  0  0  0
   -5.8042   -0.9565   -0.4755 C   0  0  0  0  0  0  0  0  0  0  0  0
   -7.0032   -0.8264   -1.1221 C   0  0  0  0  0  0  0  0  0  0  0  0
   -7.2142    0.3163   -1.8918 C   0  0  0  0  0  0  0  0  0  0  0  0
   -6.2020    1.2499   -1.9586 C   0  0  0  0  0  0  0  0  0  0  0  0
   -4.9857    1.0993   -1.2921 C   0  0  0  0  0  0  0  0  0  0  0  0
   -1.3020   -0.2657   -0.2359 C   0  0  0  0  0  0  0  0  0  0  0  0
   -1.5720   -1.2117   -1.2347 C   0  0  0  0  0  0  0  0  0  0  0  0
   -0.6126   -2.0310   -1.7710 C   0  0  0  0  0  0  0  0  0  0  0  0
    0.6955   -1.9046   -1.2889 C   0  0  0  0  0  0  0  0  0  0  0  0
    1.8335   -2.5317   -1.6075 N   0  0  0  0  0  0  0  0  0  0  0  0
    2.8367   -2.0152   -0.8423 C   0  0  0  0  0  0  0  0  0  0  0  0
    2.3489   -1.0443   -0.0175 C   0  0  0  0  0  0  0  0  0  0  0  0
    2.9335   -0.1713    0.9978 C   0  0  0  0  0  0  0  0  0  0  0  0
    4.0964   -0.5853    1.7776 C   0  0  0  0  0  0  0  0  0  0  0  0
    5.4045   -0.7813    1.1007 C   0  0  0  0  0  0  0  0  0  0  0  0
    5.8097    0.5227    0.4157 C   0  0  0  0  0  0  0  0  0  0  0  0
    5.5562    0.7476   -0.8791 C   0  0  0  0  0  0  0  0  0  0  0  0
    5.9254    1.9668   -1.3940 C   0  0  0  0  0  0  0  0  0  0  0  0
    6.6147    2.7551   -0.0479 S   0  0  0  0  0  0  0  0  0  0  0  0
    6.4174    1.5283    1.1193 C   0  0  0  0  0  0  0  0  0  0  0  0
    0.9697   -0.9846   -0.3146 C   0  0  0  0  0  0  0  0  0  0  0  0
   -0.0258   -0.1609    0.2180 C   0  0  0  0  0  0  0  0  0  0  0  0
   -1.1224    2.6231    1.0791 H   0  0  0  0  0  0  0  0  0  0  0  0
   -2.1720    2.9107    2.4718 H   0  0  0  0  0  0  0  0  0  0  0  0
   -0.7656    1.8673    2.7176 H   0  0  0  0  0  0  0  0  0  0  0  0
   -3.4274    1.2081    2.0490 H   0  0  0  0  0  0  0  0  0  0  0  0
   -2.9074   -0.7010    2.7350 H   0  0  0  0  0  0  0  0  0  0  0  0
   -2.6024    1.4541   -0.3615 H   0  0  0  0  0  0  0  0  0  0  0  0
   -5.6521   -1.8434    0.1153 H   0  0  0  0  0  0  0  0  0  0  0  0
   -7.7939   -1.5767   -1.0598 H   0  0  0  0  0  0  0  0  0  0  0  0
   -8.1552    0.4136   -2.3969 H   0  0  0  0  0  0  0  0  0  0  0  0
   -6.3481    2.1447   -2.5551 H   0  0  0  0  0  0  0  0  0  0  0  0
   -4.2256    1.8545   -1.3763 H   0  0  0  0  0  0  0  0  0  0  0  0
   -2.6040   -1.3052   -1.6074 H   0  0  0  0  0  0  0  0  0  0  0  0
   -0.8081   -2.7643   -2.5400 H   0  0  0  0  0  0  0  0  0  0  0  0
    1.9338   -3.2865   -2.3233 H   0  0  0  0  0  0  0  0  0  0  0  0
    3.8719   -2.3338   -0.8883 H   0  0  0  0  0  0  0  0  0  0  0  0
    2.1246    0.2065    1.6941 H   0  0  0  0  0  0  0  0  0  0  0  0
    3.2427    0.7927    0.4555 H   0  0  0  0  0  0  0  0  0  0  0  0
    4.2880    0.1741    2.5893 H   0  0  0  0  0  0  0  0  0  0  0  0
    3.8728   -1.5271    2.3498 H   0  0  0  0  0  0  0  0  0  0  0  0
    6.1715   -0.9069    1.9382 H   0  0  0  0  0  0  0  0  0  0  0  0
    5.4818   -1.6275    0.4260 H   0  0  0  0  0  0  0  0  0  0  0  0
    5.0703    0.0055   -1.5602 H   0  0  0  0  0  0  0  0  0  0  0  0
    5.7868    2.3104   -2.4367 H   0  0  0  0  0  0  0  0  0  0  0  0
    6.6988    1.5141    2.1934 H   0  0  0  0  0  0  0  0  0  0  0  0
    0.1964    0.5589    0.9814 H   0  0  0  0  0  0  0  0  0  0  0  0
  1  2  1  0
  2  3  1  0
  2  4  1  0
  4  5  1  0
  5  6  1  0
  6  7  2  0
  7  8  1  0
  8  9  2  0
  9 10  1  0
 10 11  2  0
  4 12  1  0
 12 13  2  0
 13 14  1  0
 14 15  2  0
 15 16  1  0
 16 17  1  0
 17 18  2  0
 18 19  1  0
 19 20  1  0
 20 21  1  0
 21 22  1  0
 22 23  1  0
 23 24  2  0
 24 25  1  0
 25 26  1  0
 18 27  1  0
 27 28  2  0
 11  6  1  0
 28 12  1  0
 27 15  1  0
 26 22  2  0
  1 29  1  0
  1 30  1  0
  1 31  1  0
  2 32  1  1
  3 33  1  0
  4 34  1  6
  7 35  1  0
  8 36  1  0
  9 37  1  0
 10 38  1  0
 11 39  1  0
 13 40  1  0
 14 41  1  0
 16 42  1  0
 17 43  1  0
 19 44  1  0
 19 45  1  0
 20 46  1  0
 20 47  1  0
 21 48  1  0
 21 49  1  0
 23 50  1  0
 24 51  1  0
 26 52  1  0
 28 53  1  0
M  END
$$$$
[H]c1nc2c(C#Cc3c([H])c(C([H])([H])[H])c([H])c([H])c3Cl)c([H])n([H])c2nc1-c1c([H])c([H])c(N([H])S(=O)(=O)C2([H])C([H])([H])C2([H])[H])c([H])c1[H]
     RDKit          3D

 51 55  0  0  0  0  0  0  0  0999 V2000
   -9.0259    1.1997   -2.1459 C   0  0  0  0  0  0  0  0  0  0  0  0
   -8.3631    0.4262   -1.0802 C   0  0  0  0  0  0  0  0  0  0  0  0
   -9.0266   -0.6273   -0.5064 C   0  0  0  0  0  0  0  0  0  0  0  0
   -8.4282   -1.3661    0.4920 C   0  0  0  0  0  0  0  0  0  0  0  0
   -7.1579   -1.0168    0.8904 C   0  0  0  0  0  0  0  0  0  0  0  0
   -6.3828   -1.9499    2.1622 Cl  0  0  0  0  0  0  0  0  0  0  0  0
   -6.4521    0.0313    0.3453 C   0  0  0  0  0  0  0  0  0  0  0  0
   -7.1002    0.7471   -0.6604 C   0  0  0  0  0  0  0  0  0  0  0  0
   -5.1331    0.3375    0.8095 C   0  0  0  0  0  0  0  0  0  0  0  0
   -4.0135    0.5948    1.1820 C   0  0  0  0  0  0  0  0  0  0  0  0
   -2.6937    0.9180    1.6398 C   0  0  0  0  0  0  0  0  0  0  0  0
   -2.2915    1.8520    2.5728 C   0  0  0  0  0  0  0  0  0  0  0  0
   -0.9642    1.8396    2.7127 N   0  0  0  0  0  0  0  0  0  0  0  0
   -0.4827    0.8995    1.8748 C   0  0  0  0  0  0  0  0  0  0  0  0
    0.7510    0.4871    1.6242 N   0  0  0  0  0  0  0  0  0  0  0  0
    1.0128   -0.4906    0.7255 C   0  0  0  0  0  0  0  0  0  0  0  0
   -0.0362   -1.0679    0.0573 C   0  0  0  0  0  0  0  0  0  0  0  0
   -1.3175   -0.6735    0.2855 N   0  0  0  0  0  0  0  0  0  0  0  0
   -1.5422    0.2986    1.1831 C   0  0  0  0  0  0  0  0  0  0  0  0
    2.4114   -0.8615    0.5331 C   0  0  0  0  0  0  0  0  0  0  0  0
    2.8286   -1.8349   -0.3438 C   0  0  0  0  0  0  0  0  0  0  0  0
    4.1604   -2.1416   -0.4830 C   0  0  0  0  0  0  0  0  0  0  0  0
    5.1637   -1.5060    0.2352 C   0  0  0  0  0  0  0  0  0  0  0  0
    6.5272   -1.8535    0.0573 N   0  0  0  0  0  0  0  0  0  0  0  0
    7.8009   -0.7154   -0.1413 S   0  0  0  0  0  0  0  0  0  0  0  0
    7.8540    0.1582    1.0703 O   0  0  0  0  0  0  0  0  0  0  0  0
    9.1319   -1.4465   -0.2016 O   0  0  0  0  0  0  0  0  0  0  0  0
    7.5249    0.2358   -1.5950 C   0  0  0  0  0  0  0  0  0  0  0  0
    6.6091    1.4445   -1.4681 C   0  0  0  0  0  0  0  0  0  0  0  0
    8.0896    1.6036   -1.7263 C   0  0  0  0  0  0  0  0  0  0  0  0
    4.7428   -0.5315    1.1128 C   0  0  0  0  0  0  0  0  0  0  0  0
    3.4078   -0.2238    1.2525 C   0  0  0  0  0  0  0  0  0  0  0  0
   -8.5427    0.9925   -3.1435 H   0  0  0  0  0  0  0  0  0  0  0  0
  -10.1070    0.9776   -2.1688 H   0  0  0  0  0  0  0  0  0  0  0  0
   -8.8169    2.2737   -1.9502 H   0  0  0  0  0  0  0  0  0  0  0  0
  -10.0439   -0.8943   -0.8369 H   0  0  0  0  0  0  0  0  0  0  0  0
   -8.9650   -2.1769    0.9189 H   0  0  0  0  0  0  0  0  0  0  0  0
   -6.5401    1.5768   -1.0913 H   0  0  0  0  0  0  0  0  0  0  0  0
   -2.9423    2.5200    3.1329 H   0  0  0  0  0  0  0  0  0  0  0  0
   -0.3930    2.4287    3.3375 H   0  0  0  0  0  0  0  0  0  0  0  0
    0.1708   -1.8603   -0.6716 H   0  0  0  0  0  0  0  0  0  0  0  0
    2.0738   -2.3558   -0.9248 H   0  0  0  0  0  0  0  0  0  0  0  0
    4.4766   -2.9153   -1.1817 H   0  0  0  0  0  0  0  0  0  0  0  0
    6.7514   -2.8897    0.0498 H   0  0  0  0  0  0  0  0  0  0  0  0
    7.4642   -0.3768   -2.5238 H   0  0  0  0  0  0  0  0  0  0  0  0
    6.2041    1.7319   -0.4844 H   0  0  0  0  0  0  0  0  0  0  0  0
    5.9170    1.6721   -2.3091 H   0  0  0  0  0  0  0  0  0  0  0  0
    8.7407    2.0348   -0.9509 H   0  0  0  0  0  0  0  0  0  0  0  0
    8.3498    1.9337   -2.7524 H   0  0  0  0  0  0  0  0  0  0  0  0
    5.5011    0.0009    1.7072 H   0  0  0  0  0  0  0  0  0  0  0  0
    3.0966    0.5595    1.9610 H   0  0  0  0  0  0  0  0  0  0  0  0
  1  2  1  0
  2  3  2  0
  3  4  1  0
  4  5  2  0
  5  6  1  0
  5  7  1  0
  7  8  2  0
  7  9  1  0
  9 10  3  0
 10 11  1  0
 11 12  2  0
 12 13  1  0
 13 14  1  0
 14 15  2  0
 15 16  1  0
 16 17  2  0
 17 18  1  0
 18 19  2  0
 16 20  1  0
 20 21  2  0
 21 22  1  0
 22 23  2  0
 23 24  1  0
 24 25  1  0
 25 26  2  0
 25 27  2  0
 25 28  1  0
 28 29  1  0
 29 30  1  0
 23 31  1  0
 31 32  2  0
  8  2  1  0
 19 11  1  0
 32 20  1  0
 19 14  1  0
 30 28  1  0
  1 33  1  0
  1 34  1  0
  1 35  1  0
  3 36  1  0
  4 37  1  0
  8 38  1  0
 12 39  1  0
 13 40  1  0
 17 41  1  0
 21 42  1  0
 22 43  1  0
 24 44  1  0
 28 45  1  0
 29 46  1  0
 29 47  1  0
 30 48  1  0
 30 49  1  0
 31 50  1  0
 32 51  1  0
M  END
$$$$
[H]O[C@@]1([H])C([H])([H])C([H])([H])[C@]2([H])C([H])([H])C([H])([H])[C@@]3([H])C([H])=C([H])[C@@]3([H])C3([H])C([H])([H])[C@]([H])(C([H])=O)[C@]1(N([H])[H])C([H])([H])C([H])([H])C([H])([H])[C@]32[H]
     RDKit          3D

 51 54  0  0  0  0  0  0  0  0999 V2000
   -3.2943    1.2252   -0.6332 N   0  0  0  0  0  0  0  0  0  0  0  0
   -2.0797    0.4698   -0.1758 C   0  0  2  0  0  0  0  0  0  0  0  0
   -2.2965    0.4854    1.3066 C   0  0  0  0  0  0  0  0  0  0  0  0
   -1.4885   -0.2062    2.2467 C   0  0  0  0  0  0  0  0  0  0  0  0
   -0.4395   -1.1933    1.9015 C   0  0  0  0  0  0  0  0  0  0  0  0
    0.6492   -0.8135    0.9872 C   0  0  1  0  0  0  0  0  0  0  0  0
    0.7506   -1.4163   -0.3631 C   0  0  1  0  0  0  0  0  0  0  0  0
    2.1593   -1.9404   -0.6181 C   0  0  0  0  0  0  0  0  0  0  0  0
    3.0029   -0.7451   -0.8802 C   0  0  0  0  0  0  0  0  0  0  0  0
    3.3586    0.1251    0.2787 C   0  0  2  0  0  0  0  0  0  0  0  0
    2.4264    0.9331    0.9795 C   0  0  1  0  0  0  0  0  0  0  0  0
    2.9764    2.0692    0.3482 C   0  0  0  0  0  0  0  0  0  0  0  0
    3.8380    1.3797   -0.3037 C   0  0  0  0  0  0  0  0  0  0  0  0
    0.9331    0.6543    0.9170 C   0  0  0  0  0  0  0  0  0  0  0  0
    0.3091    1.4670   -0.1129 C   0  0  0  0  0  0  0  0  0  0  0  0
   -0.9954    1.3338   -0.7082 C   0  0  2  0  0  0  0  0  0  0  0  0
   -1.4561    2.7509   -0.9921 C   0  0  0  0  0  0  0  0  0  0  0  0
   -1.0725    3.4149   -1.9202 O   0  0  0  0  0  0  0  0  0  0  0  0
   -0.2565   -2.3489   -0.8403 C   0  0  0  0  0  0  0  0  0  0  0  0
   -1.3421   -1.5538   -1.5941 C   0  0  0  0  0  0  0  0  0  0  0  0
   -2.3211   -0.8696   -0.7683 C   0  0  2  0  0  0  0  0  0  0  0  0
   -3.5664   -0.9691   -1.4661 O   0  0  0  0  0  0  0  0  0  0  0  0
   -3.1917    1.5393   -1.5977 H   0  0  0  0  0  0  0  0  0  0  0  0
   -3.6561    1.8608    0.0630 H   0  0  0  0  0  0  0  0  0  0  0  0
   -3.3875    0.1660    1.4280 H   0  0  0  0  0  0  0  0  0  0  0  0
   -2.3800    1.5916    1.5611 H   0  0  0  0  0  0  0  0  0  0  0  0
   -1.0575    0.5258    3.0082 H   0  0  0  0  0  0  0  0  0  0  0  0
   -2.1615   -0.7999    2.9636 H   0  0  0  0  0  0  0  0  0  0  0  0
   -0.0306   -1.4582    2.9435 H   0  0  0  0  0  0  0  0  0  0  0  0
   -0.8575   -2.2085    1.6414 H   0  0  0  0  0  0  0  0  0  0  0  0
    1.5874   -1.2057    1.5164 H   0  0  0  0  0  0  0  0  0  0  0  0
    0.7260   -0.5556   -1.1124 H   0  0  0  0  0  0  0  0  0  0  0  0
    2.1564   -2.5815   -1.4962 H   0  0  0  0  0  0  0  0  0  0  0  0
    2.4825   -2.4808    0.3107 H   0  0  0  0  0  0  0  0  0  0  0  0
    3.9834   -1.1313   -1.2938 H   0  0  0  0  0  0  0  0  0  0  0  0
    2.5629   -0.1872   -1.7294 H   0  0  0  0  0  0  0  0  0  0  0  0
    4.1668   -0.4125    0.8788 H   0  0  0  0  0  0  0  0  0  0  0  0
    2.7690    0.9813    2.0998 H   0  0  0  0  0  0  0  0  0  0  0  0
    2.8281    3.1934    0.3232 H   0  0  0  0  0  0  0  0  0  0  0  0
    4.6554    1.6135   -1.0406 H   0  0  0  0  0  0  0  0  0  0  0  0
    0.5595    1.0153    1.9072 H   0  0  0  0  0  0  0  0  0  0  0  0
    1.0407    1.4997   -0.9894 H   0  0  0  0  0  0  0  0  0  0  0  0
    0.4644    2.5357    0.2691 H   0  0  0  0  0  0  0  0  0  0  0  0
   -0.9424    0.9907   -1.8025 H   0  0  0  0  0  0  0  0  0  0  0  0
   -2.1742    3.1856   -0.3133 H   0  0  0  0  0  0  0  0  0  0  0  0
    0.2275   -2.9581   -1.6711 H   0  0  0  0  0  0  0  0  0  0  0  0
   -0.6745   -3.0890   -0.1744 H   0  0  0  0  0  0  0  0  0  0  0  0
   -0.7819   -0.9668   -2.3396 H   0  0  0  0  0  0  0  0  0  0  0  0
   -1.8547   -2.3422   -2.1982 H   0  0  0  0  0  0  0  0  0  0  0  0
   -2.5378   -1.5676    0.1069 H   0  0  0  0  0  0  0  0  0  0  0  0
   -4.3173   -1.0059   -0.8514 H   0  0  0  0  0  0  0  0  0  0  0  0
  2  1  1  6
  2  3  1  0
  3  4  1  0
  4  5  1  0
  5  6  1  0
  6  7  1  0
  7  8  1  0
  8  9  1  0
  9 10  1  0
 10 11  1  0
 11 12  1  0
 12 13  2  0
 11 14  1  0
 14 15  1  0
 15 16  1  0
 16 17  1  0
 17 18  2  0
  7 19  1  0
 19 20  1  0
 20 21  1  0
 21 22  1  0
 16  2  1  0
 21  2  1  0
 14  6  1  0
 13 10  1  0
  1 23  1  0
  1 24  1  0
  3 25  1  0
  3 26  1  0
  4 27  1  0
  4 28  1  0
  5 29  1  0
  5 30  1  0
  6 31  1  1
  7 32  1  6
  8 33  1  0
  8 34  1  0
  9 35  1  0
  9 36  1  0
 10 37  1  1
 11 38  1  1
 12 39  1  0
 13 40  1  0
 14 41  1  0
 15 42  1  0
 15 43  1  0
 16 44  1  6
 17 45  1  0
 19 46  1  0
 19 47  1  0
 20 48  1  0
 20 49  1  0
 21 50  1  1
 22 51  1  0
M  END
$$$$
[H]Oc1c([H])c([H])c(-n2c(C([H])([H])[H])nc3nc([H])c([H])c([H])c32)c([H])c1N([H])C(=O)c1c([H])c([H])c(N([H])c2nc(N3C([H])([H])C([H])([H])N(C([H])([H])[H])C([H])([H])C3([H])[H])nc3c([H])c([H])c([H])c([H])c23)c([H])c1[H]
     RDKit          3D

 75 81  0  0  0  0  0  0  0  0999 V2000
   -6.5667    0.4070   -2.2033 C   0  0  0  0  0  0  0  0  0  0  0  0
   -6.1453    1.7764   -2.4353 N   0  0  0  0  0  0  0  0  0  0  0  0
   -6.9462    2.6262   -1.6103 C   0  0  0  0  0  0  0  0  0  0  0  0
   -6.6545    2.4421   -0.1344 C   0  0  0  0  0  0  0  0  0  0  0  0
   -5.4168    1.7406    0.0501 N   0  0  0  0  0  0  0  0  0  0  0  0
   -4.3084    2.0412   -0.7975 C   0  0  0  0  0  0  0  0  0  0  0  0
   -4.7368    1.8597   -2.2316 C   0  0  0  0  0  0  0  0  0  0  0  0
   -5.3035    0.7588    1.0635 C   0  0  0  0  0  0  0  0  0  0  0  0
   -4.1329    0.1672    1.3509 N   0  0  0  0  0  0  0  0  0  0  0  0
   -3.9264   -0.7672    2.2814 C   0  0  0  0  0  0  0  0  0  0  0  0
   -2.6862   -1.3791    2.5432 N   0  0  0  0  0  0  0  0  0  0  0  0
   -1.4428   -1.1099    1.9366 C   0  0  0  0  0  0  0  0  0  0  0  0
   -1.1489    0.0245    1.2300 C   0  0  0  0  0  0  0  0  0  0  0  0
    0.1152    0.2086    0.6384 C   0  0  0  0  0  0  0  0  0  0  0  0
    1.0874   -0.7489    0.7566 C   0  0  0  0  0  0  0  0  0  0  0  0
    0.8252   -1.8910    1.4554 C   0  0  0  0  0  0  0  0  0  0  0  0
   -0.4182   -2.0459    2.0233 C   0  0  0  0  0  0  0  0  0  0  0  0
    2.4261   -0.5596    0.1533 C   0  0  0  0  0  0  0  0  0  0  0  0
    2.7902    0.6416    0.0503 O   0  0  0  0  0  0  0  0  0  0  0  0
    3.1577   -1.6803   -0.2423 N   0  0  0  0  0  0  0  0  0  0  0  0
    4.4258   -1.7688   -0.8228 C   0  0  0  0  0  0  0  0  0  0  0  0
    5.1935   -0.6740   -1.0947 C   0  0  0  0  0  0  0  0  0  0  0  0
    6.4661   -0.7467   -1.6725 C   0  0  0  0  0  0  0  0  0  0  0  0
    6.9675   -1.9688   -1.9805 C   0  0  0  0  0  0  0  0  0  0  0  0
    6.2280   -3.0980   -1.7233 C   0  0  0  0  0  0  0  0  0  0  0  0
    4.9521   -2.9990   -1.1423 C   0  0  0  0  0  0  0  0  0  0  0  0
    4.2588   -4.1500   -0.9072 O   0  0  0  0  0  0  0  0  0  0  0  0
    7.2153    0.4576   -1.9285 N   0  0  0  0  0  0  0  0  0  0  0  0
    7.7805    0.8182   -3.1023 C   0  0  0  0  0  0  0  0  0  0  0  0
    7.6958   -0.0160   -4.3357 C   0  0  0  0  0  0  0  0  0  0  0  0
    8.3950    2.0022   -2.9555 N   0  0  0  0  0  0  0  0  0  0  0  0
    8.2395    2.4385   -1.6705 C   0  0  0  0  0  0  0  0  0  0  0  0
    8.6600    3.5468   -1.0340 N   0  0  0  0  0  0  0  0  0  0  0  0
    8.3533    3.7206    0.2670 C   0  0  0  0  0  0  0  0  0  0  0  0
    7.6147    2.7556    0.9130 C   0  0  0  0  0  0  0  0  0  0  0  0
    7.1832    1.6230    0.2682 C   0  0  0  0  0  0  0  0  0  0  0  0
    7.4939    1.4421   -1.0577 C   0  0  0  0  0  0  0  0  0  0  0  0
   -5.0567   -1.1433    3.0076 C   0  0  0  0  0  0  0  0  0  0  0  0
   -5.0348   -2.0755    3.9910 C   0  0  0  0  0  0  0  0  0  0  0  0
   -6.1831   -2.4363    4.7083 C   0  0  0  0  0  0  0  0  0  0  0  0
   -7.3724   -1.8454    4.4269 C   0  0  0  0  0  0  0  0  0  0  0  0
   -7.4448   -0.8950    3.4390 C   0  0  0  0  0  0  0  0  0  0  0  0
   -6.2910   -0.5517    2.7388 C   0  0  0  0  0  0  0  0  0  0  0  0
   -6.3834    0.3764    1.7824 N   0  0  0  0  0  0  0  0  0  0  0  0
   -7.2840    0.3355   -1.3391 H   0  0  0  0  0  0  0  0  0  0  0  0
   -7.0375    0.0264   -3.1399 H   0  0  0  0  0  0  0  0  0  0  0  0
   -5.7040   -0.2229   -1.9012 H   0  0  0  0  0  0  0  0  0  0  0  0
   -6.7036    3.6755   -1.8670 H   0  0  0  0  0  0  0  0  0  0  0  0
   -8.0109    2.4656   -1.8477 H   0  0  0  0  0  0  0  0  0  0  0  0
   -6.7095    3.4174    0.3577 H   0  0  0  0  0  0  0  0  0  0  0  0
   -7.4868    1.8240    0.2689 H   0  0  0  0  0  0  0  0  0  0  0  0
   -4.0282    3.1161   -0.6640 H   0  0  0  0  0  0  0  0  0  0  0  0
   -3.4289    1.3809   -0.6116 H   0  0  0  0  0  0  0  0  0  0  0  0
   -4.3886    2.7595   -2.8189 H   0  0  0  0  0  0  0  0  0  0  0  0
   -4.1899    0.9921   -2.6700 H   0  0  0  0  0  0  0  0  0  0  0  0
   -2.6554   -2.1412    3.2908 H   0  0  0  0  0  0  0  0  0  0  0  0
   -1.8411    0.8346    1.0960 H   0  0  0  0  0  0  0  0  0  0  0  0
    0.3429    1.1089    0.0799 H   0  0  0  0  0  0  0  0  0  0  0  0
    1.5761   -2.6743    1.5782 H   0  0  0  0  0  0  0  0  0  0  0  0
   -0.6347   -2.9633    2.5852 H   0  0  0  0  0  0  0  0  0  0  0  0
    2.6462   -2.6163   -0.0729 H   0  0  0  0  0  0  0  0  0  0  0  0
    4.8502    0.3172   -0.8720 H   0  0  0  0  0  0  0  0  0  0  0  0
    7.9545   -2.0295   -2.4277 H   0  0  0  0  0  0  0  0  0  0  0  0
    6.6082   -4.0780   -1.9603 H   0  0  0  0  0  0  0  0  0  0  0  0
    3.3853   -4.3420   -0.5265 H   0  0  0  0  0  0  0  0  0  0  0  0
    6.7547   -0.6054   -4.3596 H   0  0  0  0  0  0  0  0  0  0  0  0
    7.6618    0.6560   -5.2241 H   0  0  0  0  0  0  0  0  0  0  0  0
    8.5935   -0.6525   -4.4622 H   0  0  0  0  0  0  0  0  0  0  0  0
    8.6831    4.6141    0.8131 H   0  0  0  0  0  0  0  0  0  0  0  0
    7.3587    2.8887    1.9778 H   0  0  0  0  0  0  0  0  0  0  0  0
    6.5964    0.8479    0.7649 H   0  0  0  0  0  0  0  0  0  0  0  0
   -4.1216   -2.5730    4.2569 H   0  0  0  0  0  0  0  0  0  0  0  0
   -6.0890   -3.1976    5.4892 H   0  0  0  0  0  0  0  0  0  0  0  0
   -8.2761   -2.0996    4.9602 H   0  0  0  0  0  0  0  0  0  0  0  0
   -8.3471   -0.3897    3.1656 H   0  0  0  0  0  0  0  0  0  0  0  0
  1  2  1  0
  2  3  1  0
  3  4  1  0
  4  5  1  0
  5  6  1  0
  6  7  1  0
  5  8  1  0
  8  9  2  0
  9 10  1  0
 10 11  1  0
 11 12  1  0
 12 13  2  0
 13 14  1  0
 14 15  2  0
 15 16  1  0
 16 17  2  0
 15 18  1  0
 18 19  2  0
 18 20  1  0
 20 21  1  0
 21 22  2  0
 22 23  1  0
 23 24  2  0
 24 25  1  0
 25 26  2  0
 26 27  1  0
 23 28  1  0
 28 29  1  0
 29 30  1  0
 29 31  2  0
 31 32  1  0
 32 33  2  0
 33 34  1  0
 34 35  2  0
 35 36  1  0
 36 37  2  0
 10 38  2  0
 38 39  1  0
 39 40  2  0
 40 41  1  0
 41 42  2  0
 42 43  1  0
 43 44  2  0
  7  2  1  0
 44  8  1  0
 17 12  1  0
 26 21  1  0
 37 28  1  0
 43 38  1  0
 37 32  1  0
  1 45  1  0
  1 46  1  0
  1 47  1  0
  3 48  1  0
  3 49  1  0
  4 50  1  0
  4 51  1  0
  6 52  1  0
  6 53  1  0
  7 54  1  0
  7 55  1  0
 11 56  1  0
 13 57  1  0
 14 58  1  0
 16 59  1  0
 17 60  1  0
 20 61  1  0
 22 62  1  0
 24 63  1  0
 25 64  1  0
 27 65  1  0
 30 66  1  0
 30 67  1  0
 30 68  1  0
 34 69  1  0
 35 70  1  0
 36 71  1  0
 39 72  1  0
 40 73  1  0
 41 74  1  0
 42 75  1  0
M  END
$$$$
