[H]N=C(OP(=O)(O[H])C([H])(C([H])([H])c1c([H])c([H])c([H])c([H])c1[H])C([H])(C(=O)O[H])N([H])C(=S)N(c1c([H])c([H])c([H])c([H])c1[H])c1c([H])c([H])c(Cl)c([H])c1[H])C([H])=C(C([H])([H])[H])C([H])([H])[H]
     RDKit          3D

 68 70  0  0  0  0  0  0  0  0999 V2000
    2.4330   -5.2602   -0.3236 C   0  0  0  0  0  0  0  0  0  0  0  0
    3.0226   -3.8566   -0.2838 C   0  0  0  0  0  0  0  0  0  0  0  0
    4.4959   -3.7967   -0.2670 C   0  0  0  0  0  0  0  0  0  0  0  0
    2.2066   -2.8683   -0.2687 C   0  0  0  0  0  0  0  0  0  0  0  0
    2.5088   -1.4690   -0.2320 C   0  0  0  0  0  0  0  0  0  0  0  0
    3.6683   -1.0111   -0.2087 N   0  0  0  0  0  0  0  0  0  0  0  0
    1.4064   -0.5292   -0.2212 O   0  0  0  0  0  0  0  0  0  0  0  0
    1.9182    1.1217   -0.0397 P   0  0  0  0  0  0  0  0  0  0  0  0
    2.5069    1.2545    1.5163 O   0  0  0  0  0  0  0  0  0  0  0  0
    3.0273    1.2761   -1.0857 O   0  0  0  0  0  0  0  0  0  0  0  0
    0.5781    2.2626   -0.3894 C   0  0  0  0  0  0  0  0  0  0  0  0
    1.1019    3.6625   -0.5446 C   0  0  0  0  0  0  0  0  0  0  0  0
    1.7616    4.1981    0.6809 C   0  0  0  0  0  0  0  0  0  0  0  0
    1.0349    4.7714    1.7065 C   0  0  0  0  0  0  0  0  0  0  0  0
    1.6653    5.2928    2.8301 C   0  0  0  0  0  0  0  0  0  0  0  0
    3.0310    5.2526    2.9524 C   0  0  0  0  0  0  0  0  0  0  0  0
    3.7656    4.6878    1.9438 C   0  0  0  0  0  0  0  0  0  0  0  0
    3.1124    4.1679    0.8195 C   0  0  0  0  0  0  0  0  0  0  0  0
   -0.2988    1.8876   -1.5214 C   0  0  0  0  0  0  0  0  0  0  0  0
   -0.9863    0.5958   -1.2769 N   0  0  0  0  0  0  0  0  0  0  0  0
   -2.1251    0.5757   -0.4709 C   0  0  0  0  0  0  0  0  0  0  0  0
   -2.6316    2.0211    0.1694 S   0  0  0  0  0  0  0  0  0  0  0  0
   -2.9109   -0.5585   -0.1266 N   0  0  0  0  0  0  0  0  0  0  0  0
   -4.0243   -0.3680    0.7160 C   0  0  0  0  0  0  0  0  0  0  0  0
   -4.2746   -1.0281    1.8755 C   0  0  0  0  0  0  0  0  0  0  0  0
   -5.4412   -0.8497    2.6406 C   0  0  0  0  0  0  0  0  0  0  0  0
   -6.3835    0.0406    2.1975 C   0  0  0  0  0  0  0  0  0  0  0  0
   -6.1846    0.7347    1.0357 C   0  0  0  0  0  0  0  0  0  0  0  0
   -5.0440    0.5444    0.3077 C   0  0  0  0  0  0  0  0  0  0  0  0
   -2.4326   -1.8286   -0.6089 C   0  0  0  0  0  0  0  0  0  0  0  0
   -2.1863   -2.9348    0.1326 C   0  0  0  0  0  0  0  0  0  0  0  0
   -1.8326   -4.1256   -0.4666 C   0  0  0  0  0  0  0  0  0  0  0  0
   -1.7129   -4.2442   -1.8356 C   0  0  0  0  0  0  0  0  0  0  0  0
   -1.2681   -5.7315   -2.6222 Cl  0  0  0  0  0  0  0  0  0  0  0  0
   -1.9636   -3.1146   -2.5861 C   0  0  0  0  0  0  0  0  0  0  0  0
   -2.3102   -1.9486   -2.0110 C   0  0  0  0  0  0  0  0  0  0  0  0
    0.3155    1.8818   -2.8434 C   0  0  0  0  0  0  0  0  0  0  0  0
    0.9472    2.9465   -3.3916 O   0  0  0  0  0  0  0  0  0  0  0  0
    0.2681    0.8211   -3.5535 O   0  0  0  0  0  0  0  0  0  0  0  0
    2.6555   -5.6201   -1.3581 H   0  0  0  0  0  0  0  0  0  0  0  0
    3.0397   -5.8836    0.3617 H   0  0  0  0  0  0  0  0  0  0  0  0
    1.3628   -5.2324   -0.0879 H   0  0  0  0  0  0  0  0  0  0  0  0
    4.9269   -3.3201   -1.1861 H   0  0  0  0  0  0  0  0  0  0  0  0
    4.9136   -3.3673    0.6776 H   0  0  0  0  0  0  0  0  0  0  0  0
    4.9504   -4.8326   -0.2925 H   0  0  0  0  0  0  0  0  0  0  0  0
    1.1252   -3.1234   -0.2857 H   0  0  0  0  0  0  0  0  0  0  0  0
    4.6156   -1.2083   -0.2032 H   0  0  0  0  0  0  0  0  0  0  0  0
    2.7056    0.3957    1.9519 H   0  0  0  0  0  0  0  0  0  0  0  0
   -0.1028    2.2995    0.5512 H   0  0  0  0  0  0  0  0  0  0  0  0
    1.8700    3.6628   -1.3878 H   0  0  0  0  0  0  0  0  0  0  0  0
    0.3192    4.3694   -0.8832 H   0  0  0  0  0  0  0  0  0  0  0  0
   -0.0375    4.8216    1.6483 H   0  0  0  0  0  0  0  0  0  0  0  0
    1.0867    5.7431    3.6350 H   0  0  0  0  0  0  0  0  0  0  0  0
    3.5609    5.6489    3.8149 H   0  0  0  0  0  0  0  0  0  0  0  0
    4.8492    4.6424    2.0139 H   0  0  0  0  0  0  0  0  0  0  0  0
    3.7450    3.7540    0.0743 H   0  0  0  0  0  0  0  0  0  0  0  0
   -1.1389    2.6417   -1.5463 H   0  0  0  0  0  0  0  0  0  0  0  0
   -0.5247   -0.1962   -1.7317 H   0  0  0  0  0  0  0  0  0  0  0  0
   -3.5685   -1.7152    2.2868 H   0  0  0  0  0  0  0  0  0  0  0  0
   -5.5692   -1.4172    3.5594 H   0  0  0  0  0  0  0  0  0  0  0  0
   -7.2928    0.1713    2.8068 H   0  0  0  0  0  0  0  0  0  0  0  0
   -6.9337    1.4258    0.7082 H   0  0  0  0  0  0  0  0  0  0  0  0
   -4.8663    1.0575   -0.6321 H   0  0  0  0  0  0  0  0  0  0  0  0
   -2.2316   -2.9213    1.2128 H   0  0  0  0  0  0  0  0  0  0  0  0
   -1.6309   -5.0287    0.1105 H   0  0  0  0  0  0  0  0  0  0  0  0
   -1.8739   -3.1873   -3.6719 H   0  0  0  0  0  0  0  0  0  0  0  0
   -2.5272   -1.0336   -2.6018 H   0  0  0  0  0  0  0  0  0  0  0  0
    1.8074    2.9798   -3.8903 H   0  0  0  0  0  0  0  0  0  0  0  0
  1  2  1  0
  2  3  1  0
  2  4  2  3
  4  5  1  0
  5  6  2  3
  5  7  1  0
  7  8  1  0
  8  9  1  0
  8 10  2  0
  8 11  1  0
 11 12  1  0
 12 13  1  0
 13 14  2  0
 14 15  1  0
 15 16  2  0
 16 17  1  0
 17 18  2  0
 11 19  1  0
 19 20  1  0
 20 21  1  0
 21 22  2  0
 21 23  1  0
 23 24  1  0
 24 25  2  0
 25 26  1  0
 26 27  2  0
 27 28  1  0
 28 29  2  0
 23 30  1  0
 30 31  2  0
 31 32  1  0
 32 33  2  0
 33 34  1  0
 33 35  1  0
 35 36  2  0
 19 37  1  0
 37 38  1  0
 37 39  2  0
 18 13  1  0
 29 24  1  0
 36 30  1  0
  1 40  1  0
  1 41  1  0
  1 42  1  0
  3 43  1  0
  3 44  1  0
  3 45  1  0
  4 46  1  0
  6 47  1  0
  9 48  1  0
 11 49  1  0
 12 50  1  0
 12 51  1  0
 14 52  1  0
 15 53  1  0
 16 54  1  0
 17 55  1  0
 18 56  1  0
 19 57  1  0
 20 58  1  0
 25 59  1  0
 26 60  1  0
 27 61  1  0
 28 62  1  0
 29 63  1  0
 31 64  1  0
 32 65  1  0
 35 66  1  0
 36 67  1  0
 38 68  1  0
M  END
$$$$
[H]c1c([H])c([H])c2c(c1[H])c1c3c(c4c5c([H])c([H])c([H])c([H])c5n5c4c1n2[C@@]1([H])O[C@]5(C([H])([H])[H])[C@@]([H])(OC([H])([H])[H])[C@@]([H])(N([H])C([H])([H])[H])C1([H])[H])C([H])([H])N([H])C3=O
     RDKit          3D

 61 68  0  0  0  0  0  0  0  0999 V2000
   -2.5900    1.1246    2.6909 C   0  0  0  0  0  0  0  0  0  0  0  0
   -2.2701    0.1494    1.6691 N   0  0  0  0  0  0  0  0  0  0  0  0
   -2.7037    0.7256    0.3894 C   0  0  1  0  0  0  0  0  0  0  0  0
   -1.9693    1.9591    0.0600 C   0  0  0  0  0  0  0  0  0  0  0  0
   -1.0374    1.8542   -1.1025 C   0  0  2  0  0  0  0  0  0  0  0  0
   -1.1108    0.8211   -1.8978 O   0  0  0  0  0  0  0  0  0  0  0  0
   -1.4719   -0.4453   -1.4993 C   0  0  2  0  0  0  0  0  0  0  0  0
   -1.8587   -1.0747   -2.8537 C   0  0  0  0  0  0  0  0  0  0  0  0
   -2.6627   -0.3659   -0.6565 C   0  0  1  0  0  0  0  0  0  0  0  0
   -3.0555   -1.5061    0.0270 O   0  0  0  0  0  0  0  0  0  0  0  0
   -4.3079   -1.9695   -0.2639 C   0  0  0  0  0  0  0  0  0  0  0  0
   -0.3020   -1.1026   -0.9411 N   0  0  0  0  0  0  0  0  0  0  0  0
   -0.0368   -2.4107   -0.8661 C   0  0  0  0  0  0  0  0  0  0  0  0
   -0.7505   -3.5118   -1.2342 C   0  0  0  0  0  0  0  0  0  0  0  0
   -0.2313   -4.7829   -1.0386 C   0  0  0  0  0  0  0  0  0  0  0  0
    1.0025   -5.0019   -0.4761 C   0  0  0  0  0  0  0  0  0  0  0  0
    1.7444   -3.8826   -0.0939 C   0  0  0  0  0  0  0  0  0  0  0  0
    1.2038   -2.6348   -0.3003 C   0  0  0  0  0  0  0  0  0  0  0  0
    1.7282   -1.3877   -0.0109 C   0  0  0  0  0  0  0  0  0  0  0  0
    2.9250   -0.9637    0.5498 C   0  0  0  0  0  0  0  0  0  0  0  0
    4.0703   -1.7821    1.0519 C   0  0  0  0  0  0  0  0  0  0  0  0
    5.0490   -0.8360    1.5052 N   0  0  0  0  0  0  0  0  0  0  0  0
    4.5511    0.4878    1.3292 C   0  0  0  0  0  0  0  0  0  0  0  0
    5.2116    1.4752    1.6612 O   0  0  0  0  0  0  0  0  0  0  0  0
    3.2325    0.3685    0.7340 C   0  0  0  0  0  0  0  0  0  0  0  0
    2.2736    1.2731    0.3281 C   0  0  0  0  0  0  0  0  0  0  0  0
    2.1943    2.6494    0.3519 C   0  0  0  0  0  0  0  0  0  0  0  0
    3.0346    3.6410    0.7719 C   0  0  0  0  0  0  0  0  0  0  0  0
    2.6237    4.9672    0.6424 C   0  0  0  0  0  0  0  0  0  0  0  0
    1.4040    5.3207    0.1079 C   0  0  0  0  0  0  0  0  0  0  0  0
    0.5569    4.3176   -0.3154 C   0  0  0  0  0  0  0  0  0  0  0  0
    0.9564    3.0255   -0.1896 C   0  0  0  0  0  0  0  0  0  0  0  0
    0.3179    1.9031   -0.5262 N   0  0  0  0  0  0  0  0  0  0  0  0
    1.0813    0.8475   -0.2300 C   0  0  0  0  0  0  0  0  0  0  0  0
    0.8029   -0.4946   -0.4048 C   0  0  0  0  0  0  0  0  0  0  0  0
   -1.7275    1.7656    2.9459 H   0  0  0  0  0  0  0  0  0  0  0  0
   -3.4000    1.7830    2.2910 H   0  0  0  0  0  0  0  0  0  0  0  0
   -3.0290    0.6437    3.5924 H   0  0  0  0  0  0  0  0  0  0  0  0
   -2.7602   -0.7186    1.9035 H   0  0  0  0  0  0  0  0  0  0  0  0
   -3.7998    0.9480    0.5957 H   0  0  0  0  0  0  0  0  0  0  0  0
   -1.4594    2.3204    1.0029 H   0  0  0  0  0  0  0  0  0  0  0  0
   -2.7065    2.7776   -0.1658 H   0  0  0  0  0  0  0  0  0  0  0  0
   -1.0912    2.7965   -1.7221 H   0  0  0  0  0  0  0  0  0  0  0  0
   -2.0056   -0.3257   -3.6573 H   0  0  0  0  0  0  0  0  0  0  0  0
   -1.0068   -1.6950   -3.1940 H   0  0  0  0  0  0  0  0  0  0  0  0
   -2.8277   -1.6039   -2.8044 H   0  0  0  0  0  0  0  0  0  0  0  0
   -3.5358   -0.1252   -1.3381 H   0  0  0  0  0  0  0  0  0  0  0  0
   -4.4650   -2.8889    0.3782 H   0  0  0  0  0  0  0  0  0  0  0  0
   -4.4865   -2.3125   -1.2897 H   0  0  0  0  0  0  0  0  0  0  0  0
   -5.1216   -1.2643    0.0633 H   0  0  0  0  0  0  0  0  0  0  0  0
   -1.7208   -3.3825   -1.6725 H   0  0  0  0  0  0  0  0  0  0  0  0
   -0.8491   -5.6109   -1.3524 H   0  0  0  0  0  0  0  0  0  0  0  0
    1.4213   -5.9802   -0.3168 H   0  0  0  0  0  0  0  0  0  0  0  0
    2.7206   -4.0420    0.3513 H   0  0  0  0  0  0  0  0  0  0  0  0
    3.7648   -2.4865    1.8473 H   0  0  0  0  0  0  0  0  0  0  0  0
    4.5351   -2.3717    0.2322 H   0  0  0  0  0  0  0  0  0  0  0  0
    5.9960   -1.0989    1.9084 H   0  0  0  0  0  0  0  0  0  0  0  0
    3.9823    3.4684    1.1903 H   0  0  0  0  0  0  0  0  0  0  0  0
    3.2909    5.7541    0.9750 H   0  0  0  0  0  0  0  0  0  0  0  0
    1.0902    6.3566    0.0099 H   0  0  0  0  0  0  0  0  0  0  0  0
   -0.4140    4.5350   -0.7434 H   0  0  0  0  0  0  0  0  0  0  0  0
  1  2  1  0
  2  3  1  0
  3  4  1  0
  4  5  1  0
  5  6  1  0
  6  7  1  0
  7  8  1  6
  7  9  1  0
  9 10  1  0
 10 11  1  0
  7 12  1  0
 12 13  1  0
 13 14  2  0
 14 15  1  0
 15 16  2  0
 16 17  1  0
 17 18  2  0
 18 19  1  0
 19 20  2  0
 20 21  1  0
 21 22  1  0
 22 23  1  0
 23 24  2  0
 23 25  1  0
 25 26  2  0
 26 27  1  0
 27 28  2  0
 28 29  1  0
 29 30  2  0
 30 31  1  0
 31 32  2  0
 32 33  1  0
 33 34  1  0
 34 35  2  0
  9  3  1  0
 35 12  1  0
 33  5  1  0
 18 13  1  0
 35 19  1  0
 25 20  1  0
 34 26  1  0
 32 27  1  0
  1 36  1  0
  1 37  1  0
  1 38  1  0
  2 39  1  0
  3 40  1  1
  4 41  1  0
  4 42  1  0
  5 43  1  6
  8 44  1  0
  8 45  1  0
  8 46  1  0
  9 47  1  6
 11 48  1  0
 11 49  1  0
 11 50  1  0
 14 51  1  0
 15 52  1  0
 16 53  1  0
 17 54  1  0
 21 55  1  0
 21 56  1  0
 22 57  1  0
 28 58  1  0
 29 59  1  0
 30 60  1  0
 31 61  1  0
M  END
$$$$
[H]OC(=O)C([H])([H])C([H])(c1c([H])c([H])c(Cl)c(Cl)c1[H])N(C([H])([H])c1c([H])c([H])c(OC([H])([H])C([H])([H])N2C(=O)C([H])([H])C([H])([H])C2=O)c(C([H])([H])[H])c1[H])C([H])([H])C([H])(C([H])([H])[H])C([H])([H])[H]
     RDKit          3D

 68 70  0  0  0  0  0  0  0  0999 V2000
   -3.4670    3.2299    1.2332 C   0  0  0  0  0  0  0  0  0  0  0  0
   -2.5628    2.2474    0.3933 C   0  0  0  0  0  0  0  0  0  0  0  0
   -1.2491    2.3100    1.1561 C   0  0  0  0  0  0  0  0  0  0  0  0
   -3.2006    0.9056    0.4295 C   0  0  0  0  0  0  0  0  0  0  0  0
   -2.7734   -0.2100   -0.2250 N   0  0  0  0  0  0  0  0  0  0  0  0
   -1.6382   -0.9644   -0.0172 C   0  0  0  0  0  0  0  0  0  0  0  0
   -0.3019   -0.5518   -0.4091 C   0  0  0  0  0  0  0  0  0  0  0  0
    0.7556   -0.8186    0.4353 C   0  0  0  0  0  0  0  0  0  0  0  0
    2.0676   -0.4938    0.1292 C   0  0  0  0  0  0  0  0  0  0  0  0
    2.3862    0.1239   -1.0548 C   0  0  0  0  0  0  0  0  0  0  0  0
    3.6352    0.4864   -1.4595 O   0  0  0  0  0  0  0  0  0  0  0  0
    4.8583    0.3789   -0.8629 C   0  0  0  0  0  0  0  0  0  0  0  0
    5.1055    1.1175    0.4047 C   0  0  0  0  0  0  0  0  0  0  0  0
    6.4737    0.8697    0.8743 N   0  0  0  0  0  0  0  0  0  0  0  0
    6.9465   -0.1531    1.7337 C   0  0  0  0  0  0  0  0  0  0  0  0
    6.1783   -0.9638    2.3205 O   0  0  0  0  0  0  0  0  0  0  0  0
    8.4075   -0.1066    1.8172 C   0  0  0  0  0  0  0  0  0  0  0  0
    8.8284    0.8770    0.7745 C   0  0  0  0  0  0  0  0  0  0  0  0
    7.5816    1.6597    0.5174 C   0  0  0  0  0  0  0  0  0  0  0  0
    7.5674    2.8376    0.0537 O   0  0  0  0  0  0  0  0  0  0  0  0
    1.3045    0.3924   -1.9101 C   0  0  0  0  0  0  0  0  0  0  0  0
    1.6496    1.0707   -3.2153 C   0  0  0  0  0  0  0  0  0  0  0  0
    0.0186    0.0665   -1.5958 C   0  0  0  0  0  0  0  0  0  0  0  0
   -3.7903   -1.0322   -0.8562 C   0  0  0  0  0  0  0  0  0  0  0  0
   -4.6120   -0.3011   -1.8945 C   0  0  0  0  0  0  0  0  0  0  0  0
   -3.8308    0.2385   -3.0173 C   0  0  0  0  0  0  0  0  0  0  0  0
   -3.6256   -0.5550   -4.1390 O   0  0  0  0  0  0  0  0  0  0  0  0
   -3.3148    1.3871   -3.0581 O   0  0  0  0  0  0  0  0  0  0  0  0
   -4.5596   -1.9403   -0.0637 C   0  0  0  0  0  0  0  0  0  0  0  0
   -5.1977   -1.6400    1.1013 C   0  0  0  0  0  0  0  0  0  0  0  0
   -5.9319   -2.5718    1.8342 C   0  0  0  0  0  0  0  0  0  0  0  0
   -6.0373   -3.8704    1.3845 C   0  0  0  0  0  0  0  0  0  0  0  0
   -6.9644   -5.0214    2.3220 Cl  0  0  0  0  0  0  0  0  0  0  0  0
   -5.4089   -4.2114    0.2149 C   0  0  0  0  0  0  0  0  0  0  0  0
   -5.5670   -5.8754   -0.3251 Cl  0  0  0  0  0  0  0  0  0  0  0  0
   -4.6939   -3.2789   -0.4863 C   0  0  0  0  0  0  0  0  0  0  0  0
   -2.8715    4.0751    1.5708 H   0  0  0  0  0  0  0  0  0  0  0  0
   -3.8056    2.5999    2.0804 H   0  0  0  0  0  0  0  0  0  0  0  0
   -4.3257    3.5346    0.6094 H   0  0  0  0  0  0  0  0  0  0  0  0
   -2.4776    2.7195   -0.5895 H   0  0  0  0  0  0  0  0  0  0  0  0
   -1.2779    3.2213    1.7999 H   0  0  0  0  0  0  0  0  0  0  0  0
   -1.1365    1.4601    1.8294 H   0  0  0  0  0  0  0  0  0  0  0  0
   -0.3843    2.4126    0.4575 H   0  0  0  0  0  0  0  0  0  0  0  0
   -4.3190    1.1390    0.2723 H   0  0  0  0  0  0  0  0  0  0  0  0
   -3.2448    0.6306    1.5591 H   0  0  0  0  0  0  0  0  0  0  0  0
   -1.5477   -1.3361    1.0732 H   0  0  0  0  0  0  0  0  0  0  0  0
   -1.7789   -1.9840   -0.5407 H   0  0  0  0  0  0  0  0  0  0  0  0
    0.6185   -1.3102    1.4110 H   0  0  0  0  0  0  0  0  0  0  0  0
    2.8716   -0.7466    0.8347 H   0  0  0  0  0  0  0  0  0  0  0  0
    5.6857    0.6328   -1.5955 H   0  0  0  0  0  0  0  0  0  0  0  0
    5.0550   -0.7141   -0.6254 H   0  0  0  0  0  0  0  0  0  0  0  0
    4.9633    2.2267    0.2964 H   0  0  0  0  0  0  0  0  0  0  0  0
    4.4575    0.8267    1.2365 H   0  0  0  0  0  0  0  0  0  0  0  0
    8.7908    0.1310    2.8358 H   0  0  0  0  0  0  0  0  0  0  0  0
    8.8557   -1.1105    1.5689 H   0  0  0  0  0  0  0  0  0  0  0  0
    9.6245    1.5161    1.2184 H   0  0  0  0  0  0  0  0  0  0  0  0
    9.2116    0.4195   -0.1607 H   0  0  0  0  0  0  0  0  0  0  0  0
    1.9327    2.1209   -2.9286 H   0  0  0  0  0  0  0  0  0  0  0  0
    2.5355    0.6301   -3.6776 H   0  0  0  0  0  0  0  0  0  0  0  0
    0.7750    1.1430   -3.8604 H   0  0  0  0  0  0  0  0  0  0  0  0
   -0.7814    0.2837   -2.2708 H   0  0  0  0  0  0  0  0  0  0  0  0
   -3.1318   -1.7014   -1.5403 H   0  0  0  0  0  0  0  0  0  0  0  0
   -5.3080   -1.0767   -2.3138 H   0  0  0  0  0  0  0  0  0  0  0  0
   -5.2881    0.4509   -1.4368 H   0  0  0  0  0  0  0  0  0  0  0  0
   -2.9503   -1.3049   -4.1685 H   0  0  0  0  0  0  0  0  0  0  0  0
   -5.1615   -0.6663    1.4915 H   0  0  0  0  0  0  0  0  0  0  0  0
   -6.4032   -2.2431    2.7463 H   0  0  0  0  0  0  0  0  0  0  0  0
   -4.2207   -3.6194   -1.4066 H   0  0  0  0  0  0  0  0  0  0  0  0
  1  2  1  0
  2  3  1  0
  2  4  1  0
  4  5  1  0
  5  6  1  0
  6  7  1  0
  7  8  2  0
  8  9  1  0
  9 10  2  0
 10 11  1  0
 11 12  1  0
 12 13  1  0
 13 14  1  0
 14 15  1  0
 15 16  2  0
 15 17  1  0
 17 18  1  0
 18 19  1  0
 19 20  2  0
 10 21  1  0
 21 22  1  0
 21 23  2  0
  5 24  1  0
 24 25  1  0
 25 26  1  0
 26 27  1  0
 26 28  2  0
 24 29  1  0
 29 30  2  0
 30 31  1  0
 31 32  2  0
 32 33  1  0
 32 34  1  0
 34 35  1  0
 34 36  2  0
 23  7  1  0
 36 29  1  0
 19 14  1  0
  1 37  1  0
  1 38  1  0
  1 39  1  0
  2 40  1  0
  3 41  1  0
  3 42  1  0
  3 43  1  0
  4 44  1  0
  4 45  1  0
  6 46  1  0
  6 47  1  0
  8 48  1  0
  9 49  1  0
 12 50  1  0
 12 51  1  0
 13 52  1  0
 13 53  1  0
 17 54  1  0
 17 55  1  0
 18 56  1  0
 18 57  1  0
 22 58  1  0
 22 59  1  0
 22 60  1  0
 23 61  1  0
 24 62  1  0
 25 63  1  0
 25 64  1  0
 27 65  1  0
 30 66  1  0
 31 67  1  0
 36 68  1  0
M  END
$$$$
[H]c1c([H])c([H])c(C([H])([H])OC(c2nc3c(N([H])[H])nc([H])n(C([H])([H])c4c([H])c([H])c(OC([H])([H])[H])c(OC5([H])C([H])([H])C([H])([H])C([H])([H])C5([H])[H])c4[H])c-3n2)(C([H])([H])[H])C([H])([H])[H])c([H])c1[H]
     RDKit          3D

 69 73  0  0  0  0  0  0  0  0999 V2000
   -5.4592   -3.1731   -1.6363 C   0  0  0  0  0  0  0  0  0  0  0  0
   -5.4098   -1.9856   -0.8827 O   0  0  0  0  0  0  0  0  0  0  0  0
   -4.2653   -1.5480   -0.2372 C   0  0  0  0  0  0  0  0  0  0  0  0
   -3.1119   -2.2942   -0.3285 C   0  0  0  0  0  0  0  0  0  0  0  0
   -1.9256   -1.8911    0.3068 C   0  0  0  0  0  0  0  0  0  0  0  0
   -1.9171   -0.7367    1.0252 C   0  0  0  0  0  0  0  0  0  0  0  0
   -0.7492   -0.2027    1.7244 C   0  0  0  0  0  0  0  0  0  0  0  0
    0.1299    0.5697    0.8738 N   0  0  0  0  0  0  0  0  0  0  0  0
   -0.2617    1.8125    0.4500 C   0  0  0  0  0  0  0  0  0  0  0  0
    0.4843    2.5383   -0.3836 N   0  0  0  0  0  0  0  0  0  0  0  0
    1.6904    2.0763   -0.8645 C   0  0  0  0  0  0  0  0  0  0  0  0
    2.4898    2.8335   -1.7522 N   0  0  0  0  0  0  0  0  0  0  0  0
    2.1003    0.8461   -0.4566 C   0  0  0  0  0  0  0  0  0  0  0  0
    3.2170    0.1450   -0.6847 N   0  0  0  0  0  0  0  0  0  0  0  0
    3.1531   -1.0249    0.0144 C   0  0  0  0  0  0  0  0  0  0  0  0
    2.0176   -1.0843    0.6853 N   0  0  0  0  0  0  0  0  0  0  0  0
    1.2809    0.0428    0.4633 C   0  0  0  0  0  0  0  0  0  0  0  0
    4.3044   -1.9839    0.0402 C   0  0  0  0  0  0  0  0  0  0  0  0
    3.6786   -3.2911    0.7571 C   0  0  0  0  0  0  0  0  0  0  0  0
    4.6911   -2.5139   -1.2732 C   0  0  0  0  0  0  0  0  0  0  0  0
    5.2551   -1.6418    0.8804 O   0  0  0  0  0  0  0  0  0  0  0  0
    5.8841   -0.5995    1.2449 C   0  0  0  0  0  0  0  0  0  0  0  0
    6.7070    0.3280    0.4697 C   0  0  0  0  0  0  0  0  0  0  0  0
    7.0034    0.3189   -0.8409 C   0  0  0  0  0  0  0  0  0  0  0  0
    7.8124    1.2847   -1.4584 C   0  0  0  0  0  0  0  0  0  0  0  0
    8.3494    2.3095   -0.7108 C   0  0  0  0  0  0  0  0  0  0  0  0
    8.0543    2.3249    0.6264 C   0  0  0  0  0  0  0  0  0  0  0  0
    7.2756    1.3938    1.2061 C   0  0  0  0  0  0  0  0  0  0  0  0
   -3.1010    0.0020    1.1035 C   0  0  0  0  0  0  0  0  0  0  0  0
   -4.2819   -0.3577    0.4982 C   0  0  0  0  0  0  0  0  0  0  0  0
   -5.3579    0.3903    0.6240 O   0  0  0  0  0  0  0  0  0  0  0  0
   -6.6719    0.5054    0.3443 C   0  0  0  0  0  0  0  0  0  0  0  0
   -7.4872    0.9797    1.5506 C   0  0  0  0  0  0  0  0  0  0  0  0
   -7.9251    2.3919    1.2164 C   0  0  0  0  0  0  0  0  0  0  0  0
   -8.0646    2.3533   -0.2911 C   0  0  0  0  0  0  0  0  0  0  0  0
   -6.8497    1.5974   -0.7012 C   0  0  0  0  0  0  0  0  0  0  0  0
   -4.6226   -3.2633   -2.3587 H   0  0  0  0  0  0  0  0  0  0  0  0
   -5.4953   -4.0350   -0.9512 H   0  0  0  0  0  0  0  0  0  0  0  0
   -6.3944   -3.1665   -2.2792 H   0  0  0  0  0  0  0  0  0  0  0  0
   -3.0762   -3.2182   -0.8776 H   0  0  0  0  0  0  0  0  0  0  0  0
   -1.0212   -2.4816    0.2266 H   0  0  0  0  0  0  0  0  0  0  0  0
   -0.1666   -0.9912    2.2601 H   0  0  0  0  0  0  0  0  0  0  0  0
   -1.0937    0.5002    2.5283 H   0  0  0  0  0  0  0  0  0  0  0  0
   -1.2110    2.1521    0.8357 H   0  0  0  0  0  0  0  0  0  0  0  0
    2.6009    2.6733   -2.7709 H   0  0  0  0  0  0  0  0  0  0  0  0
    3.0438    3.6521   -1.3407 H   0  0  0  0  0  0  0  0  0  0  0  0
    4.3536   -4.1106    0.5528 H   0  0  0  0  0  0  0  0  0  0  0  0
    2.7492   -3.4041    0.1591 H   0  0  0  0  0  0  0  0  0  0  0  0
    3.4549   -3.0175    1.7721 H   0  0  0  0  0  0  0  0  0  0  0  0
    5.7763   -2.7511   -1.3308 H   0  0  0  0  0  0  0  0  0  0  0  0
    4.0672   -3.4094   -1.5898 H   0  0  0  0  0  0  0  0  0  0  0  0
    4.5348   -1.7338   -2.0762 H   0  0  0  0  0  0  0  0  0  0  0  0
    6.6475   -0.9510    2.0840 H   0  0  0  0  0  0  0  0  0  0  0  0
    5.2373    0.0698    1.9897 H   0  0  0  0  0  0  0  0  0  0  0  0
    6.6143   -0.4477   -1.4887 H   0  0  0  0  0  0  0  0  0  0  0  0
    7.9997    1.2169   -2.4965 H   0  0  0  0  0  0  0  0  0  0  0  0
    8.9605    3.0418   -1.1976 H   0  0  0  0  0  0  0  0  0  0  0  0
    8.5084    3.1569    1.1917 H   0  0  0  0  0  0  0  0  0  0  0  0
    7.0517    1.4143    2.2698 H   0  0  0  0  0  0  0  0  0  0  0  0
   -3.0783    0.9114    1.6720 H   0  0  0  0  0  0  0  0  0  0  0  0
   -7.1783   -0.4129   -0.0732 H   0  0  0  0  0  0  0  0  0  0  0  0
   -6.7741    1.0572    2.4215 H   0  0  0  0  0  0  0  0  0  0  0  0
   -8.3182    0.3196    1.7879 H   0  0  0  0  0  0  0  0  0  0  0  0
   -7.1497    3.1301    1.4623 H   0  0  0  0  0  0  0  0  0  0  0  0
   -8.8519    2.6689    1.7074 H   0  0  0  0  0  0  0  0  0  0  0  0
   -8.0270    3.3976   -0.7040 H   0  0  0  0  0  0  0  0  0  0  0  0
   -9.0180    1.8970   -0.5711 H   0  0  0  0  0  0  0  0  0  0  0  0
   -6.9011    1.1440   -1.7212 H   0  0  0  0  0  0  0  0  0  0  0  0
   -5.9619    2.2751   -0.7159 H   0  0  0  0  0  0  0  0  0  0  0  0
  1  2  1  0
  2  3  1  0
  3  4  2  0
  4  5  1  0
  5  6  2  0
  6  7  1  0
  7  8  1  0
  8  9  1  0
  9 10  2  0
 10 11  1  0
 11 12  1  0
 11 13  2  0
 13 14  1  0
 14 15  2  0
 15 16  1  0
 16 17  2  0
 15 18  1  0
 18 19  1  0
 18 20  1  0
 18 21  1  0
 21 22  1  0
 22 23  1  0
 23 24  2  0
 24 25  1  0
 25 26  2  0
 26 27  1  0
 27 28  2  0
  6 29  1  0
 29 30  2  0
 30 31  1  0
 31 32  1  0
 32 33  1  0
 33 34  1  0
 34 35  1  0
 35 36  1  0
 30  3  1  0
 36 32  1  0
 17  8  1  0
 28 23  1  0
 17 13  1  0
  1 37  1  0
  1 38  1  0
  1 39  1  0
  4 40  1  0
  5 41  1  0
  7 42  1  0
  7 43  1  0
  9 44  1  0
 12 45  1  0
 12 46  1  0
 19 47  1  0
 19 48  1  0
 19 49  1  0
 20 50  1  0
 20 51  1  0
 20 52  1  0
 22 53  1  0
 22 54  1  0
 24 55  1  0
 25 56  1  0
 26 57  1  0
 27 58  1  0
 28 59  1  0
 29 60  1  0
 32 61  1  0
 33 62  1  0
 33 63  1  0
 34 64  1  0
 34 65  1  0
 35 66  1  0
 35 67  1  0
 36 68  1  0
 36 69  1  0
M  END
$$$$
[H]c1nc(N([H])c2c([H])c([H])c(N3C([H])([H])C([H])([H])N(C([H])([H])[H])C([H])([H])C3([H])[H])c([H])c2[H])nc([H])c1N([H])C(=O)c1c([H])c(N([H])C(=O)c2c([H])c([H])c([H])c(C(F)(F)F)c2[H])c([H])c([H])c1C([H])([H])[H]
     RDKit          3D

 73 77  0  0  0  0  0  0  0  0999 V2000
   11.1626   -1.4295   -0.2901 C   0  0  0  0  0  0  0  0  0  0  0  0
   10.8066   -1.1520   -1.6725 N   0  0  0  0  0  0  0  0  0  0  0  0
   10.4159    0.1876   -1.8989 C   0  0  0  0  0  0  0  0  0  0  0  0
    9.0068    0.3313   -2.4400 C   0  0  0  0  0  0  0  0  0  0  0  0
    8.1717   -0.5294   -1.6086 N   0  0  0  0  0  0  0  0  0  0  0  0
    8.5007   -1.9673   -1.7161 C   0  0  0  0  0  0  0  0  0  0  0  0
    9.9119   -2.1440   -2.1967 C   0  0  0  0  0  0  0  0  0  0  0  0
    7.1297   -0.0633   -0.7731 C   0  0  0  0  0  0  0  0  0  0  0  0
    6.2840    0.9745   -1.1097 C   0  0  0  0  0  0  0  0  0  0  0  0
    5.2833    1.4252   -0.2729 C   0  0  0  0  0  0  0  0  0  0  0  0
    5.0750    0.8551    0.9607 C   0  0  0  0  0  0  0  0  0  0  0  0
    4.0727    1.2666    1.8554 N   0  0  0  0  0  0  0  0  0  0  0  0
    2.7010    1.4154    1.6495 C   0  0  0  0  0  0  0  0  0  0  0  0
    2.0640    1.1508    0.5212 N   0  0  0  0  0  0  0  0  0  0  0  0
    0.7045    1.2644    0.3632 C   0  0  0  0  0  0  0  0  0  0  0  0
   -0.0701    1.6664    1.3890 C   0  0  0  0  0  0  0  0  0  0  0  0
   -1.4860    1.7401    1.4642 N   0  0  0  0  0  0  0  0  0  0  0  0
   -2.4284    1.0827    0.7153 C   0  0  0  0  0  0  0  0  0  0  0  0
   -2.0837    0.3640   -0.2539 O   0  0  0  0  0  0  0  0  0  0  0  0
   -3.8748    1.1632    1.0101 C   0  0  0  0  0  0  0  0  0  0  0  0
   -4.8233    1.0463   -0.0402 C   0  0  0  0  0  0  0  0  0  0  0  0
   -6.1401    1.1096    0.1741 C   0  0  0  0  0  0  0  0  0  0  0  0
   -7.1975    0.8936   -0.7958 N   0  0  0  0  0  0  0  0  0  0  0  0
   -8.1468   -0.1045   -0.4596 C   0  0  0  0  0  0  0  0  0  0  0  0
   -7.8757   -0.7207    0.6821 O   0  0  0  0  0  0  0  0  0  0  0  0
   -9.3264   -0.5507   -1.1186 C   0  0  0  0  0  0  0  0  0  0  0  0
   -9.9814    0.1544   -2.0771 C   0  0  0  0  0  0  0  0  0  0  0  0
  -11.1622   -0.3133   -2.6274 C   0  0  0  0  0  0  0  0  0  0  0  0
  -11.7323   -1.5005   -2.2409 C   0  0  0  0  0  0  0  0  0  0  0  0
  -11.0947   -2.2428   -1.2745 C   0  0  0  0  0  0  0  0  0  0  0  0
   -9.9266   -1.7682   -0.7404 C   0  0  0  0  0  0  0  0  0  0  0  0
  -11.6644   -3.5222   -0.8140 C   0  0  0  0  0  0  0  0  0  0  0  0
  -12.7917   -3.2654   -0.0486 F   0  0  0  0  0  0  0  0  0  0  0  0
  -11.9253   -4.4025   -1.8601 F   0  0  0  0  0  0  0  0  0  0  0  0
  -10.7612   -4.1640    0.0259 F   0  0  0  0  0  0  0  0  0  0  0  0
   -6.6025    1.3075    1.4993 C   0  0  0  0  0  0  0  0  0  0  0  0
   -5.6979    1.4181    2.5023 C   0  0  0  0  0  0  0  0  0  0  0  0
   -4.3071    1.3475    2.3005 C   0  0  0  0  0  0  0  0  0  0  0  0
   -3.4568    1.3682    3.5224 C   0  0  0  0  0  0  0  0  0  0  0  0
    0.6065    1.9579    2.6074 C   0  0  0  0  0  0  0  0  0  0  0  0
    1.9026    1.8263    2.6842 N   0  0  0  0  0  0  0  0  0  0  0  0
    5.9322   -0.2082    1.3194 C   0  0  0  0  0  0  0  0  0  0  0  0
    6.9250   -0.6545    0.4876 C   0  0  0  0  0  0  0  0  0  0  0  0
   11.0028   -2.4892   -0.1086 H   0  0  0  0  0  0  0  0  0  0  0  0
   12.2320   -1.2035   -0.1608 H   0  0  0  0  0  0  0  0  0  0  0  0
   10.5559   -0.8453    0.4460 H   0  0  0  0  0  0  0  0  0  0  0  0
   10.4807    0.7587   -0.9317 H   0  0  0  0  0  0  0  0  0  0  0  0
   11.1376    0.6785   -2.5712 H   0  0  0  0  0  0  0  0  0  0  0  0
    8.6993    1.3874   -2.3241 H   0  0  0  0  0  0  0  0  0  0  0  0
    8.9493   -0.0226   -3.4739 H   0  0  0  0  0  0  0  0  0  0  0  0
    8.2939   -2.4781   -0.7843 H   0  0  0  0  0  0  0  0  0  0  0  0
    7.8182   -2.3492   -2.5036 H   0  0  0  0  0  0  0  0  0  0  0  0
   10.0159   -2.2026   -3.2872 H   0  0  0  0  0  0  0  0  0  0  0  0
   10.2623   -3.1415   -1.7933 H   0  0  0  0  0  0  0  0  0  0  0  0
    6.3766    1.4861   -2.0566 H   0  0  0  0  0  0  0  0  0  0  0  0
    4.6281    2.2472   -0.5569 H   0  0  0  0  0  0  0  0  0  0  0  0
    4.4192    1.4847    2.8598 H   0  0  0  0  0  0  0  0  0  0  0  0
    0.2446    1.0282   -0.6036 H   0  0  0  0  0  0  0  0  0  0  0  0
   -1.8616    2.4790    2.1563 H   0  0  0  0  0  0  0  0  0  0  0  0
   -4.4587    0.9050   -1.0588 H   0  0  0  0  0  0  0  0  0  0  0  0
   -7.2179    1.4473   -1.6332 H   0  0  0  0  0  0  0  0  0  0  0  0
   -9.5830    1.0984   -2.4225 H   0  0  0  0  0  0  0  0  0  0  0  0
  -11.7002    0.2519   -3.3961 H   0  0  0  0  0  0  0  0  0  0  0  0
  -12.6727   -1.8372   -2.6929 H   0  0  0  0  0  0  0  0  0  0  0  0
   -9.3932   -2.3435    0.0247 H   0  0  0  0  0  0  0  0  0  0  0  0
   -7.6706    1.3801    1.6361 H   0  0  0  0  0  0  0  0  0  0  0  0
   -6.0166    1.5663    3.5297 H   0  0  0  0  0  0  0  0  0  0  0  0
   -3.2707    2.3812    3.8991 H   0  0  0  0  0  0  0  0  0  0  0  0
   -2.6120    0.7004    3.4318 H   0  0  0  0  0  0  0  0  0  0  0  0
   -4.0929    0.8304    4.3335 H   0  0  0  0  0  0  0  0  0  0  0  0
   -0.0160    2.2938    3.4484 H   0  0  0  0  0  0  0  0  0  0  0  0
    5.7611   -0.6407    2.2843 H   0  0  0  0  0  0  0  0  0  0  0  0
    7.5890   -1.4651    0.7519 H   0  0  0  0  0  0  0  0  0  0  0  0
  1  2  1  0
  2  3  1  0
  3  4  1  0
  4  5  1  0
  5  6  1  0
  6  7  1  0
  5  8  1  0
  8  9  2  0
  9 10  1  0
 10 11  2  0
 11 12  1  0
 12 13  1  0
 13 14  2  0
 14 15  1  0
 15 16  2  0
 16 17  1  0
 17 18  1  0
 18 19  2  0
 18 20  1  0
 20 21  2  0
 21 22  1  0
 22 23  1  0
 23 24  1  0
 24 25  2  0
 24 26  1  0
 26 27  2  0
 27 28  1  0
 28 29  2  0
 29 30  1  0
 30 31  2  0
 30 32  1  0
 32 33  1  0
 32 34  1  0
 32 35  1  0
 22 36  2  0
 36 37  1  0
 37 38  2  0
 38 39  1  0
 16 40  1  0
 40 41  2  0
 11 42  1  0
 42 43  2  0
  7  2  1  0
 43  8  1  0
 41 13  1  0
 38 20  1  0
 31 26  1  0
  1 44  1  0
  1 45  1  0
  1 46  1  0
  3 47  1  0
  3 48  1  0
  4 49  1  0
  4 50  1  0
  6 51  1  0
  6 52  1  0
  7 53  1  0
  7 54  1  0
  9 55  1  0
 10 56  1  0
 12 57  1  0
 15 58  1  0
 17 59  1  0
 21 60  1  0
 23 61  1  0
 27 62  1  0
 28 63  1  0
 29 64  1  0
 31 65  1  0
 36 66  1  0
 37 67  1  0
 39 68  1  0
 39 69  1  0
 39 70  1  0
 40 71  1  0
 42 72  1  0
 43 73  1  0
M  END
$$$$
[H]c1c([H])c(OC([H])([H])C([H])([H])N2C([H])([H])C([H])([H])C([H])([H])C([H])([H])C2([H])[H])c([H])c(N([H])c2nc(N([H])c3c([H])c([H])c4c(sc(=O)n4[H])c3[H])c([H])n3c([H])nnc23)c1F
     RDKit          3D

 62 67  0  0  0  0  0  0  0  0999 V2000
    0.6499   -0.5965    5.5397 F   0  0  0  0  0  0  0  0  0  0  0  0
    0.1872   -0.4563    4.2607 C   0  0  0  0  0  0  0  0  0  0  0  0
   -0.9188    0.2700    3.9987 C   0  0  0  0  0  0  0  0  0  0  0  0
   -1.3733    0.4082    2.6967 C   0  0  0  0  0  0  0  0  0  0  0  0
   -0.7385   -0.1693    1.6401 C   0  0  0  0  0  0  0  0  0  0  0  0
   -1.1664   -0.0486    0.3592 O   0  0  0  0  0  0  0  0  0  0  0  0
   -2.2476    0.6317   -0.1766 C   0  0  0  0  0  0  0  0  0  0  0  0
   -2.2731    2.1107   -0.0454 C   0  0  0  0  0  0  0  0  0  0  0  0
   -3.4735    2.7006   -0.6279 N   0  0  0  0  0  0  0  0  0  0  0  0
   -4.6511    2.3450    0.1445 C   0  0  0  0  0  0  0  0  0  0  0  0
   -5.7896    3.2333   -0.3357 C   0  0  0  0  0  0  0  0  0  0  0  0
   -6.0551    3.0083   -1.8118 C   0  0  0  0  0  0  0  0  0  0  0  0
   -4.7630    3.0768   -2.6083 C   0  0  0  0  0  0  0  0  0  0  0  0
   -3.6905    2.2103   -1.9771 C   0  0  0  0  0  0  0  0  0  0  0  0
    0.4091   -0.9187    1.9416 C   0  0  0  0  0  0  0  0  0  0  0  0
    0.8910   -1.0809    3.2158 C   0  0  0  0  0  0  0  0  0  0  0  0
    1.9818   -1.8775    3.5525 N   0  0  0  0  0  0  0  0  0  0  0  0
    2.9448   -2.4456    2.7185 C   0  0  0  0  0  0  0  0  0  0  0  0
    3.0751   -2.2496    1.4234 N   0  0  0  0  0  0  0  0  0  0  0  0
    4.0370   -2.7926    0.6654 C   0  0  0  0  0  0  0  0  0  0  0  0
    4.2454   -2.5835   -0.6983 N   0  0  0  0  0  0  0  0  0  0  0  0
    3.5749   -1.6880   -1.5376 C   0  0  0  0  0  0  0  0  0  0  0  0
    3.5958   -1.8403   -2.9291 C   0  0  0  0  0  0  0  0  0  0  0  0
    3.0224   -0.9921   -3.8168 C   0  0  0  0  0  0  0  0  0  0  0  0
    2.3342    0.1549   -3.3571 C   0  0  0  0  0  0  0  0  0  0  0  0
    1.7324    1.0694   -4.0955 N   0  0  0  0  0  0  0  0  0  0  0  0
    1.1377    2.0866   -3.4882 C   0  0  0  0  0  0  0  0  0  0  0  0
    0.5085    3.0616   -4.0326 O   0  0  0  0  0  0  0  0  0  0  0  0
    1.4148    1.7756   -1.8360 S   0  0  0  0  0  0  0  0  0  0  0  0
    2.2999    0.3246   -2.0006 C   0  0  0  0  0  0  0  0  0  0  0  0
    2.9089   -0.5796   -1.1016 C   0  0  0  0  0  0  0  0  0  0  0  0
    4.9556   -3.6233    1.3174 C   0  0  0  0  0  0  0  0  0  0  0  0
    4.8787   -3.8606    2.6216 N   0  0  0  0  0  0  0  0  0  0  0  0
    5.6222   -4.6056    3.4766 C   0  0  0  0  0  0  0  0  0  0  0  0
    5.0749   -4.4683    4.6732 N   0  0  0  0  0  0  0  0  0  0  0  0
    4.0357   -3.6762    4.5849 N   0  0  0  0  0  0  0  0  0  0  0  0
    3.9002   -3.2911    3.3217 C   0  0  0  0  0  0  0  0  0  0  0  0
   -1.4478    0.7422    4.8060 H   0  0  0  0  0  0  0  0  0  0  0  0
   -2.2727    0.9845    2.5673 H   0  0  0  0  0  0  0  0  0  0  0  0
   -3.1584    0.2567    0.4036 H   0  0  0  0  0  0  0  0  0  0  0  0
   -2.4569    0.2833   -1.2150 H   0  0  0  0  0  0  0  0  0  0  0  0
   -2.0707    2.5385    0.9361 H   0  0  0  0  0  0  0  0  0  0  0  0
   -1.4383    2.4990   -0.7040 H   0  0  0  0  0  0  0  0  0  0  0  0
   -4.4938    2.5490    1.2039 H   0  0  0  0  0  0  0  0  0  0  0  0
   -4.9416    1.2895   -0.0155 H   0  0  0  0  0  0  0  0  0  0  0  0
   -5.5827    4.2897   -0.1376 H   0  0  0  0  0  0  0  0  0  0  0  0
   -6.7063    2.9429    0.2158 H   0  0  0  0  0  0  0  0  0  0  0  0
   -6.7218    3.8172   -2.1693 H   0  0  0  0  0  0  0  0  0  0  0  0
   -6.5598    2.0361   -1.9345 H   0  0  0  0  0  0  0  0  0  0  0  0
   -5.0261    2.7229   -3.6286 H   0  0  0  0  0  0  0  0  0  0  0  0
   -4.4280    4.1328   -2.6276 H   0  0  0  0  0  0  0  0  0  0  0  0
   -4.1450    1.1884   -1.9037 H   0  0  0  0  0  0  0  0  0  0  0  0
   -2.7970    2.2517   -2.5970 H   0  0  0  0  0  0  0  0  0  0  0  0
    0.8857   -1.3798    1.0964 H   0  0  0  0  0  0  0  0  0  0  0  0
    2.0710   -2.0758    4.6275 H   0  0  0  0  0  0  0  0  0  0  0  0
    5.0153   -3.1857   -1.1684 H   0  0  0  0  0  0  0  0  0  0  0  0
    4.1279   -2.7260   -3.2846 H   0  0  0  0  0  0  0  0  0  0  0  0
    3.1173   -1.2304   -4.8639 H   0  0  0  0  0  0  0  0  0  0  0  0
    1.6954    1.0373   -5.1772 H   0  0  0  0  0  0  0  0  0  0  0  0
    2.8035   -0.3073   -0.0777 H   0  0  0  0  0  0  0  0  0  0  0  0
    5.7589   -4.0943    0.7694 H   0  0  0  0  0  0  0  0  0  0  0  0
    6.4941   -5.1858    3.1817 H   0  0  0  0  0  0  0  0  0  0  0  0
  1  2  1  0
  2  3  2  0
  3  4  1  0
  4  5  2  0
  5  6  1  0
  6  7  1  0
  7  8  1  0
  8  9  1  0
  9 10  1  0
 10 11  1  0
 11 12  1  0
 12 13  1  0
 13 14  1  0
  5 15  1  0
 15 16  2  0
 16 17  1  0
 17 18  1  0
 18 19  2  0
 19 20  1  0
 20 21  1  0
 21 22  1  0
 22 23  2  0
 23 24  1  0
 24 25  2  0
 25 26  1  0
 26 27  1  0
 27 28  2  0
 27 29  1  0
 29 30  1  0
 30 31  2  0
 20 32  2  0
 32 33  1  0
 33 34  1  0
 34 35  2  0
 35 36  1  0
 36 37  2  0
 16  2  1  0
 37 18  1  0
 14  9  1  0
 31 22  1  0
 37 33  1  0
 30 25  1  0
  3 38  1  0
  4 39  1  0
  7 40  1  0
  7 41  1  0
  8 42  1  0
  8 43  1  0
 10 44  1  0
 10 45  1  0
 11 46  1  0
 11 47  1  0
 12 48  1  0
 12 49  1  0
 13 50  1  0
 13 51  1  0
 14 52  1  0
 14 53  1  0
 15 54  1  0
 17 55  1  0
 21 56  1  0
 23 57  1  0
 24 58  1  0
 26 59  1  0
 31 60  1  0
 32 61  1  0
 34 62  1  0
M  END
$$$$
[H]OC(=O)c1nc(C(=O)N([H])c2c([H])c([H])c([H])c(N([H])C(=O)C([H])([H])C([H])([H])C([H])([H])C(=O)O[H])c2[H])c([H])c([H])c1[H]
     RDKit          3D

 44 45  0  0  0  0  0  0  0  0999 V2000
   -8.2911    1.7609   -0.1870 O   0  0  0  0  0  0  0  0  0  0  0  0
   -7.8272    0.8185   -1.0664 C   0  0  0  0  0  0  0  0  0  0  0  0
   -8.5712    0.4565   -2.0170 O   0  0  0  0  0  0  0  0  0  0  0  0
   -6.4825    0.1830   -0.9738 C   0  0  0  0  0  0  0  0  0  0  0  0
   -5.5447    0.7410   -1.9853 C   0  0  0  0  0  0  0  0  0  0  0  0
   -4.1742    0.1880   -2.0016 C   0  0  0  0  0  0  0  0  0  0  0  0
   -3.3877    0.3960   -0.7413 C   0  0  0  0  0  0  0  0  0  0  0  0
   -3.8629    1.0635    0.2005 O   0  0  0  0  0  0  0  0  0  0  0  0
   -2.1044   -0.1683   -0.6254 N   0  0  0  0  0  0  0  0  0  0  0  0
   -1.2783   -0.0437    0.5228 C   0  0  0  0  0  0  0  0  0  0  0  0
   -1.7012    0.2321    1.7901 C   0  0  0  0  0  0  0  0  0  0  0  0
   -0.7987    0.3536    2.8107 C   0  0  0  0  0  0  0  0  0  0  0  0
    0.5580    0.1944    2.5576 C   0  0  0  0  0  0  0  0  0  0  0  0
    1.0406   -0.0821    1.3178 C   0  0  0  0  0  0  0  0  0  0  0  0
    2.4184   -0.2568    1.0160 N   0  0  0  0  0  0  0  0  0  0  0  0
    3.5025   -0.2263    1.8919 C   0  0  0  0  0  0  0  0  0  0  0  0
    3.4226   -0.0353    3.1117 O   0  0  0  0  0  0  0  0  0  0  0  0
    4.8892   -0.4319    1.3881 C   0  0  0  0  0  0  0  0  0  0  0  0
    5.9284   -0.3950    2.2767 C   0  0  0  0  0  0  0  0  0  0  0  0
    7.2106   -0.5953    1.7479 C   0  0  0  0  0  0  0  0  0  0  0  0
    7.4000   -0.8168    0.4001 C   0  0  0  0  0  0  0  0  0  0  0  0
    6.3269   -0.8464   -0.4613 C   0  0  0  0  0  0  0  0  0  0  0  0
    5.0935   -0.6500    0.0724 N   0  0  0  0  0  0  0  0  0  0  0  0
    6.5271   -1.0792   -1.8731 C   0  0  0  0  0  0  0  0  0  0  0  0
    5.4433   -1.1053   -2.7184 O   0  0  0  0  0  0  0  0  0  0  0  0
    7.6738   -1.2546   -2.3174 O   0  0  0  0  0  0  0  0  0  0  0  0
    0.0998   -0.1977    0.3086 C   0  0  0  0  0  0  0  0  0  0  0  0
   -7.7440    2.6035   -0.0420 H   0  0  0  0  0  0  0  0  0  0  0  0
   -6.6409   -0.8926   -1.2185 H   0  0  0  0  0  0  0  0  0  0  0  0
   -6.1193    0.3310    0.0450 H   0  0  0  0  0  0  0  0  0  0  0  0
   -5.5124    1.8731   -1.9057 H   0  0  0  0  0  0  0  0  0  0  0  0
   -5.9612    0.5961   -3.0281 H   0  0  0  0  0  0  0  0  0  0  0  0
   -4.1982   -0.8830   -2.2792 H   0  0  0  0  0  0  0  0  0  0  0  0
   -3.6015    0.6990   -2.7994 H   0  0  0  0  0  0  0  0  0  0  0  0
   -1.7266   -0.7334   -1.4598 H   0  0  0  0  0  0  0  0  0  0  0  0
   -2.7323    0.3392    2.0070 H   0  0  0  0  0  0  0  0  0  0  0  0
   -1.1709    0.5730    3.7987 H   0  0  0  0  0  0  0  0  0  0  0  0
    1.1970    0.3058    3.4023 H   0  0  0  0  0  0  0  0  0  0  0  0
    2.6799   -0.4363   -0.0172 H   0  0  0  0  0  0  0  0  0  0  0  0
    5.7859   -0.2215    3.3354 H   0  0  0  0  0  0  0  0  0  0  0  0
    8.0525   -0.5696    2.4394 H   0  0  0  0  0  0  0  0  0  0  0  0
    8.4258   -0.9683    0.0351 H   0  0  0  0  0  0  0  0  0  0  0  0
    5.2996   -0.4010   -3.4305 H   0  0  0  0  0  0  0  0  0  0  0  0
    0.4557   -0.4176   -0.6902 H   0  0  0  0  0  0  0  0  0  0  0  0
  1  2  1  0
  2  3  2  0
  2  4  1  0
  4  5  1  0
  5  6  1  0
  6  7  1  0
  7  8  2  0
  7  9  1  0
  9 10  1  0
 10 11  2  0
 11 12  1  0
 12 13  2  0
 13 14  1  0
 14 15  1  0
 15 16  1  0
 16 17  2  0
 16 18  1  0
 18 19  2  0
 19 20  1  0
 20 21  2  0
 21 22  1  0
 22 23  2  0
 22 24  1  0
 24 25  1  0
 24 26  2  0
 14 27  2  0
 27 10  1  0
 23 18  1  0
  1 28  1  0
  4 29  1  0
  4 30  1  0
  5 31  1  0
  5 32  1  0
  6 33  1  0
  6 34  1  0
  9 35  1  0
 11 36  1  0
 12 37  1  0
 13 38  1  0
 15 39  1  0
 19 40  1  0
 20 41  1  0
 21 42  1  0
 25 43  1  0
 27 44  1  0
M  END
$$$$
[H]c1c([H])c([H])c(C([H])([H])C([H])([H])[C@@]([H])(C(=O)C([H])([H])SC(C([H])([H])[H])(C([H])([H])[H])C([H])([H])[H])N([H])C(=O)[C@@]([H])(N([H])C(=O)c2c([H])c([H])c(C([H])([H])[H])c([H])c2[H])C([H])([H])C([H])(C([H])([H])[H])C([H])([H])[H])c([H])c1[H]
     RDKit          3D

 75 76  0  0  0  0  0  0  0  0999 V2000
   -1.5600   -4.8801   -0.1182 C   0  0  0  0  0  0  0  0  0  0  0  0
   -2.1515   -3.5085    0.3111 C   0  0  0  0  0  0  0  0  0  0  0  0
   -3.5465   -3.3920   -0.2336 C   0  0  0  0  0  0  0  0  0  0  0  0
   -1.1735   -2.4938   -0.1562 C   0  0  0  0  0  0  0  0  0  0  0  0
   -1.4772   -1.0629    0.1288 C   0  0  2  0  0  0  0  0  0  0  0  0
   -2.6941   -0.5622   -0.4736 N   0  0  0  0  0  0  0  0  0  0  0  0
   -3.6818    0.0465    0.3046 C   0  0  0  0  0  0  0  0  0  0  0  0
   -3.4888    0.1531    1.5635 O   0  0  0  0  0  0  0  0  0  0  0  0
   -4.9082    0.5518   -0.3048 C   0  0  0  0  0  0  0  0  0  0  0  0
   -5.8866    1.1633    0.4913 C   0  0  0  0  0  0  0  0  0  0  0  0
   -7.0600    1.6570   -0.0301 C   0  0  0  0  0  0  0  0  0  0  0  0
   -7.3332    1.5741   -1.3788 C   0  0  0  0  0  0  0  0  0  0  0  0
   -8.6059    2.1062   -1.9605 C   0  0  0  0  0  0  0  0  0  0  0  0
   -6.3815    0.9768   -2.1763 C   0  0  0  0  0  0  0  0  0  0  0  0
   -5.1828    0.4710   -1.6451 C   0  0  0  0  0  0  0  0  0  0  0  0
   -0.2992   -0.2428   -0.3555 C   0  0  0  0  0  0  0  0  0  0  0  0
   -0.3796    0.3194   -1.4609 O   0  0  0  0  0  0  0  0  0  0  0  0
    0.8726   -0.1157    0.4323 N   0  0  0  0  0  0  0  0  0  0  0  0
    1.9847    0.6463   -0.0308 C   0  0  1  0  0  0  0  0  0  0  0  0
    2.0260    1.9880    0.7177 C   0  0  0  0  0  0  0  0  0  0  0  0
    2.1573    1.7134    2.2132 C   0  0  0  0  0  0  0  0  0  0  0  0
    2.2192    3.0455    2.8633 C   0  0  0  0  0  0  0  0  0  0  0  0
    3.4463    3.5990    3.0811 C   0  0  0  0  0  0  0  0  0  0  0  0
    3.5324    4.8287    3.6653 C   0  0  0  0  0  0  0  0  0  0  0  0
    2.3677    5.5159    4.0380 C   0  0  0  0  0  0  0  0  0  0  0  0
    1.1393    4.9501    3.8137 C   0  0  0  0  0  0  0  0  0  0  0  0
    1.0632    3.7052    3.2224 C   0  0  0  0  0  0  0  0  0  0  0  0
    3.2684   -0.0873    0.2084 C   0  0  0  0  0  0  0  0  0  0  0  0
    3.2270   -1.1559    0.7557 O   0  0  0  0  0  0  0  0  0  0  0  0
    4.5697    0.4777   -0.2101 C   0  0  0  0  0  0  0  0  0  0  0  0
    4.9762    0.0171   -1.8765 S   0  0  0  0  0  0  0  0  0  0  0  0
    5.3413   -1.7095   -2.1540 C   0  0  0  0  0  0  0  0  0  0  0  0
    4.0962   -2.5470   -2.0167 C   0  0  0  0  0  0  0  0  0  0  0  0
    6.3724   -2.2240   -1.1363 C   0  0  0  0  0  0  0  0  0  0  0  0
    5.9699   -1.9149   -3.5327 C   0  0  0  0  0  0  0  0  0  0  0  0
   -1.8183   -4.9630   -1.2035 H   0  0  0  0  0  0  0  0  0  0  0  0
   -2.0375   -5.6872    0.4414 H   0  0  0  0  0  0  0  0  0  0  0  0
   -0.4867   -4.8126    0.0675 H   0  0  0  0  0  0  0  0  0  0  0  0
   -2.1942   -3.5176    1.4215 H   0  0  0  0  0  0  0  0  0  0  0  0
   -3.9555   -4.4466   -0.4156 H   0  0  0  0  0  0  0  0  0  0  0  0
   -3.5552   -2.8559   -1.1772 H   0  0  0  0  0  0  0  0  0  0  0  0
   -4.2449   -3.0051    0.5510 H   0  0  0  0  0  0  0  0  0  0  0  0
   -1.0242   -2.6012   -1.2809 H   0  0  0  0  0  0  0  0  0  0  0  0
   -0.1893   -2.7242    0.3518 H   0  0  0  0  0  0  0  0  0  0  0  0
   -1.4670   -0.9172    1.2397 H   0  0  0  0  0  0  0  0  0  0  0  0
   -2.7825   -0.6729   -1.5012 H   0  0  0  0  0  0  0  0  0  0  0  0
   -5.6671    1.2272    1.5602 H   0  0  0  0  0  0  0  0  0  0  0  0
   -7.8001    2.1287    0.6327 H   0  0  0  0  0  0  0  0  0  0  0  0
   -9.1096    2.8328   -1.3073 H   0  0  0  0  0  0  0  0  0  0  0  0
   -9.3371    1.2886   -2.1308 H   0  0  0  0  0  0  0  0  0  0  0  0
   -8.4123    2.6163   -2.9297 H   0  0  0  0  0  0  0  0  0  0  0  0
   -6.5733    0.8979   -3.2410 H   0  0  0  0  0  0  0  0  0  0  0  0
   -4.4772    0.0145   -2.3165 H   0  0  0  0  0  0  0  0  0  0  0  0
    0.8843   -0.5937    1.3513 H   0  0  0  0  0  0  0  0  0  0  0  0
    1.9158    0.8974   -1.1030 H   0  0  0  0  0  0  0  0  0  0  0  0
    1.0349    2.4396    0.5602 H   0  0  0  0  0  0  0  0  0  0  0  0
    2.8163    2.6234    0.3317 H   0  0  0  0  0  0  0  0  0  0  0  0
    3.0798    1.1692    2.4518 H   0  0  0  0  0  0  0  0  0  0  0  0
    1.3083    1.1055    2.5439 H   0  0  0  0  0  0  0  0  0  0  0  0
    4.3549    3.0555    2.7863 H   0  0  0  0  0  0  0  0  0  0  0  0
    4.5142    5.2661    3.8381 H   0  0  0  0  0  0  0  0  0  0  0  0
    2.4991    6.4779    4.4911 H   0  0  0  0  0  0  0  0  0  0  0  0
    0.2226    5.4548    4.0886 H   0  0  0  0  0  0  0  0  0  0  0  0
    0.1215    3.2372    3.0329 H   0  0  0  0  0  0  0  0  0  0  0  0
    5.3252    0.0956    0.5434 H   0  0  0  0  0  0  0  0  0  0  0  0
    4.5511    1.5981   -0.1535 H   0  0  0  0  0  0  0  0  0  0  0  0
    3.9964   -3.2657   -2.8748 H   0  0  0  0  0  0  0  0  0  0  0  0
    3.2162   -1.8926   -1.9927 H   0  0  0  0  0  0  0  0  0  0  0  0
    4.1587   -3.1186   -1.0699 H   0  0  0  0  0  0  0  0  0  0  0  0
    7.3610   -2.3857   -1.6074 H   0  0  0  0  0  0  0  0  0  0  0  0
    6.0223   -3.1597   -0.6689 H   0  0  0  0  0  0  0  0  0  0  0  0
    6.5339   -1.4413   -0.3462 H   0  0  0  0  0  0  0  0  0  0  0  0
    6.7309   -2.7160   -3.4485 H   0  0  0  0  0  0  0  0  0  0  0  0
    5.1849   -2.2673   -4.2363 H   0  0  0  0  0  0  0  0  0  0  0  0
    6.4803   -0.9918   -3.8392 H   0  0  0  0  0  0  0  0  0  0  0  0
  1  2  1  0
  2  3  1  0
  2  4  1  0
  4  5  1  0
  5  6  1  0
  6  7  1  0
  7  8  2  0
  7  9  1  0
  9 10  2  0
 10 11  1  0
 11 12  2  0
 12 13  1  0
 12 14  1  0
 14 15  2  0
  5 16  1  0
 16 17  2  0
 16 18  1  0
 18 19  1  0
 19 20  1  0
 20 21  1  0
 21 22  1  0
 22 23  2  0
 23 24  1  0
 24 25  2  0
 25 26  1  0
 26 27  2  0
 19 28  1  0
 28 29  2  0
 28 30  1  0
 30 31  1  0
 31 32  1  0
 32 33  1  0
 32 34  1  0
 32 35  1  0
 15  9  1  0
 27 22  1  0
  1 36  1  0
  1 37  1  0
  1 38  1  0
  2 39  1  0
  3 40  1  0
  3 41  1  0
  3 42  1  0
  4 43  1  0
  4 44  1  0
  5 45  1  1
  6 46  1  0
 10 47  1  0
 11 48  1  0
 13 49  1  0
 13 50  1  0
 13 51  1  0
 14 52  1  0
 15 53  1  0
 18 54  1  0
 19 55  1  6
 20 56  1  0
 20 57  1  0
 21 58  1  0
 21 59  1  0
 23 60  1  0
 24 61  1  0
 25 62  1  0
 26 63  1  0
 27 64  1  0
 30 65  1  0
 30 66  1  0
 33 67  1  0
 33 68  1  0
 33 69  1  0
 34 70  1  0
 34 71  1  0
 34 72  1  0
 35 73  1  0
 35 74  1  0
 35 75  1  0
M  END
$$$$
[H]c1c([H])c(C([H])([H])n2c(C(=O)N([H])C3(C(=O)N([H])C4(c5c([H])c(C([H])([H])[H])c([H])c(C([H])([H])[H])c5[H])C([H])([H])C4([H])[H])C([H])([H])C3([H])[H])c([H])c3c([H])c([H])c([H])c([H])c32)c(Cl)c([H])c1F
     RDKit          3D

 67 72  0  0  0  0  0  0  0  0999 V2000
    8.2541   -1.3736    0.1202 C   0  0  0  0  0  0  0  0  0  0  0  0
    7.0422   -0.5344    0.1850 C   0  0  0  0  0  0  0  0  0  0  0  0
    7.2021    0.8217   -0.0077 C   0  0  0  0  0  0  0  0  0  0  0  0
    6.1528    1.6701    0.0546 C   0  0  0  0  0  0  0  0  0  0  0  0
    6.3381    3.1284   -0.1465 C   0  0  0  0  0  0  0  0  0  0  0  0
    4.8527    1.1982    0.3217 C   0  0  0  0  0  0  0  0  0  0  0  0
    4.6624   -0.1613    0.5232 C   0  0  0  0  0  0  0  0  0  0  0  0
    5.7705   -1.0023    0.4484 C   0  0  0  0  0  0  0  0  0  0  0  0
    3.2839   -0.6732    0.8801 C   0  0  0  0  0  0  0  0  0  0  0  0
    3.2760   -2.0320    1.5116 C   0  0  0  0  0  0  0  0  0  0  0  0
    3.0495   -0.7789    2.3225 C   0  0  0  0  0  0  0  0  0  0  0  0
    2.2533   -0.4531   -0.0657 N   0  0  0  0  0  0  0  0  0  0  0  0
    1.4060    0.7181   -0.1589 C   0  0  0  0  0  0  0  0  0  0  0  0
    1.5695    1.6386    0.6820 O   0  0  0  0  0  0  0  0  0  0  0  0
    0.3814    0.8615   -1.2107 C   0  0  0  0  0  0  0  0  0  0  0  0
    0.9474    1.1134   -2.6102 C   0  0  0  0  0  0  0  0  0  0  0  0
    0.1777    2.1672   -1.8785 C   0  0  0  0  0  0  0  0  0  0  0  0
   -0.6644   -0.1452   -1.2345 N   0  0  0  0  0  0  0  0  0  0  0  0
   -1.7511   -0.0365   -0.2961 C   0  0  0  0  0  0  0  0  0  0  0  0
   -1.7582    0.9582    0.4631 O   0  0  0  0  0  0  0  0  0  0  0  0
   -2.8145   -1.0003   -0.1942 C   0  0  0  0  0  0  0  0  0  0  0  0
   -2.5054   -2.3333    0.0819 C   0  0  0  0  0  0  0  0  0  0  0  0
   -3.6776   -3.0132    0.1352 C   0  0  0  0  0  0  0  0  0  0  0  0
   -3.9670   -4.3612    0.3703 C   0  0  0  0  0  0  0  0  0  0  0  0
   -5.2544   -4.8352    0.3663 C   0  0  0  0  0  0  0  0  0  0  0  0
   -6.2507   -3.9264    0.1134 C   0  0  0  0  0  0  0  0  0  0  0  0
   -5.9682   -2.6046   -0.1175 C   0  0  0  0  0  0  0  0  0  0  0  0
   -4.6799   -2.1086   -0.1085 C   0  0  0  0  0  0  0  0  0  0  0  0
   -4.1421   -0.8507   -0.3152 N   0  0  0  0  0  0  0  0  0  0  0  0
   -4.9315    0.2315   -0.7272 C   0  0  0  0  0  0  0  0  0  0  0  0
   -5.2977    1.3861    0.0204 C   0  0  0  0  0  0  0  0  0  0  0  0
   -4.7852    2.6277   -0.4464 C   0  0  0  0  0  0  0  0  0  0  0  0
   -5.1057    3.8384    0.0756 C   0  0  0  0  0  0  0  0  0  0  0  0
   -5.9821    3.9284    1.1325 C   0  0  0  0  0  0  0  0  0  0  0  0
   -6.3290    5.1039    1.6758 F   0  0  0  0  0  0  0  0  0  0  0  0
   -6.4975    2.7628    1.6171 C   0  0  0  0  0  0  0  0  0  0  0  0
   -6.1590    1.5064    1.0689 C   0  0  0  0  0  0  0  0  0  0  0  0
   -6.9170    0.1706    1.8702 Cl  0  0  0  0  0  0  0  0  0  0  0  0
    8.6671   -1.2829   -0.9273 H   0  0  0  0  0  0  0  0  0  0  0  0
    9.0334   -0.9141    0.8017 H   0  0  0  0  0  0  0  0  0  0  0  0
    8.1396   -2.4028    0.4022 H   0  0  0  0  0  0  0  0  0  0  0  0
    8.2283    1.1945   -0.2149 H   0  0  0  0  0  0  0  0  0  0  0  0
    5.8776    3.6793    0.7227 H   0  0  0  0  0  0  0  0  0  0  0  0
    7.4031    3.3911   -0.1144 H   0  0  0  0  0  0  0  0  0  0  0  0
    5.8441    3.4180   -1.0886 H   0  0  0  0  0  0  0  0  0  0  0  0
    4.0960    1.9332    0.3459 H   0  0  0  0  0  0  0  0  0  0  0  0
    5.6480   -2.0413    0.5923 H   0  0  0  0  0  0  0  0  0  0  0  0
    2.3943   -2.7008    1.3114 H   0  0  0  0  0  0  0  0  0  0  0  0
    4.1646   -2.5913    1.7839 H   0  0  0  0  0  0  0  0  0  0  0  0
    3.8344   -0.4440    3.0166 H   0  0  0  0  0  0  0  0  0  0  0  0
    2.0329   -0.7222    2.7523 H   0  0  0  0  0  0  0  0  0  0  0  0
    2.0850   -1.2022   -0.8238 H   0  0  0  0  0  0  0  0  0  0  0  0
    0.5760    0.5642   -3.4723 H   0  0  0  0  0  0  0  0  0  0  0  0
    2.0553    1.3172   -2.6689 H   0  0  0  0  0  0  0  0  0  0  0  0
   -0.7810    2.4332   -2.3124 H   0  0  0  0  0  0  0  0  0  0  0  0
    0.7588    3.0473   -1.4670 H   0  0  0  0  0  0  0  0  0  0  0  0
   -0.6345   -0.9314   -1.9011 H   0  0  0  0  0  0  0  0  0  0  0  0
   -1.4934   -2.7527    0.2170 H   0  0  0  0  0  0  0  0  0  0  0  0
   -3.0994   -5.0093    0.5531 H   0  0  0  0  0  0  0  0  0  0  0  0
   -5.4680   -5.8804    0.5581 H   0  0  0  0  0  0  0  0  0  0  0  0
   -7.3095   -4.2835    0.1101 H   0  0  0  0  0  0  0  0  0  0  0  0
   -6.8095   -1.9699   -0.3227 H   0  0  0  0  0  0  0  0  0  0  0  0
   -4.4992    0.5351   -1.7581 H   0  0  0  0  0  0  0  0  0  0  0  0
   -5.9546   -0.1867   -1.1295 H   0  0  0  0  0  0  0  0  0  0  0  0
   -4.0925    2.6090   -1.2819 H   0  0  0  0  0  0  0  0  0  0  0  0
   -4.6927    4.7561   -0.3335 H   0  0  0  0  0  0  0  0  0  0  0  0
   -7.1854    2.8300    2.4580 H   0  0  0  0  0  0  0  0  0  0  0  0
  1  2  1  0
  2  3  2  0
  3  4  1  0
  4  5  1  0
  4  6  2  0
  6  7  1  0
  7  8  2  0
  7  9  1  0
  9 10  1  0
 10 11  1  0
  9 12  1  0
 12 13  1  0
 13 14  2  0
 13 15  1  0
 15 16  1  0
 16 17  1  0
 15 18  1  0
 18 19  1  0
 19 20  2  0
 19 21  1  0
 21 22  2  0
 22 23  1  0
 23 24  2  0
 24 25  1  0
 25 26  2  0
 26 27  1  0
 27 28  2  0
 28 29  1  0
 29 30  1  0
 30 31  1  0
 31 32  2  0
 32 33  1  0
 33 34  2  0
 34 35  1  0
 34 36  1  0
 36 37  2  0
 37 38  1  0
  8  2  1  0
 11  9  1  0
 17 15  1  0
 29 21  1  0
 37 31  1  0
 28 23  1  0
  1 39  1  0
  1 40  1  0
  1 41  1  0
  3 42  1  0
  5 43  1  0
  5 44  1  0
  5 45  1  0
  6 46  1  0
  8 47  1  0
 10 48  1  0
 10 49  1  0
 11 50  1  0
 11 51  1  0
 12 52  1  0
 16 53  1  0
 16 54  1  0
 17 55  1  0
 17 56  1  0
 18 57  1  0
 22 58  1  0
 24 59  1  0
 25 60  1  0
 26 61  1  0
 27 62  1  0
 30 63  1  0
 30 64  1  0
 32 65  1  0
 33 66  1  0
 36 67  1  0
M  END
$$$$
[H]c1c([H])c([H])c(-c2c([H])c([H])c(C(=O)N([H])c3c([H])c([H])c([H])c(C([H])([H])C([H])([H])N(C([H])([H])[H])C([H])([H])[H])c3C(=O)N([H])[C@]([H])(C(=O)N(C([H])([H])[H])C([H])([H])[H])C([H])(C([H])([H])[H])C([H])([H])[H])c([H])c2[H])c([H])c1[H]
     RDKit          3D

 76 78  0  0  0  0  0  0  0  0999 V2000
   -3.0272   -0.9536    3.1908 C   0  0  0  0  0  0  0  0  0  0  0  0
   -1.9369   -1.4601    2.3140 C   0  0  0  0  0  0  0  0  0  0  0  0
   -1.7756   -2.9440    2.4648 C   0  0  0  0  0  0  0  0  0  0  0  0
   -2.0190   -1.0099    0.8788 C   0  0  2  0  0  0  0  0  0  0  0  0
   -1.9461    0.4966    0.8657 N   0  0  0  0  0  0  0  0  0  0  0  0
   -0.8920    1.1437    0.2749 C   0  0  0  0  0  0  0  0  0  0  0  0
   -0.0363    0.2554   -0.2197 O   0  0  0  0  0  0  0  0  0  0  0  0
   -0.5552    2.5138    0.1095 C   0  0  0  0  0  0  0  0  0  0  0  0
   -1.4572    3.5318    0.1695 C   0  0  0  0  0  0  0  0  0  0  0  0
   -2.8793    3.3842    0.5084 C   0  0  0  0  0  0  0  0  0  0  0  0
   -3.6375    2.9658   -0.7223 C   0  0  0  0  0  0  0  0  0  0  0  0
   -5.0246    2.7700   -0.5217 N   0  0  0  0  0  0  0  0  0  0  0  0
   -5.7166    2.3818   -1.7221 C   0  0  0  0  0  0  0  0  0  0  0  0
   -5.7344    3.7771    0.1832 C   0  0  0  0  0  0  0  0  0  0  0  0
   -1.0572    4.8287   -0.1841 C   0  0  0  0  0  0  0  0  0  0  0  0
    0.1980    5.1467   -0.5935 C   0  0  0  0  0  0  0  0  0  0  0  0
    1.1155    4.1281   -0.6559 C   0  0  0  0  0  0  0  0  0  0  0  0
    0.7831    2.8440   -0.3202 C   0  0  0  0  0  0  0  0  0  0  0  0
    1.7474    1.8235   -0.1882 N   0  0  0  0  0  0  0  0  0  0  0  0
    2.9176    1.7378   -0.9538 C   0  0  0  0  0  0  0  0  0  0  0  0
    3.1598    2.5950   -1.8363 O   0  0  0  0  0  0  0  0  0  0  0  0
    3.8885    0.6331   -0.7356 C   0  0  0  0  0  0  0  0  0  0  0  0
    4.8401    0.3522   -1.6956 C   0  0  0  0  0  0  0  0  0  0  0  0
    5.7641   -0.6670   -1.5231 C   0  0  0  0  0  0  0  0  0  0  0  0
    5.7773   -1.4482   -0.3866 C   0  0  0  0  0  0  0  0  0  0  0  0
    4.8252   -1.1617    0.5665 C   0  0  0  0  0  0  0  0  0  0  0  0
    3.8880   -0.1344    0.4013 C   0  0  0  0  0  0  0  0  0  0  0  0
    6.7416   -2.5237   -0.1955 C   0  0  0  0  0  0  0  0  0  0  0  0
    7.2349   -3.2526   -1.2659 C   0  0  0  0  0  0  0  0  0  0  0  0
    8.1354   -4.2658   -1.0969 C   0  0  0  0  0  0  0  0  0  0  0  0
    8.5744   -4.5825    0.1717 C   0  0  0  0  0  0  0  0  0  0  0  0
    8.1099   -3.8829    1.2656 C   0  0  0  0  0  0  0  0  0  0  0  0
    7.2013   -2.8660    1.0589 C   0  0  0  0  0  0  0  0  0  0  0  0
   -3.2512   -1.3657    0.1796 C   0  0  0  0  0  0  0  0  0  0  0  0
   -4.2518   -0.5673    0.3114 O   0  0  0  0  0  0  0  0  0  0  0  0
   -3.4711   -2.4976   -0.6351 N   0  0  0  0  0  0  0  0  0  0  0  0
   -2.4802   -3.5053   -0.9415 C   0  0  0  0  0  0  0  0  0  0  0  0
   -4.7769   -2.6989   -1.2243 C   0  0  0  0  0  0  0  0  0  0  0  0
   -2.5863   -0.3803    4.0303 H   0  0  0  0  0  0  0  0  0  0  0  0
   -3.5861   -1.7929    3.7056 H   0  0  0  0  0  0  0  0  0  0  0  0
   -3.7269   -0.2638    2.6914 H   0  0  0  0  0  0  0  0  0  0  0  0
   -0.9589   -1.0201    2.6907 H   0  0  0  0  0  0  0  0  0  0  0  0
   -1.5627   -3.2348    3.5210 H   0  0  0  0  0  0  0  0  0  0  0  0
   -0.9856   -3.3373    1.7856 H   0  0  0  0  0  0  0  0  0  0  0  0
   -2.7259   -3.4279    2.1616 H   0  0  0  0  0  0  0  0  0  0  0  0
   -1.1272   -1.3442    0.3468 H   0  0  0  0  0  0  0  0  0  0  0  0
   -2.7359    0.8900    1.3476 H   0  0  0  0  0  0  0  0  0  0  0  0
   -3.2343    4.4473    0.8027 H   0  0  0  0  0  0  0  0  0  0  0  0
   -3.1342    2.8379    1.3979 H   0  0  0  0  0  0  0  0  0  0  0  0
   -3.1770    2.1037   -1.2004 H   0  0  0  0  0  0  0  0  0  0  0  0
   -3.5576    3.7876   -1.5167 H   0  0  0  0  0  0  0  0  0  0  0  0
   -5.5146    3.0514   -2.5855 H   0  0  0  0  0  0  0  0  0  0  0  0
   -6.8175    2.3725   -1.6007 H   0  0  0  0  0  0  0  0  0  0  0  0
   -5.4236    1.3636   -2.0651 H   0  0  0  0  0  0  0  0  0  0  0  0
   -5.2086    4.7523    0.2543 H   0  0  0  0  0  0  0  0  0  0  0  0
   -6.0497    3.4212    1.2090 H   0  0  0  0  0  0  0  0  0  0  0  0
   -6.6927    3.9741   -0.3433 H   0  0  0  0  0  0  0  0  0  0  0  0
   -1.7707    5.6557   -0.1412 H   0  0  0  0  0  0  0  0  0  0  0  0
    0.4717    6.1798   -0.8653 H   0  0  0  0  0  0  0  0  0  0  0  0
    2.1177    4.3785   -0.9638 H   0  0  0  0  0  0  0  0  0  0  0  0
    1.6208    1.1086    0.5900 H   0  0  0  0  0  0  0  0  0  0  0  0
    4.8233    0.9744   -2.5921 H   0  0  0  0  0  0  0  0  0  0  0  0
    6.5033   -0.8695   -2.2928 H   0  0  0  0  0  0  0  0  0  0  0  0
    4.8102   -1.7651    1.4801 H   0  0  0  0  0  0  0  0  0  0  0  0
    3.1711    0.0430    1.1831 H   0  0  0  0  0  0  0  0  0  0  0  0
    6.9118   -3.0366   -2.2973 H   0  0  0  0  0  0  0  0  0  0  0  0
    8.5053   -4.8178   -1.9373 H   0  0  0  0  0  0  0  0  0  0  0  0
    9.2848   -5.3724    0.3698 H   0  0  0  0  0  0  0  0  0  0  0  0
    8.4620   -4.1420    2.2578 H   0  0  0  0  0  0  0  0  0  0  0  0
    6.8605   -2.3388    1.9539 H   0  0  0  0  0  0  0  0  0  0  0  0
   -1.4570   -3.2347   -0.6537 H   0  0  0  0  0  0  0  0  0  0  0  0
   -2.7523   -4.4149   -0.3492 H   0  0  0  0  0  0  0  0  0  0  0  0
   -2.4490   -3.7702   -2.0212 H   0  0  0  0  0  0  0  0  0  0  0  0
   -4.5944   -2.9555   -2.3086 H   0  0  0  0  0  0  0  0  0  0  0  0
   -5.3873   -1.7744   -1.2398 H   0  0  0  0  0  0  0  0  0  0  0  0
   -5.3024   -3.5707   -0.8020 H   0  0  0  0  0  0  0  0  0  0  0  0
  1  2  1  0
  2  3  1  0
  2  4  1  0
  4  5  1  0
  5  6  1  0
  6  7  2  0
  6  8  1  0
  8  9  2  0
  9 10  1  0
 10 11  1  0
 11 12  1  0
 12 13  1  0
 12 14  1  0
  9 15  1  0
 15 16  2  0
 16 17  1  0
 17 18  2  0
 18 19  1  0
 19 20  1  0
 20 21  2  0
 20 22  1  0
 22 23  2  0
 23 24  1  0
 24 25  2  0
 25 26  1  0
 26 27  2  0
 25 28  1  0
 28 29  2  0
 29 30  1  0
 30 31  2  0
 31 32  1  0
 32 33  2  0
  4 34  1  0
 34 35  2  0
 34 36  1  0
 36 37  1  0
 36 38  1  0
 18  8  1  0
 27 22  1  0
 33 28  1  0
  1 39  1  0
  1 40  1  0
  1 41  1  0
  2 42  1  0
  3 43  1  0
  3 44  1  0
  3 45  1  0
  4 46  1  6
  5 47  1  0
 10 48  1  0
 10 49  1  0
 11 50  1  0
 11 51  1  0
 13 52  1  0
 13 53  1  0
 13 54  1  0
 14 55  1  0
 14 56  1  0
 14 57  1  0
 15 58  1  0
 16 59  1  0
 17 60  1  0
 19 61  1  0
 23 62  1  0
 24 63  1  0
 26 64  1  0
 27 65  1  0
 29 66  1  0
 30 67  1  0
 31 68  1  0
 32 69  1  0
 33 70  1  0
 37 71  1  0
 37 72  1  0
 37 73  1  0
 38 74  1  0
 38 75  1  0
 38 76  1  0
M  END
$$$$
[H]c1c([H])c([N+](=O)[O-])c([H])c2c1C(=O)N(C([H])([H])C([H])([H])C([H])([H])[C@]13O[C@@]([H])(C([H])([H])C1([H])[H])C([H])([H])[C@]3([H])O[C@]([H])(c1nnn(C([H])([H])C([H])([H])C([H])([H])C([H])([H])C([H])([H])C([H])([H])C([H])([H])C([H])([H])C([H])([H])C([H])([H])C([H])([H])C([H])([H])[H])n1)C([H])([H])[H])C([H])([H])C2([H])[H]
     RDKit          2D

 94 98  0  0  0  0  0  0  0  0999 V2000
   25.5383  -14.6463    0.0000 C   0  0  0  0  0  0  0  0  0  0  0  0
   24.1680  -14.0362    0.0000 C   0  0  0  0  0  0  0  0  0  0  0  0
   22.7977  -13.4261    0.0000 C   0  0  0  0  0  0  0  0  0  0  0  0
   21.4273  -12.8160    0.0000 C   0  0  0  0  0  0  0  0  0  0  0  0
   20.0570  -12.2059    0.0000 C   0  0  0  0  0  0  0  0  0  0  0  0
   18.6867  -11.5958    0.0000 C   0  0  0  0  0  0  0  0  0  0  0  0
   17.3164  -10.9857    0.0000 C   0  0  0  0  0  0  0  0  0  0  0  0
   15.9461  -10.3756    0.0000 C   0  0  0  0  0  0  0  0  0  0  0  0
   14.5757   -9.7655    0.0000 C   0  0  0  0  0  0  0  0  0  0  0  0
   13.2054   -9.1554    0.0000 C   0  0  0  0  0  0  0  0  0  0  0  0
   11.8351   -8.5452    0.0000 C   0  0  0  0  0  0  0  0  0  0  0  0
   10.4648   -7.9351    0.0000 C   0  0  0  0  0  0  0  0  0  0  0  0
    9.0945   -7.3250    0.0000 N   0  0  0  0  0  0  0  0  0  0  0  0
    7.7954   -8.0750    0.0000 N   0  0  0  0  0  0  0  0  0  0  0  0
    6.6807   -7.0713    0.0000 N   0  0  0  0  0  0  0  0  0  0  0  0
    7.2908   -5.7010    0.0000 C   0  0  0  0  0  0  0  0  0  0  0  0
    8.7826   -5.8578    0.0000 N   0  0  0  0  0  0  0  0  0  0  0  0
    6.5408   -4.4020    0.0000 C   0  0  0  0  0  0  0  0  0  0  0  0
    5.7908   -3.1029    0.0000 C   0  0  0  0  0  0  0  0  0  0  0  0
    5.2418   -5.1520    0.0000 O   0  0  0  0  0  0  0  0  0  0  0  0
    5.2418   -6.6520    0.0000 C   0  0  0  0  0  0  0  0  0  0  0  0
    5.5537   -8.1192    0.0000 C   0  0  0  0  0  0  0  0  0  0  0  0
    4.2546   -8.8692    0.0000 C   0  0  0  0  0  0  0  0  0  0  0  0
    2.7628   -8.7124    0.0000 C   0  0  0  0  0  0  0  0  0  0  0  0
    2.4510   -7.2452    0.0000 C   0  0  0  0  0  0  0  0  0  0  0  0
    3.7500   -6.4952    0.0000 C   0  0  0  0  0  0  0  0  0  0  0  0
    3.0000   -5.1962    0.0000 C   0  0  0  0  0  0  0  0  0  0  0  0
    2.2500   -3.8971    0.0000 C   0  0  0  0  0  0  0  0  0  0  0  0
    1.5000   -2.5981    0.0000 C   0  0  0  0  0  0  0  0  0  0  0  0
    0.7500   -1.2990    0.0000 N   0  0  0  0  0  0  0  0  0  0  0  0
    1.5000    0.0000    0.0000 C   0  0  0  0  0  0  0  0  0  0  0  0
    0.7500    1.2990    0.0000 C   0  0  0  0  0  0  0  0  0  0  0  0
   -0.7500    1.2990    0.0000 C   0  0  0  0  0  0  0  0  0  0  0  0
   -1.5000    2.5981    0.0000 C   0  0  0  0  0  0  0  0  0  0  0  0
   -3.0000    2.5981    0.0000 C   0  0  0  0  0  0  0  0  0  0  0  0
   -3.7500    1.2990    0.0000 C   0  0  0  0  0  0  0  0  0  0  0  0
   -3.0000    0.0000    0.0000 C   0  0  0  0  0  0  0  0  0  0  0  0
   -1.5000    0.0000    0.0000 C   0  0  0  0  0  0  0  0  0  0  0  0
   -0.7500   -1.2990    0.0000 C   0  0  0  0  0  0  0  0  0  0  0  0
   -1.5000   -2.5981    0.0000 O   0  0  0  0  0  0  0  0  0  0  0  0
   -3.7500    3.8971    0.0000 N   0  0  0  0  0  0  0  0  0  0  0  0
   -5.2500    3.8971    0.0000 O   0  0  0  0  0  0  0  0  0  0  0  0
   -3.0000    5.1962    0.0000 O   0  0  0  0  0  0  0  0  0  0  0  0
    3.1399   -7.8655    0.0000 O   0  0  0  0  0  0  0  0  0  0  0  0
   26.9086  -15.2564    0.0000 H   0  0  0  0  0  0  0  0  0  0  0  0
   24.9282  -16.0166    0.0000 H   0  0  0  0  0  0  0  0  0  0  0  0
   26.1484  -13.2760    0.0000 H   0  0  0  0  0  0  0  0  0  0  0  0
   23.5579  -15.4065    0.0000 H   0  0  0  0  0  0  0  0  0  0  0  0
   24.7781  -12.6659    0.0000 H   0  0  0  0  0  0  0  0  0  0  0  0
   23.4078  -12.0558    0.0000 H   0  0  0  0  0  0  0  0  0  0  0  0
   22.1875  -14.7964    0.0000 H   0  0  0  0  0  0  0  0  0  0  0  0
   20.8172  -14.1863    0.0000 H   0  0  0  0  0  0  0  0  0  0  0  0
   22.0374  -11.4457    0.0000 H   0  0  0  0  0  0  0  0  0  0  0  0
   20.6671  -10.8356    0.0000 H   0  0  0  0  0  0  0  0  0  0  0  0
   19.4469  -13.5762    0.0000 H   0  0  0  0  0  0  0  0  0  0  0  0
   18.0766  -12.9661    0.0000 H   0  0  0  0  0  0  0  0  0  0  0  0
   19.2968  -10.2255    0.0000 H   0  0  0  0  0  0  0  0  0  0  0  0
   17.9265   -9.6153    0.0000 H   0  0  0  0  0  0  0  0  0  0  0  0
   16.7063  -12.3560    0.0000 H   0  0  0  0  0  0  0  0  0  0  0  0
   15.3360  -11.7459    0.0000 H   0  0  0  0  0  0  0  0  0  0  0  0
   16.5562   -9.0052    0.0000 H   0  0  0  0  0  0  0  0  0  0  0  0
   15.1858   -8.3951    0.0000 H   0  0  0  0  0  0  0  0  0  0  0  0
   13.9656  -11.1358    0.0000 H   0  0  0  0  0  0  0  0  0  0  0  0
   12.5953  -10.5257    0.0000 H   0  0  0  0  0  0  0  0  0  0  0  0
   13.8155   -7.7850    0.0000 H   0  0  0  0  0  0  0  0  0  0  0  0
   12.4452   -7.1749    0.0000 H   0  0  0  0  0  0  0  0  0  0  0  0
   11.2250   -9.9156    0.0000 H   0  0  0  0  0  0  0  0  0  0  0  0
   11.0749   -6.5648    0.0000 H   0  0  0  0  0  0  0  0  0  0  0  0
    9.8547   -9.3055    0.0000 H   0  0  0  0  0  0  0  0  0  0  0  0
    7.8399   -3.6520    0.0000 H   0  0  0  0  0  0  0  0  0  0  0  0
    5.0408   -1.8039    0.0000 H   0  0  0  0  0  0  0  0  0  0  0  0
    7.0899   -2.3529    0.0000 H   0  0  0  0  0  0  0  0  0  0  0  0
    4.5929   -4.0057    0.0000 H   0  0  0  0  0  0  0  0  0  0  0  0
    6.0312   -6.7630    0.0000 H   0  0  0  0  0  0  0  0  0  0  0  0
    7.0500   -8.0147    0.0000 H   0  0  0  0  0  0  0  0  0  0  0  0
    6.1638   -9.4895    0.0000 H   0  0  0  0  0  0  0  0  0  0  0  0
    4.0978  -10.3610    0.0000 H   0  0  0  0  0  0  0  0  0  0  0  0
    2.7628  -10.2124    0.0000 H   0  0  0  0  0  0  0  0  0  0  0  0
    1.2710   -8.8692    0.0000 H   0  0  0  0  0  0  0  0  0  0  0  0
    1.0244   -7.7087    0.0000 H   0  0  0  0  0  0  0  0  0  0  0  0
    1.6784   -5.9595    0.0000 H   0  0  0  0  0  0  0  0  0  0  0  0
    1.6192   -5.7822    0.0000 H   0  0  0  0  0  0  0  0  0  0  0  0
    4.3808   -4.6101    0.0000 H   0  0  0  0  0  0  0  0  0  0  0  0
    3.5490   -3.1471    0.0000 H   0  0  0  0  0  0  0  0  0  0  0  0
    0.9510   -4.6471    0.0000 H   0  0  0  0  0  0  0  0  0  0  0  0
    2.8808   -2.0120    0.0000 H   0  0  0  0  0  0  0  0  0  0  0  0
    0.2010   -3.3481    0.0000 H   0  0  0  0  0  0  0  0  0  0  0  0
    2.6491    0.9642    0.0000 H   0  0  0  0  0  0  0  0  0  0  0  0
    2.7580   -0.8169    0.0000 H   0  0  0  0  0  0  0  0  0  0  0  0
    0.4895    2.7762    0.0000 H   0  0  0  0  0  0  0  0  0  0  0  0
    2.1595    1.8121    0.0000 H   0  0  0  0  0  0  0  0  0  0  0  0
   -0.7500    3.8971    0.0000 H   0  0  0  0  0  0  0  0  0  0  0  0
   -5.2500    1.2990    0.0000 H   0  0  0  0  0  0  0  0  0  0  0  0
   -3.7500   -1.2990    0.0000 H   0  0  0  0  0  0  0  0  0  0  0  0
  1  2  1  0
  2  3  1  0
  3  4  1  0
  4  5  1  0
  5  6  1  0
  6  7  1  0
  7  8  1  0
  8  9  1  0
  9 10  1  0
 10 11  1  0
 11 12  1  0
 12 13  1  0
 13 14  1  0
 14 15  2  0
 15 16  1  0
 16 17  2  0
 16 18  1  0
 18 19  1  0
 18 20  1  0
 20 21  1  0
 21 22  1  0
 22 23  1  0
 23 24  1  0
 24 25  1  0
 25 26  1  0
 26 27  1  6
 27 28  1  0
 28 29  1  0
 29 30  1  0
 30 31  1  0
 31 32  1  0
 32 33  1  0
 33 34  2  0
 34 35  1  0
 35 36  2  0
 36 37  1  0
 37 38  2  0
 38 39  1  0
 39 40  2  0
 35 41  1  0
 41 42  1  0
 41 43  2  0
 26 44  1  0
 17 13  1  0
 26 21  1  0
 39 30  1  0
 44 23  1  0
 38 33  1  0
  1 45  1  0
  1 46  1  0
  1 47  1  0
  2 48  1  0
  2 49  1  0
  3 50  1  0
  3 51  1  0
  4 52  1  0
  4 53  1  0
  5 54  1  0
  5 55  1  0
  6 56  1  0
  6 57  1  0
  7 58  1  0
  7 59  1  0
  8 60  1  0
  8 61  1  0
  9 62  1  0
  9 63  1  0
 10 64  1  0
 10 65  1  0
 11 66  1  0
 11 67  1  0
 12 68  1  0
 12 69  1  0
 18 70  1  6
 19 71  1  0
 19 72  1  0
 19 73  1  0
 21 74  1  6
 22 75  1  0
 22 76  1  0
 23 77  1  1
 24 78  1  0
 24 79  1  0
 25 80  1  0
 25 81  1  0
 27 82  1  0
 27 83  1  0
 28 84  1  0
 28 85  1  0
 29 86  1  0
 29 87  1  0
 31 88  1  0
 31 89  1  0
 32 90  1  0
 32 91  1  0
 34 92  1  0
 36 93  1  0
 37 94  1  0
M  CHG  2  41   1  42  -1
M  END
$$$$
[H]c1nc(N([H])c2c([H])c([H])c(OC([H])([H])c3c([H])c([H])c([H])c(N([H])[H])c3[H])c(Cl)c2[H])c2c(n1)c([H])c([H])n2C([H])([H])[H]
     RDKit          3D

 45 48  0  0  0  0  0  0  0  0999 V2000
   -5.7319    0.0736   -1.7937 C   0  0  0  0  0  0  0  0  0  0  0  0
   -6.0751    0.0113   -0.3873 N   0  0  0  0  0  0  0  0  0  0  0  0
   -7.3627   -0.0059    0.0968 C   0  0  0  0  0  0  0  0  0  0  0  0
   -7.3290   -0.0819    1.4632 C   0  0  0  0  0  0  0  0  0  0  0  0
   -6.0154   -0.1117    1.8274 C   0  0  0  0  0  0  0  0  0  0  0  0
   -5.4565   -0.1881    3.0187 N   0  0  0  0  0  0  0  0  0  0  0  0
   -4.1183   -0.2100    3.1307 C   0  0  0  0  0  0  0  0  0  0  0  0
   -3.3623   -0.1541    2.0406 N   0  0  0  0  0  0  0  0  0  0  0  0
   -3.8586   -0.0730    0.7673 C   0  0  0  0  0  0  0  0  0  0  0  0
   -3.0098    0.0361   -0.3303 N   0  0  0  0  0  0  0  0  0  0  0  0
   -1.5660   -0.0397   -0.2722 C   0  0  0  0  0  0  0  0  0  0  0  0
   -0.7999    0.6110   -1.2453 C   0  0  0  0  0  0  0  0  0  0  0  0
    0.5765    0.5566   -1.2721 C   0  0  0  0  0  0  0  0  0  0  0  0
    1.2545   -0.1657   -0.3066 C   0  0  0  0  0  0  0  0  0  0  0  0
    2.6461   -0.2489   -0.2935 O   0  0  0  0  0  0  0  0  0  0  0  0
    3.4460    0.3989   -1.2643 C   0  0  0  0  0  0  0  0  0  0  0  0
    4.8623    0.0919   -0.9380 C   0  0  0  0  0  0  0  0  0  0  0  0
    5.4650   -1.0402   -1.4907 C   0  0  0  0  0  0  0  0  0  0  0  0
    6.7691   -1.3863   -1.2340 C   0  0  0  0  0  0  0  0  0  0  0  0
    7.4808   -0.5407   -0.3796 C   0  0  0  0  0  0  0  0  0  0  0  0
    6.9037    0.5664    0.1655 C   0  0  0  0  0  0  0  0  0  0  0  0
    7.6750    1.3914    1.0283 N   0  0  0  0  0  0  0  0  0  0  0  0
    5.5996    0.8931   -0.1045 C   0  0  0  0  0  0  0  0  0  0  0  0
    0.5248   -0.8110    0.6554 C   0  0  0  0  0  0  0  0  0  0  0  0
    1.3946   -1.7216    1.8714 Cl  0  0  0  0  0  0  0  0  0  0  0  0
   -0.8775   -0.7461    0.6686 C   0  0  0  0  0  0  0  0  0  0  0  0
   -5.2336   -0.0525    0.6665 C   0  0  0  0  0  0  0  0  0  0  0  0
   -6.7026   -0.0408   -2.3829 H   0  0  0  0  0  0  0  0  0  0  0  0
   -5.2966    1.0243   -2.1157 H   0  0  0  0  0  0  0  0  0  0  0  0
   -5.1674   -0.8422   -2.1406 H   0  0  0  0  0  0  0  0  0  0  0  0
   -8.2174    0.0372   -0.5543 H   0  0  0  0  0  0  0  0  0  0  0  0
   -8.2211   -0.1109    2.1033 H   0  0  0  0  0  0  0  0  0  0  0  0
   -3.7163   -0.2743    4.1379 H   0  0  0  0  0  0  0  0  0  0  0  0
   -3.3429    0.1925   -1.2917 H   0  0  0  0  0  0  0  0  0  0  0  0
   -1.3414    1.1721   -1.9935 H   0  0  0  0  0  0  0  0  0  0  0  0
    1.1652    1.0613   -2.0264 H   0  0  0  0  0  0  0  0  0  0  0  0
    3.2529    0.0207   -2.2834 H   0  0  0  0  0  0  0  0  0  0  0  0
    3.3088    1.4954   -1.2630 H   0  0  0  0  0  0  0  0  0  0  0  0
    4.8841   -1.6704   -2.1466 H   0  0  0  0  0  0  0  0  0  0  0  0
    7.2702   -2.2348   -1.6295 H   0  0  0  0  0  0  0  0  0  0  0  0
    8.4995   -0.7895   -0.1642 H   0  0  0  0  0  0  0  0  0  0  0  0
    8.5648    1.8354    0.6684 H   0  0  0  0  0  0  0  0  0  0  0  0
    7.4318    1.6001    2.0080 H   0  0  0  0  0  0  0  0  0  0  0  0
    5.1542    1.7742    0.3346 H   0  0  0  0  0  0  0  0  0  0  0  0
   -1.3273   -1.3030    1.4539 H   0  0  0  0  0  0  0  0  0  0  0  0
  1  2  1  0
  2  3  1  0
  3  4  2  0
  4  5  1  0
  5  6  2  0
  6  7  1  0
  7  8  2  0
  8  9  1  0
  9 10  1  0
 10 11  1  0
 11 12  2  0
 12 13  1  0
 13 14  2  0
 14 15  1  0
 15 16  1  0
 16 17  1  0
 17 18  2  0
 18 19  1  0
 19 20  2  0
 20 21  1  0
 21 22  1  0
 21 23  2  0
 14 24  1  0
 24 25  1  0
 24 26  2  0
  9 27  2  0
 27  2  1  0
 27  5  1  0
 26 11  1  0
 23 17  1  0
  1 28  1  0
  1 29  1  0
  1 30  1  0
  3 31  1  0
  4 32  1  0
  7 33  1  0
 10 34  1  0
 12 35  1  0
 13 36  1  0
 16 37  1  0
 16 38  1  0
 18 39  1  0
 19 40  1  0
 20 41  1  0
 22 42  1  0
 22 43  1  0
 23 44  1  0
 26 45  1  0
M  END
$$$$
[H]c1nc2c(c(Oc3c([H])c([H])c4c(c3[H])[C@]3([H])[C@]([H])(O4)[C@@]3([H])N([H])C(=O)c3c([H])c(N([H])C(=O)c4c([H])c(C([H])([H])[H])c(OC([H])([H])[H])c(C([H])([H])[H])c4[H])c([H])c([H])c3C([H])([H])[H])c1[H])C([H])([H])C([H])([H])C(=O)N2[H]
     RDKit          3D

 77 83  0  0  0  0  0  0  0  0999 V2000
   11.8789    1.5470    0.6716 C   0  0  0  0  0  0  0  0  0  0  0  0
   10.7402    2.2661    1.0737 O   0  0  0  0  0  0  0  0  0  0  0  0
    9.4825    1.9819    0.5907 C   0  0  0  0  0  0  0  0  0  0  0  0
    8.7139    1.0461    1.2976 C   0  0  0  0  0  0  0  0  0  0  0  0
    9.2906    0.4367    2.5148 C   0  0  0  0  0  0  0  0  0  0  0  0
    7.4485    0.7068    0.8809 C   0  0  0  0  0  0  0  0  0  0  0  0
    6.8938    1.2857   -0.2576 C   0  0  0  0  0  0  0  0  0  0  0  0
    7.6513    2.1925   -0.9313 C   0  0  0  0  0  0  0  0  0  0  0  0
    8.9311    2.5559   -0.5375 C   0  0  0  0  0  0  0  0  0  0  0  0
    9.7474    3.5410   -1.2864 C   0  0  0  0  0  0  0  0  0  0  0  0
    5.5368    0.8615   -0.6727 C   0  0  0  0  0  0  0  0  0  0  0  0
    4.6076    1.6605   -0.8010 O   0  0  0  0  0  0  0  0  0  0  0  0
    5.3887   -0.5155   -0.9085 N   0  0  0  0  0  0  0  0  0  0  0  0
    4.1504   -1.0712   -1.2970 C   0  0  0  0  0  0  0  0  0  0  0  0
    4.2223   -2.1627   -2.1741 C   0  0  0  0  0  0  0  0  0  0  0  0
    3.0909   -2.7796   -2.5575 C   0  0  0  0  0  0  0  0  0  0  0  0
    1.8374   -2.3616   -2.1056 C   0  0  0  0  0  0  0  0  0  0  0  0
    0.6911   -3.0757   -2.6577 C   0  0  0  0  0  0  0  0  0  0  0  0
    1.7163   -1.3037   -1.2478 C   0  0  0  0  0  0  0  0  0  0  0  0
    2.9140   -0.6748   -0.8631 C   0  0  0  0  0  0  0  0  0  0  0  0
    0.5118   -0.8354   -0.6151 C   0  0  0  0  0  0  0  0  0  0  0  0
    0.2682    0.3920   -0.6003 O   0  0  0  0  0  0  0  0  0  0  0  0
   -0.4376   -1.6914    0.0105 N   0  0  0  0  0  0  0  0  0  0  0  0
   -1.6750   -1.2201    0.6354 C   0  0  2  0  0  0  0  0  0  0  0  0
   -2.2333   -2.0451    1.7048 C   0  0  1  0  0  0  0  0  0  0  0  0
   -3.1807   -1.5248    2.5791 O   0  0  0  0  0  0  0  0  0  0  0  0
   -4.3762   -1.3703    1.9476 C   0  0  0  0  0  0  0  0  0  0  0  0
   -5.6319   -1.0082    2.4711 C   0  0  0  0  0  0  0  0  0  0  0  0
   -6.7365   -0.9005    1.6640 C   0  0  0  0  0  0  0  0  0  0  0  0
   -6.6336   -1.1468    0.3176 C   0  0  0  0  0  0  0  0  0  0  0  0
   -7.6900   -1.0599   -0.5348 O   0  0  0  0  0  0  0  0  0  0  0  0
   -8.9517   -0.6262   -0.2843 C   0  0  0  0  0  0  0  0  0  0  0  0
   -9.9933   -1.5898   -0.3471 C   0  0  0  0  0  0  0  0  0  0  0  0
  -11.2741   -1.1965   -0.1101 C   0  0  0  0  0  0  0  0  0  0  0  0
  -11.6283    0.0626    0.1853 N   0  0  0  0  0  0  0  0  0  0  0  0
  -10.6704    1.0243    0.2575 C   0  0  0  0  0  0  0  0  0  0  0  0
  -11.0740    2.3613    0.5233 N   0  0  0  0  0  0  0  0  0  0  0  0
  -10.0598    3.3552    0.5401 C   0  0  0  0  0  0  0  0  0  0  0  0
  -10.1402    4.3972    1.2335 O   0  0  0  0  0  0  0  0  0  0  0  0
   -8.8815    3.0483   -0.3474 C   0  0  0  0  0  0  0  0  0  0  0  0
   -8.2708    1.7130    0.0806 C   0  0  0  0  0  0  0  0  0  0  0  0
   -9.3430    0.6560    0.0197 C   0  0  0  0  0  0  0  0  0  0  0  0
   -5.3676   -1.5083   -0.1843 C   0  0  0  0  0  0  0  0  0  0  0  0
   -4.2440   -1.6235    0.6108 C   0  0  0  0  0  0  0  0  0  0  0  0
   -2.8698   -2.0269    0.3049 C   0  0  1  0  0  0  0  0  0  0  0  0
   12.2637    1.9346   -0.2807 H   0  0  0  0  0  0  0  0  0  0  0  0
   12.7223    1.6696    1.4075 H   0  0  0  0  0  0  0  0  0  0  0  0
   11.6521    0.4591    0.5252 H   0  0  0  0  0  0  0  0  0  0  0  0
    9.6861    1.2957    3.1358 H   0  0  0  0  0  0  0  0  0  0  0  0
    8.5201   -0.0582    3.1285 H   0  0  0  0  0  0  0  0  0  0  0  0
   10.1349   -0.2144    2.2502 H   0  0  0  0  0  0  0  0  0  0  0  0
    6.8400   -0.0177    1.4191 H   0  0  0  0  0  0  0  0  0  0  0  0
    7.2299    2.6476   -1.8157 H   0  0  0  0  0  0  0  0  0  0  0  0
    9.0841    4.2354   -1.8473 H   0  0  0  0  0  0  0  0  0  0  0  0
   10.4345    4.1016   -0.6173 H   0  0  0  0  0  0  0  0  0  0  0  0
   10.3258    2.9793   -2.0734 H   0  0  0  0  0  0  0  0  0  0  0  0
    6.2025   -1.1938   -0.8031 H   0  0  0  0  0  0  0  0  0  0  0  0
    5.1835   -2.5002   -2.5364 H   0  0  0  0  0  0  0  0  0  0  0  0
    3.1413   -3.6330   -3.2423 H   0  0  0  0  0  0  0  0  0  0  0  0
   -0.2426   -2.8178   -2.1725 H   0  0  0  0  0  0  0  0  0  0  0  0
    0.5667   -2.7587   -3.7387 H   0  0  0  0  0  0  0  0  0  0  0  0
    0.8385   -4.1804   -2.5996 H   0  0  0  0  0  0  0  0  0  0  0  0
    2.8696    0.1691   -0.1720 H   0  0  0  0  0  0  0  0  0  0  0  0
   -0.2068   -2.7153    0.0504 H   0  0  0  0  0  0  0  0  0  0  0  0
   -1.7997   -0.1445    0.6416 H   0  0  0  0  0  0  0  0  0  0  0  0
   -1.7860   -3.0282    1.9880 H   0  0  0  0  0  0  0  0  0  0  0  0
   -5.7729   -0.8058    3.5344 H   0  0  0  0  0  0  0  0  0  0  0  0
   -7.7090   -0.6145    2.0990 H   0  0  0  0  0  0  0  0  0  0  0  0
   -9.7075   -2.6094   -0.5815 H   0  0  0  0  0  0  0  0  0  0  0  0
  -12.0586   -1.9435   -0.1617 H   0  0  0  0  0  0  0  0  0  0  0  0
  -12.0705    2.6153    0.7063 H   0  0  0  0  0  0  0  0  0  0  0  0
   -8.1141    3.8270   -0.3084 H   0  0  0  0  0  0  0  0  0  0  0  0
   -9.2774    2.9024   -1.3643 H   0  0  0  0  0  0  0  0  0  0  0  0
   -7.5181    1.4422   -0.6737 H   0  0  0  0  0  0  0  0  0  0  0  0
   -7.8185    1.8052    1.0770 H   0  0  0  0  0  0  0  0  0  0  0  0
   -5.2717   -1.7017   -1.2455 H   0  0  0  0  0  0  0  0  0  0  0  0
   -2.6929   -2.9200   -0.3368 H   0  0  0  0  0  0  0  0  0  0  0  0
  1  2  1  0
  2  3  1  0
  3  4  2  0
  4  5  1  0
  4  6  1  0
  6  7  2  0
  7  8  1  0
  8  9  2  0
  9 10  1  0
  7 11  1  0
 11 12  2  0
 11 13  1  0
 13 14  1  0
 14 15  2  0
 15 16  1  0
 16 17  2  0
 17 18  1  0
 17 19  1  0
 19 20  2  0
 19 21  1  0
 21 22  2  0
 21 23  1  0
 23 24  1  0
 24 25  1  0
 25 26  1  0
 26 27  1  0
 27 28  2  0
 28 29  1  0
 29 30  2  0
 30 31  1  0
 31 32  1  0
 32 33  2  0
 33 34  1  0
 34 35  2  0
 35 36  1  0
 36 37  1  0
 37 38  1  0
 38 39  2  0
 38 40  1  0
 40 41  1  0
 41 42  1  0
 30 43  1  0
 43 44  2  0
 44 45  1  0
  9  3  1  0
 20 14  1  0
 45 24  1  0
 45 25  1  0
 44 27  1  0
 42 32  1  0
 42 36  2  0
  1 46  1  0
  1 47  1  0
  1 48  1  0
  5 49  1  0
  5 50  1  0
  5 51  1  0
  6 52  1  0
  8 53  1  0
 10 54  1  0
 10 55  1  0
 10 56  1  0
 13 57  1  0
 15 58  1  0
 16 59  1  0
 18 60  1  0
 18 61  1  0
 18 62  1  0
 20 63  1  0
 23 64  1  0
 24 65  1  1
 25 66  1  1
 28 67  1  0
 29 68  1  0
 33 69  1  0
 34 70  1  0
 37 71  1  0
 40 72  1  0
 40 73  1  0
 41 74  1  0
 41 75  1  0
 43 76  1  0
 45 77  1  6
M  END
$$$$
[H]Oc1c([H])c([H])c2c([H])c(C#N)c(C(O[H])(C([H])([H])[H])C([H])([H])C([H])([H])C([H])([H])C([H])([H])[H])c([H])c2c1[H]
     RDKit          3D

 39 40  0  0  0  0  0  0  0  0999 V2000
   -4.7168    1.1512   -0.1468 C   0  0  0  0  0  0  0  0  0  0  0  0
   -4.3103    0.3571    1.0495 C   0  0  0  0  0  0  0  0  0  0  0  0
   -3.2321   -0.6565    0.7327 C   0  0  0  0  0  0  0  0  0  0  0  0
   -2.0039    0.1110    0.2044 C   0  0  0  0  0  0  0  0  0  0  0  0
   -0.9213   -0.9026   -0.1144 C   0  0  0  0  0  0  0  0  0  0  0  0
   -1.3847   -1.8726   -1.1611 C   0  0  0  0  0  0  0  0  0  0  0  0
   -0.8446   -1.6601    1.1035 O   0  0  0  0  0  0  0  0  0  0  0  0
    0.4140   -0.3570   -0.2983 C   0  0  0  0  0  0  0  0  0  0  0  0
    1.4495   -0.5528    0.6250 C   0  0  0  0  0  0  0  0  0  0  0  0
    2.7065   -0.0225    0.4772 C   0  0  0  0  0  0  0  0  0  0  0  0
    3.6852   -0.2677    1.4495 C   0  0  0  0  0  0  0  0  0  0  0  0
    4.9528    0.2564    1.3186 C   0  0  0  0  0  0  0  0  0  0  0  0
    5.9242    0.0059    2.2955 O   0  0  0  0  0  0  0  0  0  0  0  0
    5.2123    1.0246    0.2001 C   0  0  0  0  0  0  0  0  0  0  0  0
    4.2726    1.2757   -0.7595 C   0  0  0  0  0  0  0  0  0  0  0  0
    2.9986    0.7472   -0.6250 C   0  0  0  0  0  0  0  0  0  0  0  0
    2.0098    0.9601   -1.5505 C   0  0  0  0  0  0  0  0  0  0  0  0
    0.7409    0.4108   -1.3792 C   0  0  0  0  0  0  0  0  0  0  0  0
   -0.1923    0.6735   -2.4164 C   0  0  0  0  0  0  0  0  0  0  0  0
   -0.9339    0.8800   -3.2814 N   0  0  0  0  0  0  0  0  0  0  0  0
   -5.7876    1.4489   -0.0778 H   0  0  0  0  0  0  0  0  0  0  0  0
   -4.5752    0.6390   -1.1024 H   0  0  0  0  0  0  0  0  0  0  0  0
   -4.1536    2.1268   -0.2265 H   0  0  0  0  0  0  0  0  0  0  0  0
   -5.1757   -0.1436    1.5091 H   0  0  0  0  0  0  0  0  0  0  0  0
   -3.9017    1.0644    1.8028 H   0  0  0  0  0  0  0  0  0  0  0  0
   -3.5947   -1.2526   -0.1300 H   0  0  0  0  0  0  0  0  0  0  0  0
   -2.9839   -1.2974    1.5754 H   0  0  0  0  0  0  0  0  0  0  0  0
   -2.3820    0.5464   -0.7328 H   0  0  0  0  0  0  0  0  0  0  0  0
   -1.7169    0.8124    0.9823 H   0  0  0  0  0  0  0  0  0  0  0  0
   -1.7424   -2.8091   -0.7275 H   0  0  0  0  0  0  0  0  0  0  0  0
   -0.5994   -2.1027   -1.9047 H   0  0  0  0  0  0  0  0  0  0  0  0
   -2.2318   -1.4058   -1.7407 H   0  0  0  0  0  0  0  0  0  0  0  0
   -1.3911   -2.4593    1.0512 H   0  0  0  0  0  0  0  0  0  0  0  0
    1.2370   -1.1537    1.4944 H   0  0  0  0  0  0  0  0  0  0  0  0
    3.4291   -0.8786    2.3103 H   0  0  0  0  0  0  0  0  0  0  0  0
    6.8363    0.4174    2.1444 H   0  0  0  0  0  0  0  0  0  0  0  0
    6.1944    1.4439    0.0768 H   0  0  0  0  0  0  0  0  0  0  0  0
    4.4592    1.8699   -1.6329 H   0  0  0  0  0  0  0  0  0  0  0  0
    2.2533    1.5720   -2.4201 H   0  0  0  0  0  0  0  0  0  0  0  0
  1  2  1  0
  2  3  1  0
  3  4  1  0
  4  5  1  0
  5  6  1  0
  5  7  1  0
  5  8  1  0
  8  9  2  0
  9 10  1  0
 10 11  2  0
 11 12  1  0
 12 13  1  0
 12 14  2  0
 14 15  1  0
 15 16  2  0
 16 17  1  0
 17 18  2  0
 18 19  1  0
 19 20  3  0
 18  8  1  0
 16 10  1  0
  1 21  1  0
  1 22  1  0
  1 23  1  0
  2 24  1  0
  2 25  1  0
  3 26  1  0
  3 27  1  0
  4 28  1  0
  4 29  1  0
  6 30  1  0
  6 31  1  0
  6 32  1  0
  7 33  1  0
  9 34  1  0
 11 35  1  0
 13 36  1  0
 14 37  1  0
 15 38  1  0
 17 39  1  0
M  END
$$$$
[H]c1c([H])c(N([H])C(=O)c2c(C([H])([H])[H])c(C(=O)C(=O)N([H])C3(c4nnnn4[H])C([H])([H])C3([H])[H])c3n2C([H])([H])C([H])([H])C3([H])[H])c([H])c(Cl)c1F
     RDKit          3D

 52 56  0  0  0  0  0  0  0  0999 V2000
   -0.3157    1.0028   -0.2988 C   0  0  0  0  0  0  0  0  0  0  0  0
    0.1692   -0.3767   -0.0408 C   0  0  0  0  0  0  0  0  0  0  0  0
   -0.7399   -1.4428    0.3228 C   0  0  0  0  0  0  0  0  0  0  0  0
   -2.0956   -1.0600    0.6207 C   0  0  0  0  0  0  0  0  0  0  0  0
   -2.4729   -0.9343    1.7940 O   0  0  0  0  0  0  0  0  0  0  0  0
   -3.1543   -0.7417   -0.4433 C   0  0  0  0  0  0  0  0  0  0  0  0
   -3.0351   -1.2682   -1.4875 O   0  0  0  0  0  0  0  0  0  0  0  0
   -4.0826    0.1626    0.0742 N   0  0  0  0  0  0  0  0  0  0  0  0
   -5.0135    1.0602    0.5616 C   0  0  0  0  0  0  0  0  0  0  0  0
   -5.2313    1.1703    2.0302 C   0  0  0  0  0  0  0  0  0  0  0  0
   -4.2856    2.1728    1.4035 C   0  0  0  0  0  0  0  0  0  0  0  0
   -6.0777    1.6269   -0.2830 C   0  0  0  0  0  0  0  0  0  0  0  0
   -7.1188    1.0285   -0.8563 N   0  0  0  0  0  0  0  0  0  0  0  0
   -7.8146    1.9927   -1.5213 N   0  0  0  0  0  0  0  0  0  0  0  0
   -7.2290    3.1211   -1.3487 N   0  0  0  0  0  0  0  0  0  0  0  0
   -6.1766    2.9714   -0.6160 N   0  0  0  0  0  0  0  0  0  0  0  0
    0.0574   -2.5561    0.4041 C   0  0  0  0  0  0  0  0  0  0  0  0
   -0.0378   -4.0062    0.7811 C   0  0  0  0  0  0  0  0  0  0  0  0
    1.1928   -4.5271    0.1051 C   0  0  0  0  0  0  0  0  0  0  0  0
    2.1413   -3.4066    0.2436 C   0  0  0  0  0  0  0  0  0  0  0  0
    1.2936   -2.2254    0.1346 N   0  0  0  0  0  0  0  0  0  0  0  0
    1.3821   -0.9372   -0.1289 C   0  0  0  0  0  0  0  0  0  0  0  0
    2.6758   -0.2867   -0.4240 C   0  0  0  0  0  0  0  0  0  0  0  0
    3.0132   -0.4953   -1.6384 O   0  0  0  0  0  0  0  0  0  0  0  0
    3.4737    0.4313    0.4520 N   0  0  0  0  0  0  0  0  0  0  0  0
    4.7480    0.9128    0.0458 C   0  0  0  0  0  0  0  0  0  0  0  0
    5.4601    0.3226   -0.9556 C   0  0  0  0  0  0  0  0  0  0  0  0
    6.7195    0.8107   -1.3557 C   0  0  0  0  0  0  0  0  0  0  0  0
    7.2524    1.8957   -0.7393 C   0  0  0  0  0  0  0  0  0  0  0  0
    8.4706    2.4056   -1.1124 F   0  0  0  0  0  0  0  0  0  0  0  0
    6.5790    2.5405    0.2734 C   0  0  0  0  0  0  0  0  0  0  0  0
    7.2861    3.9292    1.0384 Cl  0  0  0  0  0  0  0  0  0  0  0  0
    5.3396    2.0368    0.6404 C   0  0  0  0  0  0  0  0  0  0  0  0
   -0.9593    0.9714   -1.2380 H   0  0  0  0  0  0  0  0  0  0  0  0
    0.4958    1.6914   -0.5182 H   0  0  0  0  0  0  0  0  0  0  0  0
   -0.9254    1.3323    0.5424 H   0  0  0  0  0  0  0  0  0  0  0  0
   -4.2711    0.5821   -1.1996 H   0  0  0  0  0  0  0  0  0  0  0  0
   -4.8358    0.4415    2.6903 H   0  0  0  0  0  0  0  0  0  0  0  0
   -6.2183    1.5552    2.3877 H   0  0  0  0  0  0  0  0  0  0  0  0
   -4.5236    3.1897    1.2669 H   0  0  0  0  0  0  0  0  0  0  0  0
   -3.2040    1.9542    1.5869 H   0  0  0  0  0  0  0  0  0  0  0  0
   -5.4925    3.7296   -0.2884 H   0  0  0  0  0  0  0  0  0  0  0  0
    0.1491   -4.1615    1.8899 H   0  0  0  0  0  0  0  0  0  0  0  0
   -0.9580   -4.4904    0.4891 H   0  0  0  0  0  0  0  0  0  0  0  0
    0.9935   -4.8304   -0.9262 H   0  0  0  0  0  0  0  0  0  0  0  0
    1.5781   -5.4372    0.7160 H   0  0  0  0  0  0  0  0  0  0  0  0
    2.8388   -3.3795   -0.6375 H   0  0  0  0  0  0  0  0  0  0  0  0
    2.6582   -3.3783    1.2217 H   0  0  0  0  0  0  0  0  0  0  0  0
    3.1856    0.6561    1.4254 H   0  0  0  0  0  0  0  0  0  0  0  0
    5.1138   -0.5918   -1.4632 H   0  0  0  0  0  0  0  0  0  0  0  0
    7.2281    0.3131   -2.1744 H   0  0  0  0  0  0  0  0  0  0  0  0
    4.7737    2.5224    1.4673 H   0  0  0  0  0  0  0  0  0  0  0  0
  1  2  1  0
  2  3  1  0
  3  4  1  0
  4  5  2  0
  4  6  1  0
  6  7  2  0
  6  8  1  0
  8  9  1  0
  9 10  1  0
 10 11  1  0
  9 12  1  0
 12 13  2  0
 13 14  1  0
 14 15  2  0
 15 16  1  0
  3 17  2  0
 17 18  1  0
 18 19  1  0
 19 20  1  0
 20 21  1  0
 21 22  1  0
 22 23  1  0
 23 24  2  0
 23 25  1  0
 25 26  1  0
 26 27  2  0
 27 28  1  0
 28 29  2  0
 29 30  1  0
 29 31  1  0
 31 32  1  0
 31 33  2  0
 22  2  2  0
 33 26  1  0
 11  9  1  0
 16 12  1  0
 21 17  1  0
  1 34  1  0
  1 35  1  0
  1 36  1  0
  8 37  1  0
 10 38  1  0
 10 39  1  0
 11 40  1  0
 11 41  1  0
 16 42  1  0
 18 43  1  0
 18 44  1  0
 19 45  1  0
 19 46  1  0
 20 47  1  0
 20 48  1  0
 25 49  1  0
 27 50  1  0
 28 51  1  0
 33 52  1  0
M  END
$$$$
[H]c1nc(C#N)c([H])c(Oc2c([H])c([H])c3nc(C(=O)N([H])c4nc([H])c([H])c(C(=O)OC([H])([H])[H])c4[H])c([H])c([H])c3c2[H])c1[H]
     RDKit          3D

 47 50  0  0  0  0  0  0  0  0999 V2000
    8.5309   -2.0152   -1.0003 C   0  0  0  0  0  0  0  0  0  0  0  0
    7.3895   -1.3727   -0.4658 O   0  0  0  0  0  0  0  0  0  0  0  0
    7.5336   -0.4722    0.5579 C   0  0  0  0  0  0  0  0  0  0  0  0
    8.6693   -0.2167    1.0206 O   0  0  0  0  0  0  0  0  0  0  0  0
    6.3873    0.2087    1.1344 C   0  0  0  0  0  0  0  0  0  0  0  0
    6.5455    1.1121    2.1634 C   0  0  0  0  0  0  0  0  0  0  0  0
    5.4344    1.7501    2.6977 C   0  0  0  0  0  0  0  0  0  0  0  0
    4.1955    1.5103    2.2362 N   0  0  0  0  0  0  0  0  0  0  0  0
    3.9839    0.6311    1.2256 C   0  0  0  0  0  0  0  0  0  0  0  0
    2.6760    0.3796    0.7401 N   0  0  0  0  0  0  0  0  0  0  0  0
    1.5900    1.0666    1.3329 C   0  0  0  0  0  0  0  0  0  0  0  0
    1.7364    1.8893    2.2706 O   0  0  0  0  0  0  0  0  0  0  0  0
    0.2083    0.8384    0.8617 C   0  0  0  0  0  0  0  0  0  0  0  0
   -0.8642    1.4913    1.4189 C   0  0  0  0  0  0  0  0  0  0  0  0
   -2.1394    1.2499    0.9497 C   0  0  0  0  0  0  0  0  0  0  0  0
   -2.3110    0.3445   -0.0839 C   0  0  0  0  0  0  0  0  0  0  0  0
   -3.5625    0.0566   -0.6010 C   0  0  0  0  0  0  0  0  0  0  0  0
   -3.7429   -0.8427   -1.6292 C   0  0  0  0  0  0  0  0  0  0  0  0
   -5.0042   -1.1120   -2.1271 O   0  0  0  0  0  0  0  0  0  0  0  0
   -6.1572   -0.5257   -1.6567 C   0  0  0  0  0  0  0  0  0  0  0  0
   -6.6580    0.6622   -2.1851 C   0  0  0  0  0  0  0  0  0  0  0  0
   -7.8177    1.1980   -1.6695 C   0  0  0  0  0  0  0  0  0  0  0  0
   -8.4797    0.5898   -0.6576 N   0  0  0  0  0  0  0  0  0  0  0  0
   -8.0169   -0.5734   -0.1179 C   0  0  0  0  0  0  0  0  0  0  0  0
   -6.8558   -1.1218   -0.6247 C   0  0  0  0  0  0  0  0  0  0  0  0
   -8.6954   -1.2393    0.9525 C   0  0  0  0  0  0  0  0  0  0  0  0
   -9.2411   -1.7811    1.8180 N   0  0  0  0  0  0  0  0  0  0  0  0
   -2.6629   -1.4956   -2.1851 C   0  0  0  0  0  0  0  0  0  0  0  0
   -1.4108   -1.2160   -1.6772 C   0  0  0  0  0  0  0  0  0  0  0  0
   -1.2220   -0.3127   -0.6431 C   0  0  0  0  0  0  0  0  0  0  0  0
   -0.0204   -0.0288   -0.1384 N   0  0  0  0  0  0  0  0  0  0  0  0
    5.0995   -0.0040    0.6952 C   0  0  0  0  0  0  0  0  0  0  0  0
    8.6615   -3.0371   -0.6393 H   0  0  0  0  0  0  0  0  0  0  0  0
    9.4105   -1.3573   -0.8166 H   0  0  0  0  0  0  0  0  0  0  0  0
    8.4362   -2.0586   -2.1250 H   0  0  0  0  0  0  0  0  0  0  0  0
    7.5193    1.3433    2.5738 H   0  0  0  0  0  0  0  0  0  0  0  0
    5.5998    2.4563    3.5088 H   0  0  0  0  0  0  0  0  0  0  0  0
    2.5598   -0.2990   -0.0325 H   0  0  0  0  0  0  0  0  0  0  0  0
   -0.7029    2.1934    2.2248 H   0  0  0  0  0  0  0  0  0  0  0  0
   -3.0127    1.7291    1.3451 H   0  0  0  0  0  0  0  0  0  0  0  0
   -4.4021    0.5603   -0.1730 H   0  0  0  0  0  0  0  0  0  0  0  0
   -6.0980    1.1070   -2.9862 H   0  0  0  0  0  0  0  0  0  0  0  0
   -8.1730    2.1301   -2.1145 H   0  0  0  0  0  0  0  0  0  0  0  0
   -6.5034   -2.0610   -0.1718 H   0  0  0  0  0  0  0  0  0  0  0  0
   -2.7815   -2.2062   -2.9938 H   0  0  0  0  0  0  0  0  0  0  0  0
   -0.5652   -1.7279   -2.1132 H   0  0  0  0  0  0  0  0  0  0  0  0
    4.9334   -0.6954   -0.0995 H   0  0  0  0  0  0  0  0  0  0  0  0
  1  2  1  0
  2  3  1  0
  3  4  2  0
  3  5  1  0
  5  6  2  0
  6  7  1  0
  7  8  2  0
  8  9  1  0
  9 10  1  0
 10 11  1  0
 11 12  2  0
 11 13  1  0
 13 14  2  0
 14 15  1  0
 15 16  2  0
 16 17  1  0
 17 18  2  0
 18 19  1  0
 19 20  1  0
 20 21  2  0
 21 22  1  0
 22 23  2  0
 23 24  1  0
 24 25  2  0
 24 26  1  0
 26 27  3  0
 18 28  1  0
 28 29  2  0
 29 30  1  0
 30 31  2  0
  9 32  2  0
 32  5  1  0
 31 13  1  0
 30 16  1  0
 25 20  1  0
  1 33  1  0
  1 34  1  0
  1 35  1  0
  6 36  1  0
  7 37  1  0
 10 38  1  0
 14 39  1  0
 15 40  1  0
 17 41  1  0
 21 42  1  0
 22 43  1  0
 25 44  1  0
 28 45  1  0
 29 46  1  0
 32 47  1  0
M  END
$$$$
[H]N=C(c1c([H])c([H])c(OC([H])([H])C([H])([H])[C@]([H])(c2sc([H])c([H])c2[H])N([H])S(=O)(=O)c2c([H])c([H])c(-c3c([H])c([H])c(N([H])C(=O)N([H])C([H])([H])C([H])([H])O[H])c([H])c3[H])c([H])c2[H])c([H])c1[H])N([H])[H]
     RDKit          3D

 72 75  0  0  0  0  0  0  0  0999 V2000
   -9.7074   -2.8564   -0.2427 N   0  0  0  0  0  0  0  0  0  0  0  0
   -9.5891   -1.5497   -0.7542 C   0  0  0  0  0  0  0  0  0  0  0  0
  -10.5711   -0.7324   -0.6958 N   0  0  0  0  0  0  0  0  0  0  0  0
   -8.3207   -1.1223   -1.3299 C   0  0  0  0  0  0  0  0  0  0  0  0
   -7.2813   -2.0409   -1.4430 C   0  0  0  0  0  0  0  0  0  0  0  0
   -6.0714   -1.6534   -1.9530 C   0  0  0  0  0  0  0  0  0  0  0  0
   -5.8706   -0.3369   -2.3615 C   0  0  0  0  0  0  0  0  0  0  0  0
   -4.6248   -0.0469   -2.8623 O   0  0  0  0  0  0  0  0  0  0  0  0
   -4.2162    1.2172   -3.2600 C   0  0  0  0  0  0  0  0  0  0  0  0
   -4.0220    2.2460   -2.1992 C   0  0  0  0  0  0  0  0  0  0  0  0
   -2.8324    1.9734   -1.3345 C   0  0  1  0  0  0  0  0  0  0  0  0
   -2.6674    2.9654   -0.3173 N   0  0  0  0  0  0  0  0  0  0  0  0
   -1.2765    3.8786   -0.3414 S   0  0  0  0  0  0  0  0  0  0  0  0
   -1.1216    4.7070   -1.6141 O   0  0  0  0  0  0  0  0  0  0  0  0
   -1.3196    4.8886    0.7985 O   0  0  0  0  0  0  0  0  0  0  0  0
    0.2255    2.9778   -0.1653 C   0  0  0  0  0  0  0  0  0  0  0  0
    0.4217    2.1198    0.8877 C   0  0  0  0  0  0  0  0  0  0  0  0
    1.6145    1.4571    1.0625 C   0  0  0  0  0  0  0  0  0  0  0  0
    2.6628    1.6382    0.1709 C   0  0  0  0  0  0  0  0  0  0  0  0
    2.4765    2.4917   -0.8837 C   0  0  0  0  0  0  0  0  0  0  0  0
    1.2749    3.1417   -1.0373 C   0  0  0  0  0  0  0  0  0  0  0  0
    3.9207    0.9424    0.3759 C   0  0  0  0  0  0  0  0  0  0  0  0
    4.7125    0.5747   -0.6859 C   0  0  0  0  0  0  0  0  0  0  0  0
    5.9005   -0.0888   -0.4821 C   0  0  0  0  0  0  0  0  0  0  0  0
    6.3780   -0.4304    0.7920 C   0  0  0  0  0  0  0  0  0  0  0  0
    7.5827   -1.1228    0.8757 N   0  0  0  0  0  0  0  0  0  0  0  0
    8.3092   -1.3501    2.0499 C   0  0  0  0  0  0  0  0  0  0  0  0
    7.9482   -0.9196    3.1719 O   0  0  0  0  0  0  0  0  0  0  0  0
    9.5060   -2.0936    2.0012 N   0  0  0  0  0  0  0  0  0  0  0  0
   10.2907   -2.3632    3.1656 C   0  0  0  0  0  0  0  0  0  0  0  0
    9.5904   -3.1252    4.2448 C   0  0  0  0  0  0  0  0  0  0  0  0
   10.5055   -3.3004    5.3013 O   0  0  0  0  0  0  0  0  0  0  0  0
    5.5610   -0.0482    1.8295 C   0  0  0  0  0  0  0  0  0  0  0  0
    4.3504    0.6278    1.6400 C   0  0  0  0  0  0  0  0  0  0  0  0
   -2.8779    0.6378   -0.7096 C   0  0  0  0  0  0  0  0  0  0  0  0
   -2.2467   -0.5361   -1.1230 C   0  0  0  0  0  0  0  0  0  0  0  0
   -2.4163   -1.6212   -0.3603 C   0  0  0  0  0  0  0  0  0  0  0  0
   -3.1870   -1.5097    0.7626 C   0  0  0  0  0  0  0  0  0  0  0  0
   -3.6640    0.1144    0.7360 S   0  0  0  0  0  0  0  0  0  0  0  0
   -6.8952    0.5610   -2.2494 C   0  0  0  0  0  0  0  0  0  0  0  0
   -8.1303    0.1710   -1.7309 C   0  0  0  0  0  0  0  0  0  0  0  0
   -9.1417   -3.1419    0.5514 H   0  0  0  0  0  0  0  0  0  0  0  0
  -10.3672   -3.5022   -0.6841 H   0  0  0  0  0  0  0  0  0  0  0  0
  -11.4852   -1.0911   -0.2373 H   0  0  0  0  0  0  0  0  0  0  0  0
   -7.4760   -3.0477   -1.1165 H   0  0  0  0  0  0  0  0  0  0  0  0
   -5.2541   -2.3725   -2.0455 H   0  0  0  0  0  0  0  0  0  0  0  0
   -3.2338    1.0377   -3.8271 H   0  0  0  0  0  0  0  0  0  0  0  0
   -4.8800    1.6370   -4.0789 H   0  0  0  0  0  0  0  0  0  0  0  0
   -4.9589    2.2646   -1.5593 H   0  0  0  0  0  0  0  0  0  0  0  0
   -3.9969    3.2878   -2.6247 H   0  0  0  0  0  0  0  0  0  0  0  0
   -1.8988    2.0067   -1.9536 H   0  0  0  0  0  0  0  0  0  0  0  0
   -3.2169    2.8710    0.5309 H   0  0  0  0  0  0  0  0  0  0  0  0
   -0.4086    1.9895    1.5721 H   0  0  0  0  0  0  0  0  0  0  0  0
    1.7757    0.7813    1.8766 H   0  0  0  0  0  0  0  0  0  0  0  0
    3.2777    2.6623   -1.6125 H   0  0  0  0  0  0  0  0  0  0  0  0
    1.1147    3.8327   -1.8807 H   0  0  0  0  0  0  0  0  0  0  0  0
    4.4166    0.8042   -1.7137 H   0  0  0  0  0  0  0  0  0  0  0  0
    6.4838   -0.3492   -1.3677 H   0  0  0  0  0  0  0  0  0  0  0  0
    7.9851   -1.5124   -0.0388 H   0  0  0  0  0  0  0  0  0  0  0  0
    9.8305   -2.4654    1.0538 H   0  0  0  0  0  0  0  0  0  0  0  0
   11.2192   -2.9153    2.8360 H   0  0  0  0  0  0  0  0  0  0  0  0
   10.6677   -1.3717    3.5339 H   0  0  0  0  0  0  0  0  0  0  0  0
    8.6837   -2.6584    4.6467 H   0  0  0  0  0  0  0  0  0  0  0  0
    9.3943   -4.1592    3.8500 H   0  0  0  0  0  0  0  0  0  0  0  0
   10.2160   -2.7069    6.0357 H   0  0  0  0  0  0  0  0  0  0  0  0
    5.8506   -0.2816    2.8301 H   0  0  0  0  0  0  0  0  0  0  0  0
    3.7929    0.8782    2.5308 H   0  0  0  0  0  0  0  0  0  0  0  0
   -1.6314   -0.5360   -2.0545 H   0  0  0  0  0  0  0  0  0  0  0  0
   -1.9563   -2.6142   -0.6044 H   0  0  0  0  0  0  0  0  0  0  0  0
   -3.4079   -2.3238    1.4825 H   0  0  0  0  0  0  0  0  0  0  0  0
   -6.8052    1.5756   -2.5742 H   0  0  0  0  0  0  0  0  0  0  0  0
   -8.9120    0.9379   -1.6669 H   0  0  0  0  0  0  0  0  0  0  0  0
  1  2  1  0
  2  3  2  3
  2  4  1  0
  4  5  2  0
  5  6  1  0
  6  7  2  0
  7  8  1  0
  8  9  1  0
  9 10  1  0
 10 11  1  0
 11 12  1  0
 12 13  1  0
 13 14  2  0
 13 15  2  0
 13 16  1  0
 16 17  2  0
 17 18  1  0
 18 19  2  0
 19 20  1  0
 20 21  2  0
 19 22  1  0
 22 23  2  0
 23 24  1  0
 24 25  2  0
 25 26  1  0
 26 27  1  0
 27 28  2  0
 27 29  1  0
 29 30  1  0
 30 31  1  0
 31 32  1  0
 25 33  1  0
 33 34  2  0
 11 35  1  0
 35 36  2  0
 36 37  1  0
 37 38  2  0
 38 39  1  0
  7 40  1  0
 40 41  2  0
 41  4  1  0
 21 16  1  0
 34 22  1  0
 39 35  1  0
  1 42  1  0
  1 43  1  0
  3 44  1  0
  5 45  1  0
  6 46  1  0
  9 47  1  0
  9 48  1  0
 10 49  1  0
 10 50  1  0
 11 51  1  6
 12 52  1  0
 17 53  1  0
 18 54  1  0
 20 55  1  0
 21 56  1  0
 23 57  1  0
 24 58  1  0
 26 59  1  0
 29 60  1  0
 30 61  1  0
 30 62  1  0
 31 63  1  0
 31 64  1  0
 32 65  1  0
 33 66  1  0
 34 67  1  0
 36 68  1  0
 37 69  1  0
 38 70  1  0
 40 71  1  0
 41 72  1  0
M  END
$$$$
[H]C(=C1C(=O)N([H])c2c(F)c(F)c([H])c([H])c21)c1c([H])c([H])c(S(=O)(=O)N([H])C([H])([H])C([H])([H])N2C([H])([H])C([H])([H])OC([H])([H])C2([H])[H])c([H])c1[H]
     RDKit          3D

 52 55  0  0  0  0  0  0  0  0999 V2000
   -9.8693    0.5696   -2.5595 F   0  0  0  0  0  0  0  0  0  0  0  0
   -8.6022    0.4386   -2.0775 C   0  0  0  0  0  0  0  0  0  0  0  0
   -7.5046    0.6206   -2.8904 C   0  0  0  0  0  0  0  0  0  0  0  0
   -6.2173    0.4885   -2.4060 C   0  0  0  0  0  0  0  0  0  0  0  0
   -6.0611    0.1679   -1.0801 C   0  0  0  0  0  0  0  0  0  0  0  0
   -4.8277   -0.0437   -0.2633 C   0  0  0  0  0  0  0  0  0  0  0  0
   -3.6248    0.0270   -0.7749 C   0  0  0  0  0  0  0  0  0  0  0  0
   -2.4154   -0.1637   -0.0166 C   0  0  0  0  0  0  0  0  0  0  0  0
   -1.4888   -1.1429   -0.4107 C   0  0  0  0  0  0  0  0  0  0  0  0
   -0.2969   -1.3348    0.2373 C   0  0  0  0  0  0  0  0  0  0  0  0
    0.0641   -0.5695    1.3249 C   0  0  0  0  0  0  0  0  0  0  0  0
   -0.8297    0.3963    1.7272 C   0  0  0  0  0  0  0  0  0  0  0  0
   -2.0361    0.5922    1.0720 C   0  0  0  0  0  0  0  0  0  0  0  0
    1.5762   -0.7943    2.1699 S   0  0  0  0  0  0  0  0  0  0  0  0
    1.9792   -2.2368    2.1919 O   0  0  0  0  0  0  0  0  0  0  0  0
    1.4287   -0.3695    3.6224 O   0  0  0  0  0  0  0  0  0  0  0  0
    2.8249    0.1875    1.4991 N   0  0  0  0  0  0  0  0  0  0  0  0
    3.0699   -0.1595    0.1240 C   0  0  0  0  0  0  0  0  0  0  0  0
    4.1635    0.7272   -0.4032 C   0  0  0  0  0  0  0  0  0  0  0  0
    5.3956    0.6027    0.3091 N   0  0  0  0  0  0  0  0  0  0  0  0
    6.3908    1.4604   -0.2287 C   0  0  0  0  0  0  0  0  0  0  0  0
    7.6591    0.8249   -0.6825 C   0  0  0  0  0  0  0  0  0  0  0  0
    7.5156   -0.3732   -1.3369 O   0  0  0  0  0  0  0  0  0  0  0  0
    6.4644   -1.1459   -0.9051 C   0  0  0  0  0  0  0  0  0  0  0  0
    5.9143   -0.7230    0.4263 C   0  0  0  0  0  0  0  0  0  0  0  0
   -5.2731   -0.3608    1.0724 C   0  0  0  0  0  0  0  0  0  0  0  0
   -4.5611   -0.6135    2.0684 O   0  0  0  0  0  0  0  0  0  0  0  0
   -6.6999   -0.3392    1.0581 N   0  0  0  0  0  0  0  0  0  0  0  0
   -7.1210   -0.0188   -0.2499 C   0  0  0  0  0  0  0  0  0  0  0  0
   -8.4094    0.1204   -0.7636 C   0  0  0  0  0  0  0  0  0  0  0  0
   -9.4650   -0.0688    0.0717 F   0  0  0  0  0  0  0  0  0  0  0  0
   -7.7188    0.8731   -3.9299 H   0  0  0  0  0  0  0  0  0  0  0  0
   -5.3857    0.6417   -3.0828 H   0  0  0  0  0  0  0  0  0  0  0  0
   -3.5279    0.2450   -1.8537 H   0  0  0  0  0  0  0  0  0  0  0  0
   -1.7740   -1.7462   -1.2682 H   0  0  0  0  0  0  0  0  0  0  0  0
    0.3857   -2.1118   -0.1147 H   0  0  0  0  0  0  0  0  0  0  0  0
   -0.5576    1.0068    2.5834 H   0  0  0  0  0  0  0  0  0  0  0  0
   -2.6990    1.3861    1.4240 H   0  0  0  0  0  0  0  0  0  0  0  0
    2.5794    1.1953    1.5760 H   0  0  0  0  0  0  0  0  0  0  0  0
    3.2595   -1.2284    0.0517 H   0  0  0  0  0  0  0  0  0  0  0  0
    2.1559    0.0505   -0.5030 H   0  0  0  0  0  0  0  0  0  0  0  0
    4.2662    0.5952   -1.5100 H   0  0  0  0  0  0  0  0  0  0  0  0
    3.8125    1.7794   -0.2636 H   0  0  0  0  0  0  0  0  0  0  0  0
    6.6493    2.2272    0.5621 H   0  0  0  0  0  0  0  0  0  0  0  0
    5.9272    2.0889   -1.0468 H   0  0  0  0  0  0  0  0  0  0  0  0
    8.1654    1.5264   -1.3772 H   0  0  0  0  0  0  0  0  0  0  0  0
    8.3529    0.6814    0.1742 H   0  0  0  0  0  0  0  0  0  0  0  0
    5.6463   -1.0596   -1.6471 H   0  0  0  0  0  0  0  0  0  0  0  0
    6.7649   -2.2023   -0.8550 H   0  0  0  0  0  0  0  0  0  0  0  0
    5.1614   -1.4651    0.7432 H   0  0  0  0  0  0  0  0  0  0  0  0
    6.6860   -0.7175    1.2226 H   0  0  0  0  0  0  0  0  0  0  0  0
   -7.2928   -0.5321    1.8938 H   0  0  0  0  0  0  0  0  0  0  0  0
  1  2  1  0
  2  3  2  0
  3  4  1  0
  4  5  2  0
  5  6  1  0
  6  7  2  3
  7  8  1  0
  8  9  2  0
  9 10  1  0
 10 11  2  0
 11 12  1  0
 12 13  2  0
 11 14  1  0
 14 15  2  0
 14 16  2  0
 14 17  1  0
 17 18  1  0
 18 19  1  0
 19 20  1  0
 20 21  1  0
 21 22  1  0
 22 23  1  0
 23 24  1  0
 24 25  1  0
  6 26  1  0
 26 27  2  0
 26 28  1  0
 28 29  1  0
 29 30  2  0
 30 31  1  0
 30  2  1  0
 29  5  1  0
 13  8  1  0
 25 20  1  0
  3 32  1  0
  4 33  1  0
  7 34  1  0
  9 35  1  0
 10 36  1  0
 12 37  1  0
 13 38  1  0
 17 39  1  0
 18 40  1  0
 18 41  1  0
 19 42  1  0
 19 43  1  0
 21 44  1  0
 21 45  1  0
 22 46  1  0
 22 47  1  0
 24 48  1  0
 24 49  1  0
 25 50  1  0
 25 51  1  0
 28 52  1  0
M  END
$$$$
[H]ON([H])C(=O)C([H])([H])C1(c2c([H])c([H])c([H])c([H])c2[H])C([H])([H])C([H])([H])C([H])([H])C([H])([H])C1([H])[H]
     RDKit          3D

 36 37  0  0  0  0  0  0  0  0999 V2000
    3.6224   -2.1340    2.2143 O   0  0  0  0  0  0  0  0  0  0  0  0
    3.2617   -1.4224    1.0959 N   0  0  0  0  0  0  0  0  0  0  0  0
    1.9103   -1.0280    0.9415 C   0  0  0  0  0  0  0  0  0  0  0  0
    1.1127   -1.3516    1.8580 O   0  0  0  0  0  0  0  0  0  0  0  0
    1.4914   -0.2801   -0.2321 C   0  0  0  0  0  0  0  0  0  0  0  0
    0.1014    0.2876   -0.1947 C   0  0  0  0  0  0  0  0  0  0  0  0
   -0.1529    1.0059   -1.4989 C   0  0  0  0  0  0  0  0  0  0  0  0
   -0.7444    2.3758   -1.3031 C   0  0  0  0  0  0  0  0  0  0  0  0
   -0.0041    3.2564   -0.3552 C   0  0  0  0  0  0  0  0  0  0  0  0
    0.7087    2.4995    0.7463 C   0  0  0  0  0  0  0  0  0  0  0  0
   -0.1089    1.2299    0.9689 C   0  0  0  0  0  0  0  0  0  0  0  0
   -0.8427   -0.8515   -0.1173 C   0  0  0  0  0  0  0  0  0  0  0  0
   -0.8087   -1.8144   -1.1398 C   0  0  0  0  0  0  0  0  0  0  0  0
   -1.6910   -2.8843   -1.1183 C   0  0  0  0  0  0  0  0  0  0  0  0
   -2.5828   -2.9665   -0.0810 C   0  0  0  0  0  0  0  0  0  0  0  0
   -2.6115   -2.0190    0.9208 C   0  0  0  0  0  0  0  0  0  0  0  0
   -1.7550   -0.9486    0.9331 C   0  0  0  0  0  0  0  0  0  0  0  0
    2.8048   -2.2870    2.7840 H   0  0  0  0  0  0  0  0  0  0  0  0
    3.9554   -1.1746    0.3827 H   0  0  0  0  0  0  0  0  0  0  0  0
    2.1926    0.5582   -0.4832 H   0  0  0  0  0  0  0  0  0  0  0  0
    1.5607   -0.9699   -1.1159 H   0  0  0  0  0  0  0  0  0  0  0  0
   -0.8764    0.4295   -2.1109 H   0  0  0  0  0  0  0  0  0  0  0  0
    0.7612    1.0677   -2.0821 H   0  0  0  0  0  0  0  0  0  0  0  0
   -0.7095    2.8755   -2.3161 H   0  0  0  0  0  0  0  0  0  0  0  0
   -1.8095    2.3663   -1.0267 H   0  0  0  0  0  0  0  0  0  0  0  0
   -0.6943    3.9730    0.1726 H   0  0  0  0  0  0  0  0  0  0  0  0
    0.7205    3.9286   -0.8832 H   0  0  0  0  0  0  0  0  0  0  0  0
    0.7422    3.1083    1.6701 H   0  0  0  0  0  0  0  0  0  0  0  0
    1.7294    2.3197    0.4133 H   0  0  0  0  0  0  0  0  0  0  0  0
   -1.1825    1.5699    0.9049 H   0  0  0  0  0  0  0  0  0  0  0  0
    0.0378    0.7996    1.9499 H   0  0  0  0  0  0  0  0  0  0  0  0
   -0.1208   -1.7772   -1.9601 H   0  0  0  0  0  0  0  0  0  0  0  0
   -1.6722   -3.6428   -1.9187 H   0  0  0  0  0  0  0  0  0  0  0  0
   -3.2693   -3.8123   -0.0751 H   0  0  0  0  0  0  0  0  0  0  0  0
   -3.3202   -2.0849    1.7449 H   0  0  0  0  0  0  0  0  0  0  0  0
   -1.7566   -0.2023    1.7110 H   0  0  0  0  0  0  0  0  0  0  0  0
  1  2  1  0
  2  3  1  0
  3  4  2  0
  3  5  1  0
  5  6  1  0
  6  7  1  0
  7  8  1  0
  8  9  1  0
  9 10  1  0
 10 11  1  0
  6 12  1  0
 12 13  2  0
 13 14  1  0
 14 15  2  0
 15 16  1  0
 16 17  2  0
 11  6  1  0
 17 12  1  0
  1 18  1  0
  2 19  1  0
  5 20  1  0
  5 21  1  0
  7 22  1  0
  7 23  1  0
  8 24  1  0
  8 25  1  0
  9 26  1  0
  9 27  1  0
 10 28  1  0
 10 29  1  0
 11 30  1  0
 11 31  1  0
 13 32  1  0
 14 33  1  0
 15 34  1  0
 16 35  1  0
 17 36  1  0
M  END
$$$$
[H]c1c([H])c(C(=O)N([H])c2c([H])c([H])c(F)c([H])c2[H])c([H])c(-n2nc(C([H])([H])[H])c([H])c2C([H])([H])N2C([H])([H])C([H])([H])N(C([H])([H])C([H])([H])[H])C([H])([H])C2([H])[H])c1[H]
     RDKit          3D

 59 62  0  0  0  0  0  0  0  0999 V2000
   -7.8985   -1.2935    0.2324 C   0  0  0  0  0  0  0  0  0  0  0  0
   -6.9582   -0.1703   -0.1535 C   0  0  0  0  0  0  0  0  0  0  0  0
   -5.8165   -0.6083   -0.8880 N   0  0  0  0  0  0  0  0  0  0  0  0
   -4.8637   -1.3924   -0.1869 C   0  0  0  0  0  0  0  0  0  0  0  0
   -3.8040   -0.4794    0.3897 C   0  0  0  0  0  0  0  0  0  0  0  0
   -3.2258    0.4144   -0.5568 N   0  0  0  0  0  0  0  0  0  0  0  0
   -1.7855    0.2935   -0.6655 C   0  0  0  0  0  0  0  0  0  0  0  0
   -1.1204    0.6141    0.6364 C   0  0  0  0  0  0  0  0  0  0  0  0
   -1.6841    1.4002    1.6315 C   0  0  0  0  0  0  0  0  0  0  0  0
   -0.7706    1.4406    2.6474 C   0  0  0  0  0  0  0  0  0  0  0  0
   -0.9682    2.1803    3.9251 C   0  0  0  0  0  0  0  0  0  0  0  0
    0.2855    0.7238    2.2945 N   0  0  0  0  0  0  0  0  0  0  0  0
    0.0726    0.2244    1.0767 N   0  0  0  0  0  0  0  0  0  0  0  0
    1.0082   -0.5903    0.3934 C   0  0  0  0  0  0  0  0  0  0  0  0
    0.6984   -1.9050    0.1267 C   0  0  0  0  0  0  0  0  0  0  0  0
    1.6015   -2.7100   -0.5364 C   0  0  0  0  0  0  0  0  0  0  0  0
    2.8086   -2.1897   -0.9280 C   0  0  0  0  0  0  0  0  0  0  0  0
    3.1393   -0.8608   -0.6665 C   0  0  0  0  0  0  0  0  0  0  0  0
    2.2383   -0.0626   -0.0057 C   0  0  0  0  0  0  0  0  0  0  0  0
    4.4575   -0.3672   -1.1185 C   0  0  0  0  0  0  0  0  0  0  0  0
    4.6016   -0.1847   -2.3326 O   0  0  0  0  0  0  0  0  0  0  0  0
    5.4538   -0.1376   -0.1769 N   0  0  0  0  0  0  0  0  0  0  0  0
    6.7774    0.3350   -0.3868 C   0  0  0  0  0  0  0  0  0  0  0  0
    7.2096    0.9233   -1.5535 C   0  0  0  0  0  0  0  0  0  0  0  0
    8.5406    1.3393   -1.6802 C   0  0  0  0  0  0  0  0  0  0  0  0
    9.4509    1.1803   -0.6658 C   0  0  0  0  0  0  0  0  0  0  0  0
   10.7222    1.5883   -0.8123 F   0  0  0  0  0  0  0  0  0  0  0  0
    9.0122    0.5884    0.5058 C   0  0  0  0  0  0  0  0  0  0  0  0
    7.7166    0.1809    0.6367 C   0  0  0  0  0  0  0  0  0  0  0  0
   -3.8079    0.4171   -1.8556 C   0  0  0  0  0  0  0  0  0  0  0  0
   -5.3156    0.3180   -1.8403 C   0  0  0  0  0  0  0  0  0  0  0  0
   -7.9271   -2.1027   -0.5533 H   0  0  0  0  0  0  0  0  0  0  0  0
   -8.9661   -0.9594    0.3027 H   0  0  0  0  0  0  0  0  0  0  0  0
   -7.6115   -1.7077    1.2023 H   0  0  0  0  0  0  0  0  0  0  0  0
   -6.7261    0.4089    0.7707 H   0  0  0  0  0  0  0  0  0  0  0  0
   -7.5250    0.5410   -0.7969 H   0  0  0  0  0  0  0  0  0  0  0  0
   -5.3648   -1.8816    0.6712 H   0  0  0  0  0  0  0  0  0  0  0  0
   -4.3729   -2.0848   -0.8832 H   0  0  0  0  0  0  0  0  0  0  0  0
   -2.9569   -1.1095    0.7974 H   0  0  0  0  0  0  0  0  0  0  0  0
   -4.1875    0.0846    1.2639 H   0  0  0  0  0  0  0  0  0  0  0  0
   -1.4760   -0.7390   -0.9297 H   0  0  0  0  0  0  0  0  0  0  0  0
   -1.4075    1.0454   -1.3845 H   0  0  0  0  0  0  0  0  0  0  0  0
   -2.6500    1.8779    1.5906 H   0  0  0  0  0  0  0  0  0  0  0  0
   -1.9486    2.7069    3.9291 H   0  0  0  0  0  0  0  0  0  0  0  0
   -0.1670    2.9594    3.9923 H   0  0  0  0  0  0  0  0  0  0  0  0
   -0.9259    1.4783    4.7635 H   0  0  0  0  0  0  0  0  0  0  0  0
   -0.2640   -2.3414    0.4301 H   0  0  0  0  0  0  0  0  0  0  0  0
    1.3022   -3.7417   -0.7157 H   0  0  0  0  0  0  0  0  0  0  0  0
    3.5006   -2.8186   -1.4429 H   0  0  0  0  0  0  0  0  0  0  0  0
    2.5147    0.9708    0.1880 H   0  0  0  0  0  0  0  0  0  0  0  0
    5.2089   -0.3346    0.8402 H   0  0  0  0  0  0  0  0  0  0  0  0
    6.5397    1.0817   -2.3860 H   0  0  0  0  0  0  0  0  0  0  0  0
    8.8643    1.7967   -2.5993 H   0  0  0  0  0  0  0  0  0  0  0  0
    9.7363    0.4548    1.3248 H   0  0  0  0  0  0  0  0  0  0  0  0
    7.3766   -0.2898    1.5703 H   0  0  0  0  0  0  0  0  0  0  0  0
   -3.3798   -0.3745   -2.5389 H   0  0  0  0  0  0  0  0  0  0  0  0
   -3.5617    1.3821   -2.3469 H   0  0  0  0  0  0  0  0  0  0  0  0
   -5.7878    1.3059   -1.6891 H   0  0  0  0  0  0  0  0  0  0  0  0
   -5.6128   -0.0300   -2.8574 H   0  0  0  0  0  0  0  0  0  0  0  0
  1  2  1  0
  2  3  1  0
  3  4  1  0
  4  5  1  0
  5  6  1  0
  6  7  1  0
  7  8  1  0
  8  9  2  0
  9 10  1  0
 10 11  1  0
 10 12  2  0
 12 13  1  0
 13 14  1  0
 14 15  2  0
 15 16  1  0
 16 17  2  0
 17 18  1  0
 18 19  2  0
 18 20  1  0
 20 21  2  0
 20 22  1  0
 22 23  1  0
 23 24  2  0
 24 25  1  0
 25 26  2  0
 26 27  1  0
 26 28  1  0
 28 29  2  0
  6 30  1  0
 30 31  1  0
 31  3  1  0
 13  8  1  0
 19 14  1  0
 29 23  1  0
  1 32  1  0
  1 33  1  0
  1 34  1  0
  2 35  1  0
  2 36  1  0
  4 37  1  0
  4 38  1  0
  5 39  1  0
  5 40  1  0
  7 41  1  0
  7 42  1  0
  9 43  1  0
 11 44  1  0
 11 45  1  0
 11 46  1  0
 15 47  1  0
 16 48  1  0
 17 49  1  0
 19 50  1  0
 22 51  1  0
 24 52  1  0
 25 53  1  0
 28 54  1  0
 29 55  1  0
 30 56  1  0
 30 57  1  0
 31 58  1  0
 31 59  1  0
M  END
$$$$
[H]N=C(N([H])[H])[C@@]([H])(N([H])S(=O)(=O)c1c([H])c([H])c(OC([H])([H])C([H])([H])C([H])([H])C([H])([H])O[H])c([H])c1[H])C([H])([H])c1c([H])c([H])c(-c2c([H])c([H])c([H])c([H])c2[H])c([H])c1[H]
     RDKit          3D

 62 64  0  0  0  0  0  0  0  0999 V2000
   -7.1530    0.5504   -1.2576 O   0  0  0  0  0  0  0  0  0  0  0  0
   -7.6558    1.6110   -0.5371 C   0  0  0  0  0  0  0  0  0  0  0  0
   -6.6610    2.3258    0.3004 C   0  0  0  0  0  0  0  0  0  0  0  0
   -5.9760    1.5408    1.3632 C   0  0  0  0  0  0  0  0  0  0  0  0
   -5.1945    0.3646    0.8497 C   0  0  0  0  0  0  0  0  0  0  0  0
   -4.2252    0.8517   -0.0614 O   0  0  0  0  0  0  0  0  0  0  0  0
   -3.3885   -0.0675   -0.6722 C   0  0  0  0  0  0  0  0  0  0  0  0
   -2.4074    0.3218   -1.5765 C   0  0  0  0  0  0  0  0  0  0  0  0
   -1.5818   -0.5914   -2.1803 C   0  0  0  0  0  0  0  0  0  0  0  0
   -1.6999   -1.9444   -1.9061 C   0  0  0  0  0  0  0  0  0  0  0  0
   -2.6635   -2.3405   -1.0163 C   0  0  0  0  0  0  0  0  0  0  0  0
   -3.4833   -1.4183   -0.4181 C   0  0  0  0  0  0  0  0  0  0  0  0
   -0.6668   -3.1163   -2.6537 S   0  0  0  0  0  0  0  0  0  0  0  0
   -1.4151   -4.3333   -3.1224 O   0  0  0  0  0  0  0  0  0  0  0  0
   -0.1240   -2.4714   -3.9226 O   0  0  0  0  0  0  0  0  0  0  0  0
    0.6926   -3.5579   -1.7002 N   0  0  0  0  0  0  0  0  0  0  0  0
    1.5834   -2.4178   -1.4224 C   0  0  1  0  0  0  0  0  0  0  0  0
    1.6447   -2.1997    0.0344 C   0  0  0  0  0  0  0  0  0  0  0  0
    2.4688   -1.1297    0.5576 C   0  0  0  0  0  0  0  0  0  0  0  0
    2.0565    0.1951    0.4988 C   0  0  0  0  0  0  0  0  0  0  0  0
    2.8263    1.2063    1.0368 C   0  0  0  0  0  0  0  0  0  0  0  0
    4.0343    0.9534    1.6552 C   0  0  0  0  0  0  0  0  0  0  0  0
    4.4496   -0.3533    1.7194 C   0  0  0  0  0  0  0  0  0  0  0  0
    3.6641   -1.3621    1.1739 C   0  0  0  0  0  0  0  0  0  0  0  0
    4.8233    2.0684    2.2039 C   0  0  0  0  0  0  0  0  0  0  0  0
    4.2084    3.1909    2.7113 C   0  0  0  0  0  0  0  0  0  0  0  0
    4.9211    4.2462    3.2210 C   0  0  0  0  0  0  0  0  0  0  0  0
    6.2888    4.1826    3.2262 C   0  0  0  0  0  0  0  0  0  0  0  0
    6.9302    3.0614    2.7206 C   0  0  0  0  0  0  0  0  0  0  0  0
    6.2010    2.0170    2.2155 C   0  0  0  0  0  0  0  0  0  0  0  0
    2.8368   -2.7025   -2.1034 C   0  0  0  0  0  0  0  0  0  0  0  0
    2.8411   -2.7299   -3.5563 N   0  0  0  0  0  0  0  0  0  0  0  0
    3.9684   -2.9492   -1.5664 N   0  0  0  0  0  0  0  0  0  0  0  0
   -6.6998    0.7948   -2.0882 H   0  0  0  0  0  0  0  0  0  0  0  0
   -8.5676    1.3096    0.0385 H   0  0  0  0  0  0  0  0  0  0  0  0
   -8.0573    2.3397   -1.2956 H   0  0  0  0  0  0  0  0  0  0  0  0
   -5.8902    2.8181   -0.3509 H   0  0  0  0  0  0  0  0  0  0  0  0
   -7.1793    3.1856    0.8229 H   0  0  0  0  0  0  0  0  0  0  0  0
   -5.2030    2.2272    1.8284 H   0  0  0  0  0  0  0  0  0  0  0  0
   -6.6791    1.2397    2.1908 H   0  0  0  0  0  0  0  0  0  0  0  0
   -5.7771   -0.4456    0.4285 H   0  0  0  0  0  0  0  0  0  0  0  0
   -4.6669   -0.0579    1.7685 H   0  0  0  0  0  0  0  0  0  0  0  0
   -2.3069    1.3577   -1.7938 H   0  0  0  0  0  0  0  0  0  0  0  0
   -0.8146   -0.3100   -2.8869 H   0  0  0  0  0  0  0  0  0  0  0  0
   -2.7700   -3.3824   -0.7925 H   0  0  0  0  0  0  0  0  0  0  0  0
   -4.2253   -1.7747    0.2769 H   0  0  0  0  0  0  0  0  0  0  0  0
    0.3961   -4.0038   -0.8191 H   0  0  0  0  0  0  0  0  0  0  0  0
    1.0842   -1.5657   -1.9632 H   0  0  0  0  0  0  0  0  0  0  0  0
    2.0186   -3.1623    0.5040 H   0  0  0  0  0  0  0  0  0  0  0  0
    0.5849   -2.1428    0.4420 H   0  0  0  0  0  0  0  0  0  0  0  0
    1.1174    0.3963    0.0176 H   0  0  0  0  0  0  0  0  0  0  0  0
    2.4467    2.2304    0.9584 H   0  0  0  0  0  0  0  0  0  0  0  0
    5.3735   -0.5994    2.1886 H   0  0  0  0  0  0  0  0  0  0  0  0
    4.0581   -2.3718    1.2901 H   0  0  0  0  0  0  0  0  0  0  0  0
    3.1288    3.2437    2.7082 H   0  0  0  0  0  0  0  0  0  0  0  0
    4.3947    5.1273    3.6167 H   0  0  0  0  0  0  0  0  0  0  0  0
    6.8903    5.0085    3.6254 H   0  0  0  0  0  0  0  0  0  0  0  0
    8.0197    2.9705    2.7059 H   0  0  0  0  0  0  0  0  0  0  0  0
    6.6530    1.1074    1.8027 H   0  0  0  0  0  0  0  0  0  0  0  0
    2.8372   -3.5897   -4.1071 H   0  0  0  0  0  0  0  0  0  0  0  0
    2.8483   -1.8048   -4.0331 H   0  0  0  0  0  0  0  0  0  0  0  0
    4.8423   -3.1478   -2.0688 H   0  0  0  0  0  0  0  0  0  0  0  0
  1  2  1  0
  2  3  1  0
  3  4  1  0
  4  5  1  0
  5  6  1  0
  6  7  1  0
  7  8  2  0
  8  9  1  0
  9 10  2  0
 10 11  1  0
 11 12  2  0
 10 13  1  0
 13 14  2  0
 13 15  2  0
 13 16  1  0
 16 17  1  0
 17 18  1  0
 18 19  1  0
 19 20  2  0
 20 21  1  0
 21 22  2  0
 22 23  1  0
 23 24  2  0
 22 25  1  0
 25 26  2  0
 26 27  1  0
 27 28  2  0
 28 29  1  0
 29 30  2  0
 17 31  1  0
 31 32  1  0
 31 33  2  3
 12  7  1  0
 24 19  1  0
 30 25  1  0
  1 34  1  0
  2 35  1  0
  2 36  1  0
  3 37  1  0
  3 38  1  0
  4 39  1  0
  4 40  1  0
  5 41  1  0
  5 42  1  0
  8 43  1  0
  9 44  1  0
 11 45  1  0
 12 46  1  0
 16 47  1  0
 17 48  1  6
 18 49  1  0
 18 50  1  0
 20 51  1  0
 21 52  1  0
 23 53  1  0
 24 54  1  0
 26 55  1  0
 27 56  1  0
 28 57  1  0
 29 58  1  0
 30 59  1  0
 32 60  1  0
 32 61  1  0
 33 62  1  0
M  END
$$$$
[H]c1c(N([H])C(=O)C([H])([H])[H])nc2c(C3([H])C([H])([H])C([H])([H])N(C([H])([H])[H])C([H])([H])C3([H])[H])c([H])n([H])c2c1[H]
     RDKit          3D

 40 42  0  0  0  0  0  0  0  0999 V2000
    6.2419    1.8767    1.1504 C   0  0  0  0  0  0  0  0  0  0  0  0
    5.3721    0.8377    0.5097 C   0  0  0  0  0  0  0  0  0  0  0  0
    5.9343    0.1612   -0.4407 O   0  0  0  0  0  0  0  0  0  0  0  0
    4.0432    0.5824    0.8729 N   0  0  0  0  0  0  0  0  0  0  0  0
    3.2155   -0.3600    0.2291 C   0  0  0  0  0  0  0  0  0  0  0  0
    3.6642   -1.3072   -0.6251 C   0  0  0  0  0  0  0  0  0  0  0  0
    2.7241   -2.0491   -1.3775 C   0  0  0  0  0  0  0  0  0  0  0  0
    1.3787   -1.7988   -1.2327 C   0  0  0  0  0  0  0  0  0  0  0  0
    0.2928   -2.2757   -1.9241 N   0  0  0  0  0  0  0  0  0  0  0  0
   -0.8382   -1.6298   -1.4966 C   0  0  0  0  0  0  0  0  0  0  0  0
   -0.4308   -0.7466   -0.5349 C   0  0  0  0  0  0  0  0  0  0  0  0
   -1.3447    0.0936    0.3388 C   0  0  0  0  0  0  0  0  0  0  0  0
   -2.1591    0.9875   -0.6005 C   0  0  0  0  0  0  0  0  0  0  0  0
   -3.1782    1.6639    0.3321 C   0  0  0  0  0  0  0  0  0  0  0  0
   -4.1698    0.6225    0.5296 N   0  0  0  0  0  0  0  0  0  0  0  0
   -5.4752    1.0435    0.8288 C   0  0  0  0  0  0  0  0  0  0  0  0
   -3.6548   -0.4273    1.3332 C   0  0  0  0  0  0  0  0  0  0  0  0
   -2.3040   -0.9371    0.9726 C   0  0  0  0  0  0  0  0  0  0  0  0
    0.9340   -0.8289   -0.3517 C   0  0  0  0  0  0  0  0  0  0  0  0
    1.8419   -0.1410    0.3522 N   0  0  0  0  0  0  0  0  0  0  0  0
    7.1396    1.5199    1.6203 H   0  0  0  0  0  0  0  0  0  0  0  0
    6.4276    2.6888    0.3766 H   0  0  0  0  0  0  0  0  0  0  0  0
    5.5969    2.3604    1.9313 H   0  0  0  0  0  0  0  0  0  0  0  0
    3.6121    1.1341    1.6518 H   0  0  0  0  0  0  0  0  0  0  0  0
    4.6726   -1.5850   -0.7916 H   0  0  0  0  0  0  0  0  0  0  0  0
    3.0800   -2.8127   -2.0629 H   0  0  0  0  0  0  0  0  0  0  0  0
    0.3081   -3.0101   -2.6434 H   0  0  0  0  0  0  0  0  0  0  0  0
   -1.8557   -1.8077   -1.8755 H   0  0  0  0  0  0  0  0  0  0  0  0
   -0.8311    0.6331    1.0899 H   0  0  0  0  0  0  0  0  0  0  0  0
   -2.6474    0.4356   -1.3849 H   0  0  0  0  0  0  0  0  0  0  0  0
   -1.4522    1.7953   -0.9357 H   0  0  0  0  0  0  0  0  0  0  0  0
   -3.6342    2.4761   -0.2275 H   0  0  0  0  0  0  0  0  0  0  0  0
   -2.6692    1.9766    1.2777 H   0  0  0  0  0  0  0  0  0  0  0  0
   -5.6398    2.0881    0.4689 H   0  0  0  0  0  0  0  0  0  0  0  0
   -5.7845    0.9511    1.8687 H   0  0  0  0  0  0  0  0  0  0  0  0
   -6.1956    0.4427    0.2216 H   0  0  0  0  0  0  0  0  0  0  0  0
   -3.7019   -0.2201    2.4359 H   0  0  0  0  0  0  0  0  0  0  0  0
   -4.3602   -1.3110    1.1612 H   0  0  0  0  0  0  0  0  0  0  0  0
   -2.3735   -1.8158    0.2858 H   0  0  0  0  0  0  0  0  0  0  0  0
   -1.7796   -1.3068    1.8886 H   0  0  0  0  0  0  0  0  0  0  0  0
  1  2  1  0
  2  3  2  0
  2  4  1  0
  4  5  1  0
  5  6  2  0
  6  7  1  0
  7  8  2  0
  8  9  1  0
  9 10  1  0
 10 11  2  0
 11 12  1  0
 12 13  1  0
 13 14  1  0
 14 15  1  0
 15 16  1  0
 15 17  1  0
 17 18  1  0
 11 19  1  0
 19 20  2  0
 20  5  1  0
 19  8  1  0
 18 12  1  0
  1 21  1  0
  1 22  1  0
  1 23  1  0
  4 24  1  0
  6 25  1  0
  7 26  1  0
  9 27  1  0
 10 28  1  0
 12 29  1  0
 13 30  1  0
 13 31  1  0
 14 32  1  0
 14 33  1  0
 16 34  1  0
 16 35  1  0
 16 36  1  0
 17 37  1  0
 17 38  1  0
 18 39  1  0
 18 40  1  0
M  END
$$$$
[H]OC([H])([H])C([H])([H])N1C([H])([H])C([H])([H])N(C([H])([H])C([H])([H])C([H])([H])c2c3c(n([H])c2/C([H])=C2\C(=O)N([H])c4c([H])c([H])c(OC(=O)N(C([H])([H])[H])C([H])([H])[H])c([H])c42)C([H])([H])C([H])([H])C([H])([H])C3([H])[H])C([H])([H])C1([H])[H]
     RDKit          3D

 77 81  0  0  0  0  0  0  0  0999 V2000
   -7.3734    4.7018    0.9346 C   0  0  0  0  0  0  0  0  0  0  0  0
   -7.7454    3.3166    1.0507 N   0  0  0  0  0  0  0  0  0  0  0  0
   -8.8025    2.9521    1.9654 C   0  0  0  0  0  0  0  0  0  0  0  0
   -7.1149    2.3084    0.3037 C   0  0  0  0  0  0  0  0  0  0  0  0
   -7.4650    1.0887    0.4400 O   0  0  0  0  0  0  0  0  0  0  0  0
   -6.0910    2.4935   -0.6282 O   0  0  0  0  0  0  0  0  0  0  0  0
   -5.5403    1.4072   -1.3117 C   0  0  0  0  0  0  0  0  0  0  0  0
   -6.0539    0.9191   -2.4885 C   0  0  0  0  0  0  0  0  0  0  0  0
   -5.5135   -0.1545   -3.1630 C   0  0  0  0  0  0  0  0  0  0  0  0
   -4.3808   -0.7860   -2.6242 C   0  0  0  0  0  0  0  0  0  0  0  0
   -3.5970   -1.8905   -3.0383 N   0  0  0  0  0  0  0  0  0  0  0  0
   -2.5566   -2.1102   -2.0990 C   0  0  0  0  0  0  0  0  0  0  0  0
   -1.7019   -3.0160   -2.1846 O   0  0  0  0  0  0  0  0  0  0  0  0
   -2.6915   -1.1047   -1.0578 C   0  0  0  0  0  0  0  0  0  0  0  0
   -1.9469   -0.8972    0.0094 C   0  0  0  0  0  0  0  0  0  0  0  0
   -0.7979   -1.7238    0.2871 C   0  0  0  0  0  0  0  0  0  0  0  0
   -0.7664   -2.6390    1.3047 N   0  0  0  0  0  0  0  0  0  0  0  0
    0.4246   -3.2374    1.3883 C   0  0  0  0  0  0  0  0  0  0  0  0
    1.0439   -4.2690    2.2628 C   0  0  0  0  0  0  0  0  0  0  0  0
    1.7986   -5.2884    1.4421 C   0  0  0  0  0  0  0  0  0  0  0  0
    2.7233   -4.6966    0.4330 C   0  0  0  0  0  0  0  0  0  0  0  0
    2.6004   -3.2070    0.2576 C   0  0  0  0  0  0  0  0  0  0  0  0
    1.2135   -2.7073    0.3971 C   0  0  0  0  0  0  0  0  0  0  0  0
    0.4423   -1.7630   -0.2834 C   0  0  0  0  0  0  0  0  0  0  0  0
    0.9787   -0.9397   -1.3923 C   0  0  0  0  0  0  0  0  0  0  0  0
    1.3407    0.4700   -0.9544 C   0  0  0  0  0  0  0  0  0  0  0  0
    2.3651    0.4307    0.1636 C   0  0  0  0  0  0  0  0  0  0  0  0
    2.7645    1.7405    0.6161 N   0  0  0  0  0  0  0  0  0  0  0  0
    3.6056    1.5403    1.7921 C   0  0  0  0  0  0  0  0  0  0  0  0
    4.7676    0.6662    1.5124 C   0  0  0  0  0  0  0  0  0  0  0  0
    5.5443    1.1035    0.3782 N   0  0  0  0  0  0  0  0  0  0  0  0
    6.7685    1.7263    0.7563 C   0  0  0  0  0  0  0  0  0  0  0  0
    7.6466    2.1182   -0.3788 C   0  0  0  0  0  0  0  0  0  0  0  0
    7.9611    0.9724   -1.1090 O   0  0  0  0  0  0  0  0  0  0  0  0
    4.8300    1.6407   -0.7091 C   0  0  0  0  0  0  0  0  0  0  0  0
    3.5839    2.4105   -0.4061 C   0  0  0  0  0  0  0  0  0  0  0  0
   -3.8676   -0.2989   -1.4506 C   0  0  0  0  0  0  0  0  0  0  0  0
   -4.4375    0.7881   -0.7947 C   0  0  0  0  0  0  0  0  0  0  0  0
   -6.2717    4.8406    0.8592 H   0  0  0  0  0  0  0  0  0  0  0  0
   -7.8930    5.0817    0.0057 H   0  0  0  0  0  0  0  0  0  0  0  0
   -7.8076    5.2600    1.7742 H   0  0  0  0  0  0  0  0  0  0  0  0
   -9.3665    3.8113    2.3459 H   0  0  0  0  0  0  0  0  0  0  0  0
   -9.5451    2.3675    1.3475 H   0  0  0  0  0  0  0  0  0  0  0  0
   -8.4441    2.2973    2.7874 H   0  0  0  0  0  0  0  0  0  0  0  0
   -6.9429    1.4042   -2.9250 H   0  0  0  0  0  0  0  0  0  0  0  0
   -5.8838   -0.5634   -4.0828 H   0  0  0  0  0  0  0  0  0  0  0  0
   -3.8022   -2.4350   -3.9248 H   0  0  0  0  0  0  0  0  0  0  0  0
   -2.2017   -0.0959    0.6839 H   0  0  0  0  0  0  0  0  0  0  0  0
   -1.5623   -2.8762    1.9653 H   0  0  0  0  0  0  0  0  0  0  0  0
    0.2681   -4.7897    2.8579 H   0  0  0  0  0  0  0  0  0  0  0  0
    1.7941   -3.7592    2.9148 H   0  0  0  0  0  0  0  0  0  0  0  0
    1.0180   -5.9607    0.9953 H   0  0  0  0  0  0  0  0  0  0  0  0
    2.3793   -5.9118    2.1574 H   0  0  0  0  0  0  0  0  0  0  0  0
    3.7963   -4.8801    0.7057 H   0  0  0  0  0  0  0  0  0  0  0  0
    2.5514   -5.2099   -0.5268 H   0  0  0  0  0  0  0  0  0  0  0  0
    3.2873   -2.6667    0.9580 H   0  0  0  0  0  0  0  0  0  0  0  0
    2.9368   -3.0084   -0.8053 H   0  0  0  0  0  0  0  0  0  0  0  0
    0.2852   -0.8199   -2.2408 H   0  0  0  0  0  0  0  0  0  0  0  0
    1.9077   -1.3758   -1.8068 H   0  0  0  0  0  0  0  0  0  0  0  0
    0.4120    0.9698   -0.6527 H   0  0  0  0  0  0  0  0  0  0  0  0
    1.7988    0.9591   -1.8252 H   0  0  0  0  0  0  0  0  0  0  0  0
    3.2526   -0.1653   -0.1651 H   0  0  0  0  0  0  0  0  0  0  0  0
    1.9143   -0.1128    1.0092 H   0  0  0  0  0  0  0  0  0  0  0  0
    3.9619    2.5080    2.2001 H   0  0  0  0  0  0  0  0  0  0  0  0
    2.9463    1.0377    2.5445 H   0  0  0  0  0  0  0  0  0  0  0  0
    4.4896   -0.3921    1.3845 H   0  0  0  0  0  0  0  0  0  0  0  0
    5.4469    0.7079    2.4014 H   0  0  0  0  0  0  0  0  0  0  0  0
    7.3552    1.0208    1.4150 H   0  0  0  0  0  0  0  0  0  0  0  0
    6.5893    2.6186    1.4062 H   0  0  0  0  0  0  0  0  0  0  0  0
    8.6422    2.4130    0.1014 H   0  0  0  0  0  0  0  0  0  0  0  0
    7.3195    2.9689   -0.9723 H   0  0  0  0  0  0  0  0  0  0  0  0
    8.6193    0.4305   -0.5834 H   0  0  0  0  0  0  0  0  0  0  0  0
    5.4863    2.3321   -1.2942 H   0  0  0  0  0  0  0  0  0  0  0  0
    4.5324    0.8315   -1.4204 H   0  0  0  0  0  0  0  0  0  0  0  0
    3.7870    3.4329   -0.0230 H   0  0  0  0  0  0  0  0  0  0  0  0
    2.9960    2.5239   -1.3178 H   0  0  0  0  0  0  0  0  0  0  0  0
   -4.0119    1.1403    0.1164 H   0  0  0  0  0  0  0  0  0  0  0  0
  1  2  1  0
  2  3  1  0
  2  4  1  0
  4  5  2  0
  4  6  1  0
  6  7  1  0
  7  8  2  0
  8  9  1  0
  9 10  2  0
 10 11  1  0
 11 12  1  0
 12 13  2  0
 12 14  1  0
 14 15  2  0
 15 16  1  0
 16 17  1  0
 17 18  1  0
 18 19  1  0
 19 20  1  0
 20 21  1  0
 21 22  1  0
 22 23  1  0
 23 24  1  0
 24 25  1  0
 25 26  1  0
 26 27  1  0
 27 28  1  0
 28 29  1  0
 29 30  1  0
 30 31  1  0
 31 32  1  0
 32 33  1  0
 33 34  1  0
 31 35  1  0
 35 36  1  0
 14 37  1  0
 37 38  2  0
 38  7  1  0
 37 10  1  0
 24 16  2  0
 36 28  1  0
 23 18  2  0
  1 39  1  0
  1 40  1  0
  1 41  1  0
  3 42  1  0
  3 43  1  0
  3 44  1  0
  8 45  1  0
  9 46  1  0
 11 47  1  0
 15 48  1  0
 17 49  1  0
 19 50  1  0
 19 51  1  0
 20 52  1  0
 20 53  1  0
 21 54  1  0
 21 55  1  0
 22 56  1  0
 22 57  1  0
 25 58  1  0
 25 59  1  0
 26 60  1  0
 26 61  1  0
 27 62  1  0
 27 63  1  0
 29 64  1  0
 29 65  1  0
 30 66  1  0
 30 67  1  0
 32 68  1  0
 32 69  1  0
 33 70  1  0
 33 71  1  0
 34 72  1  0
 35 73  1  0
 35 74  1  0
 36 75  1  0
 36 76  1  0
 38 77  1  0
M  END
$$$$
[H]c1c(F)c([H])c(C([H])([H])Oc2c([H])c([H])c(Cl)c([H])c2C(=O)N([H])C([H])([H])C2([H])C([H])([H])C([H])([H])N([H])C([H])([H])C2([H])[H])c([H])c1F
     RDKit          3D

 48 50  0  0  0  0  0  0  0  0999 V2000
   -5.9114   -3.7649   -0.8568 F   0  0  0  0  0  0  0  0  0  0  0  0
   -5.0067   -2.7687   -1.1164 C   0  0  0  0  0  0  0  0  0  0  0  0
   -5.2994   -1.8991   -2.1362 C   0  0  0  0  0  0  0  0  0  0  0  0
   -4.4144   -0.8876   -2.4174 C   0  0  0  0  0  0  0  0  0  0  0  0
   -4.7060   -0.0327   -3.4243 F   0  0  0  0  0  0  0  0  0  0  0  0
   -3.2385   -0.7599   -1.6678 C   0  0  0  0  0  0  0  0  0  0  0  0
   -2.9552   -1.6366   -0.6487 C   0  0  0  0  0  0  0  0  0  0  0  0
   -1.7023   -1.5011    0.1270 C   0  0  0  0  0  0  0  0  0  0  0  0
   -1.1614   -0.2329    0.1967 O   0  0  0  0  0  0  0  0  0  0  0  0
   -1.6345    0.9242    0.7000 C   0  0  0  0  0  0  0  0  0  0  0  0
   -2.9040    0.9074    1.2825 C   0  0  0  0  0  0  0  0  0  0  0  0
   -3.3853    2.0865    1.7956 C   0  0  0  0  0  0  0  0  0  0  0  0
   -2.6971    3.2708    1.7699 C   0  0  0  0  0  0  0  0  0  0  0  0
   -3.3403    4.7529    2.4288 Cl  0  0  0  0  0  0  0  0  0  0  0  0
   -1.4359    3.2218    1.1766 C   0  0  0  0  0  0  0  0  0  0  0  0
   -0.8913    2.0767    0.6423 C   0  0  0  0  0  0  0  0  0  0  0  0
    0.4707    2.1450    0.0284 C   0  0  0  0  0  0  0  0  0  0  0  0
    1.0047    3.3077    0.0799 O   0  0  0  0  0  0  0  0  0  0  0  0
    1.0760    1.0520   -0.5329 N   0  0  0  0  0  0  0  0  0  0  0  0
    1.7218    0.0251   -1.0954 C   0  0  0  0  0  0  0  0  0  0  0  0
    3.0884   -0.3634   -0.5185 C   0  0  0  0  0  0  0  0  0  0  0  0
    3.0012   -0.7546    0.9316 C   0  0  0  0  0  0  0  0  0  0  0  0
    4.3359   -1.1732    1.4619 C   0  0  0  0  0  0  0  0  0  0  0  0
    5.3944   -0.2134    1.2079 N   0  0  0  0  0  0  0  0  0  0  0  0
    5.4504    0.1872   -0.1706 C   0  0  0  0  0  0  0  0  0  0  0  0
    4.1024    0.7402   -0.6165 C   0  0  0  0  0  0  0  0  0  0  0  0
   -3.8542   -2.6373   -0.3870 C   0  0  0  0  0  0  0  0  0  0  0  0
   -6.2133   -2.0229   -2.7019 H   0  0  0  0  0  0  0  0  0  0  0  0
   -2.6056    0.0581   -1.9559 H   0  0  0  0  0  0  0  0  0  0  0  0
   -0.9366   -2.2650   -0.2208 H   0  0  0  0  0  0  0  0  0  0  0  0
   -1.8997   -1.8355    1.1900 H   0  0  0  0  0  0  0  0  0  0  0  0
   -3.5004    0.0093    1.3430 H   0  0  0  0  0  0  0  0  0  0  0  0
   -4.3759    2.0701    2.2530 H   0  0  0  0  0  0  0  0  0  0  0  0
   -0.8473    4.1359    1.1309 H   0  0  0  0  0  0  0  0  0  0  0  0
    2.1628    1.8728   -0.8171 H   0  0  0  0  0  0  0  0  0  0  0  0
    1.1261   -0.9588   -1.1123 H   0  0  0  0  0  0  0  0  0  0  0  0
    1.9042    0.1866   -2.2232 H   0  0  0  0  0  0  0  0  0  0  0  0
    3.4495   -1.2581   -1.0809 H   0  0  0  0  0  0  0  0  0  0  0  0
    2.3057   -1.6060    1.0725 H   0  0  0  0  0  0  0  0  0  0  0  0
    2.6297    0.1079    1.5523 H   0  0  0  0  0  0  0  0  0  0  0  0
    4.3197   -1.4656    2.5204 H   0  0  0  0  0  0  0  0  0  0  0  0
    4.6575   -2.1115    0.9217 H   0  0  0  0  0  0  0  0  0  0  0  0
    6.2878   -0.7133    1.4370 H   0  0  0  0  0  0  0  0  0  0  0  0
    5.8183   -0.6149   -0.8076 H   0  0  0  0  0  0  0  0  0  0  0  0
    6.1776    1.0475   -0.2233 H   0  0  0  0  0  0  0  0  0  0  0  0
    3.8716    1.5376    0.1305 H   0  0  0  0  0  0  0  0  0  0  0  0
    4.2111    1.0839   -1.6388 H   0  0  0  0  0  0  0  0  0  0  0  0
   -3.6506   -3.3303    0.4026 H   0  0  0  0  0  0  0  0  0  0  0  0
  1  2  1  0
  2  3  2  0
  3  4  1  0
  4  5  1  0
  4  6  2  0
  6  7  1  0
  7  8  1  0
  8  9  1  0
  9 10  1  0
 10 11  2  0
 11 12  1  0
 12 13  2  0
 13 14  1  0
 13 15  1  0
 15 16  2  0
 16 17  1  0
 17 18  2  0
 17 19  1  0
 19 20  1  0
 20 21  1  0
 21 22  1  0
 22 23  1  0
 23 24  1  0
 24 25  1  0
 25 26  1  0
  7 27  2  0
 27  2  1  0
 16 10  1  0
 26 21  1  0
  3 28  1  0
  6 29  1  0
  8 30  1  0
  8 31  1  0
 11 32  1  0
 12 33  1  0
 15 34  1  0
 19 35  1  0
 20 36  1  0
 20 37  1  0
 21 38  1  0
 22 39  1  0
 22 40  1  0
 23 41  1  0
 23 42  1  0
 24 43  1  0
 25 44  1  0
 25 45  1  0
 26 46  1  0
 26 47  1  0
 27 48  1  0
M  END
$$$$
[H]c1nc(S(=O)(=O)N2C([H])([H])C(=O)C([H])(N([H])C(=O)[C@@]([H])(N([H])C(=O)OC([H])([H])c3c([H])c([H])c([H])c([H])c3[H])C([H])([H])C([H])(C([H])([H])[H])C([H])([H])[H])C([H])([H])C([H])([H])C2([H])[H])c([H])c([H])c1[H]
     RDKit          3D

 68 70  0  0  0  0  0  0  0  0999 V2000
   -2.7632   -3.3627   -2.0718 C   0  0  0  0  0  0  0  0  0  0  0  0
   -1.7271   -3.7291   -1.0285 C   0  0  0  0  0  0  0  0  0  0  0  0
   -0.3685   -3.5984   -1.6299 C   0  0  0  0  0  0  0  0  0  0  0  0
   -1.9540   -3.3011    0.3370 C   0  0  0  0  0  0  0  0  0  0  0  0
   -2.1206   -1.8481    0.7043 C   0  0  2  0  0  0  0  0  0  0  0  0
   -3.1502   -1.1186    0.1861 N   0  0  0  0  0  0  0  0  0  0  0  0
   -4.1902   -0.3835   -0.3371 C   0  0  0  0  0  0  0  0  0  0  0  0
   -5.3119   -0.7764   -0.7300 O   0  0  0  0  0  0  0  0  0  0  0  0
   -4.0259    1.0319   -0.4687 O   0  0  0  0  0  0  0  0  0  0  0  0
   -4.8888    1.9413   -0.9918 C   0  0  0  0  0  0  0  0  0  0  0  0
   -6.2331    2.0779   -0.4195 C   0  0  0  0  0  0  0  0  0  0  0  0
   -6.7121    1.5421    0.7486 C   0  0  0  0  0  0  0  0  0  0  0  0
   -8.0251    1.6956    1.1783 C   0  0  0  0  0  0  0  0  0  0  0  0
   -8.9353    2.4345    0.3960 C   0  0  0  0  0  0  0  0  0  0  0  0
   -8.4569    2.9732   -0.7744 C   0  0  0  0  0  0  0  0  0  0  0  0
   -7.1631    2.8190   -1.1887 C   0  0  0  0  0  0  0  0  0  0  0  0
   -0.8106   -1.1023    0.7310 C   0  0  0  0  0  0  0  0  0  0  0  0
   -0.9269    0.0881    0.2731 O   0  0  0  0  0  0  0  0  0  0  0  0
    0.4065   -1.6202    1.1899 N   0  0  0  0  0  0  0  0  0  0  0  0
    1.6757   -0.9290    1.1893 C   0  0  0  0  0  0  0  0  0  0  0  0
    1.5933    0.4191    1.8511 C   0  0  0  0  0  0  0  0  0  0  0  0
    2.3926    1.4160    1.0237 C   0  0  0  0  0  0  0  0  0  0  0  0
    3.8669    1.0780    1.0377 C   0  0  0  0  0  0  0  0  0  0  0  0
    4.3635    0.4096   -0.0986 N   0  0  0  0  0  0  0  0  0  0  0  0
    3.6471   -0.7326   -0.5532 C   0  0  0  0  0  0  0  0  0  0  0  0
    2.2096   -0.7309   -0.1795 C   0  0  0  0  0  0  0  0  0  0  0  0
    1.3882   -0.5554   -1.0495 O   0  0  0  0  0  0  0  0  0  0  0  0
    5.9954   -0.0444    0.1505 S   0  0  0  0  0  0  0  0  0  0  0  0
    6.0123   -0.8546    1.4562 O   0  0  0  0  0  0  0  0  0  0  0  0
    6.4566   -1.0134   -0.9235 O   0  0  0  0  0  0  0  0  0  0  0  0
    7.1217    1.2285    0.3811 C   0  0  0  0  0  0  0  0  0  0  0  0
    6.8353    2.5318    0.1464 C   0  0  0  0  0  0  0  0  0  0  0  0
    7.8474    3.4987    0.3122 C   0  0  0  0  0  0  0  0  0  0  0  0
    9.1141    3.1099    0.7085 C   0  0  0  0  0  0  0  0  0  0  0  0
    9.3445    1.7782    0.9288 C   0  0  0  0  0  0  0  0  0  0  0  0
    8.3750    0.8762    0.7684 N   0  0  0  0  0  0  0  0  0  0  0  0
   -3.7885   -3.6613   -1.8215 H   0  0  0  0  0  0  0  0  0  0  0  0
   -2.6543   -2.3251   -2.4157 H   0  0  0  0  0  0  0  0  0  0  0  0
   -2.5066   -4.0111   -2.9667 H   0  0  0  0  0  0  0  0  0  0  0  0
   -1.8590   -4.8901   -0.9858 H   0  0  0  0  0  0  0  0  0  0  0  0
    0.4583   -3.7785   -0.9378 H   0  0  0  0  0  0  0  0  0  0  0  0
   -0.2652   -4.4057   -2.4235 H   0  0  0  0  0  0  0  0  0  0  0  0
   -0.2069   -2.6425   -2.1589 H   0  0  0  0  0  0  0  0  0  0  0  0
   -1.1817   -3.7291    1.0125 H   0  0  0  0  0  0  0  0  0  0  0  0
   -2.9138   -3.7938    0.7323 H   0  0  0  0  0  0  0  0  0  0  0  0
   -2.3748   -1.9708    1.8325 H   0  0  0  0  0  0  0  0  0  0  0  0
   -3.9205   -2.2324    0.1219 H   0  0  0  0  0  0  0  0  0  0  0  0
   -4.4052    2.9797   -0.8232 H   0  0  0  0  0  0  0  0  0  0  0  0
   -4.9309    1.9199   -2.1285 H   0  0  0  0  0  0  0  0  0  0  0  0
   -5.9918    0.9771    1.3609 H   0  0  0  0  0  0  0  0  0  0  0  0
   -8.3741    1.2667    2.0907 H   0  0  0  0  0  0  0  0  0  0  0  0
   -9.9452    2.5332    0.7515 H   0  0  0  0  0  0  0  0  0  0  0  0
   -9.1743    3.5474   -1.3754 H   0  0  0  0  0  0  0  0  0  0  0  0
   -6.7904    3.2720   -2.1195 H   0  0  0  0  0  0  0  0  0  0  0  0
    0.3781   -2.6164    1.5837 H   0  0  0  0  0  0  0  0  0  0  0  0
    2.4274   -1.5627    1.7867 H   0  0  0  0  0  0  0  0  0  0  0  0
    2.2096    0.3390    2.8123 H   0  0  0  0  0  0  0  0  0  0  0  0
    0.5706    0.7633    2.0846 H   0  0  0  0  0  0  0  0  0  0  0  0
    2.0118    1.5480    0.0008 H   0  0  0  0  0  0  0  0  0  0  0  0
    2.2847    2.4135    1.5224 H   0  0  0  0  0  0  0  0  0  0  0  0
    4.0038    0.4559    1.9863 H   0  0  0  0  0  0  0  0  0  0  0  0
    4.4308    1.9931    1.2353 H   0  0  0  0  0  0  0  0  0  0  0  0
    3.6945   -0.7704   -1.6635 H   0  0  0  0  0  0  0  0  0  0  0  0
    4.1680   -1.6573   -0.1824 H   0  0  0  0  0  0  0  0  0  0  0  0
    5.8718    2.9086   -0.1811 H   0  0  0  0  0  0  0  0  0  0  0  0
    7.6217    4.5207    0.1222 H   0  0  0  0  0  0  0  0  0  0  0  0
    9.9030    3.8478    0.8446 H   0  0  0  0  0  0  0  0  0  0  0  0
   10.3670    1.5123    1.2481 H   0  0  0  0  0  0  0  0  0  0  0  0
  1  2  1  0
  2  3  1  0
  2  4  1  0
  4  5  1  0
  5  6  1  0
  6  7  1  0
  7  8  2  0
  7  9  1  0
  9 10  1  0
 10 11  1  0
 11 12  2  0
 12 13  1  0
 13 14  2  0
 14 15  1  0
 15 16  2  0
  5 17  1  0
 17 18  2  0
 17 19  1  0
 19 20  1  0
 20 21  1  0
 21 22  1  0
 22 23  1  0
 23 24  1  0
 24 25  1  0
 25 26  1  0
 26 27  2  0
 24 28  1  0
 28 29  2  0
 28 30  2  0
 28 31  1  0
 31 32  2  0
 32 33  1  0
 33 34  2  0
 34 35  1  0
 35 36  2  0
 16 11  1  0
 26 20  1  0
 36 31  1  0
  1 37  1  0
  1 38  1  0
  1 39  1  0
  2 40  1  0
  3 41  1  0
  3 42  1  0
  3 43  1  0
  4 44  1  0
  4 45  1  0
  5 46  1  1
  6 47  1  0
 10 48  1  0
 10 49  1  0
 12 50  1  0
 13 51  1  0
 14 52  1  0
 15 53  1  0
 16 54  1  0
 19 55  1  0
 20 56  1  0
 21 57  1  0
 21 58  1  0
 22 59  1  0
 22 60  1  0
 23 61  1  0
 23 62  1  0
 25 63  1  0
 25 64  1  0
 32 65  1  0
 33 66  1  0
 34 67  1  0
 35 68  1  0
M  END
$$$$
[H]c1c([H])c([H])c(Oc2c([H])c([H])c([H])c(Cl)c2C(=O)N([H])C([H])([H])[C@@]2([H])N([H])C([H])([H])C([H])([H])C2([H])[H])c([H])c1[H]
     RDKit          3D

 42 44  0  0  0  0  0  0  0  0999 V2000
    0.8622    3.1676    1.9157 Cl  0  0  0  0  0  0  0  0  0  0  0  0
   -0.5353    3.0599    0.8335 C   0  0  0  0  0  0  0  0  0  0  0  0
   -1.3050    4.1585    0.5847 C   0  0  0  0  0  0  0  0  0  0  0  0
   -2.3902    4.0810   -0.2538 C   0  0  0  0  0  0  0  0  0  0  0  0
   -2.7013    2.8963   -0.8396 C   0  0  0  0  0  0  0  0  0  0  0  0
   -1.9324    1.7346   -0.6070 C   0  0  0  0  0  0  0  0  0  0  0  0
   -2.3185    0.5600   -1.2351 O   0  0  0  0  0  0  0  0  0  0  0  0
   -2.8307   -0.5327   -0.5168 C   0  0  0  0  0  0  0  0  0  0  0  0
   -3.1152   -0.4118    0.8258 C   0  0  0  0  0  0  0  0  0  0  0  0
   -3.6210   -1.4972    1.5275 C   0  0  0  0  0  0  0  0  0  0  0  0
   -3.8262   -2.6714    0.8606 C   0  0  0  0  0  0  0  0  0  0  0  0
   -3.5414   -2.7861   -0.4760 C   0  0  0  0  0  0  0  0  0  0  0  0
   -3.0459   -1.7176   -1.1564 C   0  0  0  0  0  0  0  0  0  0  0  0
   -0.8557    1.8503    0.2301 C   0  0  0  0  0  0  0  0  0  0  0  0
    0.0426    0.7377    0.5280 C   0  0  0  0  0  0  0  0  0  0  0  0
    0.5219    0.7236    1.7090 O   0  0  0  0  0  0  0  0  0  0  0  0
    0.3711   -0.2483   -0.4126 N   0  0  0  0  0  0  0  0  0  0  0  0
    1.2537   -1.3203   -0.0773 C   0  0  0  0  0  0  0  0  0  0  0  0
    2.6176   -0.8255    0.3005 C   0  0  2  0  0  0  0  0  0  0  0  0
    3.2601   -0.0473   -0.8321 C   0  0  0  0  0  0  0  0  0  0  0  0
    4.7324   -0.2271   -0.5201 C   0  0  0  0  0  0  0  0  0  0  0  0
    4.8117   -1.5855    0.1607 C   0  0  0  0  0  0  0  0  0  0  0  0
    3.4668   -2.0200    0.3801 N   0  0  0  0  0  0  0  0  0  0  0  0
   -1.0388    5.0908    1.0643 H   0  0  0  0  0  0  0  0  0  0  0  0
   -2.9674    4.9728   -0.4224 H   0  0  0  0  0  0  0  0  0  0  0  0
   -3.5403    2.7961   -1.4997 H   0  0  0  0  0  0  0  0  0  0  0  0
   -2.9694    0.4877    1.3765 H   0  0  0  0  0  0  0  0  0  0  0  0
   -3.8416   -1.4030    2.5694 H   0  0  0  0  0  0  0  0  0  0  0  0
   -4.2224   -3.5359    1.3914 H   0  0  0  0  0  0  0  0  0  0  0  0
   -3.7044   -3.7161   -1.0024 H   0  0  0  0  0  0  0  0  0  0  0  0
   -2.8076   -1.7657   -2.2121 H   0  0  0  0  0  0  0  0  0  0  0  0
    0.0099   -0.2250   -1.3925 H   0  0  0  0  0  0  0  0  0  0  0  0
    0.8293   -1.7987    0.8546 H   0  0  0  0  0  0  0  0  0  0  0  0
    1.3117   -2.1083   -0.8549 H   0  0  0  0  0  0  0  0  0  0  0  0
    2.6441   -0.2843    1.2581 H   0  0  0  0  0  0  0  0  0  0  0  0
    2.9903    1.0147   -0.8163 H   0  0  0  0  0  0  0  0  0  0  0  0
    3.0037   -0.5448   -1.7718 H   0  0  0  0  0  0  0  0  0  0  0  0
    5.2915   -0.2551   -1.4569 H   0  0  0  0  0  0  0  0  0  0  0  0
    5.1180    0.5451    0.1756 H   0  0  0  0  0  0  0  0  0  0  0  0
    5.2880   -2.3220   -0.5446 H   0  0  0  0  0  0  0  0  0  0  0  0
    5.3606   -1.5487    1.1155 H   0  0  0  0  0  0  0  0  0  0  0  0
    3.3235   -2.4782    1.2970 H   0  0  0  0  0  0  0  0  0  0  0  0
  1  2  1  0
  2  3  2  0
  3  4  1  0
  4  5  2  0
  5  6  1  0
  6  7  1  0
  7  8  1  0
  8  9  2  0
  9 10  1  0
 10 11  2  0
 11 12  1  0
 12 13  2  0
  6 14  2  0
 14 15  1  0
 15 16  2  0
 15 17  1  0
 17 18  1  0
 18 19  1  0
 19 20  1  0
 20 21  1  0
 21 22  1  0
 22 23  1  0
 14  2  1  0
 23 19  1  0
 13  8  1  0
  3 24  1  0
  4 25  1  0
  5 26  1  0
  9 27  1  0
 10 28  1  0
 11 29  1  0
 12 30  1  0
 13 31  1  0
 17 32  1  0
 18 33  1  0
 18 34  1  0
 19 35  1  1
 20 36  1  0
 20 37  1  0
 21 38  1  0
 21 39  1  0
 22 40  1  0
 22 41  1  0
 23 42  1  0
M  END
$$$$
[H]c1nc([H])c([H])c(-c2c([H])c(C([H])([H])C([H])([H])[H])c([H])c([H])c2C([H])([H])N(C([H])([H])[H])C([H])([H])c2c([H])c([H])c(C(=O)N([H])S(=O)(=O)c3c([H])c([H])c(C([H])([H])[H])c([H])c3[H])c([H])c2[H])c1[H]
     RDKit          3D

 68 71  0  0  0  0  0  0  0  0999 V2000
   -7.4227    3.1786   -1.7455 C   0  0  0  0  0  0  0  0  0  0  0  0
   -7.1244    2.9089   -0.2929 C   0  0  0  0  0  0  0  0  0  0  0  0
   -6.1298    1.8152   -0.1597 C   0  0  0  0  0  0  0  0  0  0  0  0
   -4.7968    2.1508   -0.1328 C   0  0  0  0  0  0  0  0  0  0  0  0
   -3.8260    1.1687   -0.0105 C   0  0  0  0  0  0  0  0  0  0  0  0
   -4.1584   -0.1742    0.0871 C   0  0  0  0  0  0  0  0  0  0  0  0
   -3.1455   -1.2416    0.2269 C   0  0  0  0  0  0  0  0  0  0  0  0
   -1.8329   -0.7925    0.1577 N   0  0  0  0  0  0  0  0  0  0  0  0
   -1.2940   -0.2732   -1.0187 C   0  0  0  0  0  0  0  0  0  0  0  0
   -1.0366   -0.8450    1.3253 C   0  0  0  0  0  0  0  0  0  0  0  0
    0.3417   -0.3506    1.1246 C   0  0  0  0  0  0  0  0  0  0  0  0
    0.7264    0.9619    1.2748 C   0  0  0  0  0  0  0  0  0  0  0  0
    2.0457    1.3771    1.0759 C   0  0  0  0  0  0  0  0  0  0  0  0
    3.0278    0.4796    0.7169 C   0  0  0  0  0  0  0  0  0  0  0  0
    2.6328   -0.8485    0.5663 C   0  0  0  0  0  0  0  0  0  0  0  0
    1.3324   -1.2446    0.7645 C   0  0  0  0  0  0  0  0  0  0  0  0
    4.4238    0.8644    0.4920 C   0  0  0  0  0  0  0  0  0  0  0  0
    5.2586   -0.0607    0.3454 O   0  0  0  0  0  0  0  0  0  0  0  0
    4.7996    2.2284    0.4441 N   0  0  0  0  0  0  0  0  0  0  0  0
    6.4391    2.6880    0.1804 S   0  0  0  0  0  0  0  0  0  0  0  0
    6.8957    3.5897    1.3109 O   0  0  0  0  0  0  0  0  0  0  0  0
    6.4587    3.5439   -1.0657 O   0  0  0  0  0  0  0  0  0  0  0  0
    7.5151    1.3270    0.0264 C   0  0  0  0  0  0  0  0  0  0  0  0
    8.1384    0.7637    1.1349 C   0  0  0  0  0  0  0  0  0  0  0  0
    8.9943   -0.3114    1.0129 C   0  0  0  0  0  0  0  0  0  0  0  0
    9.2735   -0.8800   -0.2129 C   0  0  0  0  0  0  0  0  0  0  0  0
   10.1997   -2.0388   -0.3265 C   0  0  0  0  0  0  0  0  0  0  0  0
    8.6604   -0.3286   -1.3179 C   0  0  0  0  0  0  0  0  0  0  0  0
    7.8054    0.7456   -1.1942 C   0  0  0  0  0  0  0  0  0  0  0  0
   -5.5147   -0.4949    0.0587 C   0  0  0  0  0  0  0  0  0  0  0  0
   -6.4971    0.4995   -0.0648 C   0  0  0  0  0  0  0  0  0  0  0  0
   -5.9231   -1.8832    0.1766 C   0  0  0  0  0  0  0  0  0  0  0  0
   -5.7459   -2.6013    1.3298 C   0  0  0  0  0  0  0  0  0  0  0  0
   -6.1368   -3.9461    1.3949 C   0  0  0  0  0  0  0  0  0  0  0  0
   -6.6878   -4.5223    0.3127 N   0  0  0  0  0  0  0  0  0  0  0  0
   -6.8715   -3.8227   -0.8409 C   0  0  0  0  0  0  0  0  0  0  0  0
   -6.4945   -2.5027   -0.9249 C   0  0  0  0  0  0  0  0  0  0  0  0
   -6.5986    3.7825   -2.2058 H   0  0  0  0  0  0  0  0  0  0  0  0
   -8.3614    3.7679   -1.8327 H   0  0  0  0  0  0  0  0  0  0  0  0
   -7.4532    2.2300   -2.3231 H   0  0  0  0  0  0  0  0  0  0  0  0
   -6.7135    3.8499    0.1525 H   0  0  0  0  0  0  0  0  0  0  0  0
   -8.0746    2.6550    0.2274 H   0  0  0  0  0  0  0  0  0  0  0  0
   -4.4784    3.2003   -0.2071 H   0  0  0  0  0  0  0  0  0  0  0  0
   -2.7784    1.4685    0.0251 H   0  0  0  0  0  0  0  0  0  0  0  0
   -3.2897   -1.7829    1.2085 H   0  0  0  0  0  0  0  0  0  0  0  0
   -3.3347   -1.9776   -0.5988 H   0  0  0  0  0  0  0  0  0  0  0  0
   -0.7270    0.6737   -0.9288 H   0  0  0  0  0  0  0  0  0  0  0  0
   -2.1187   -0.0558   -1.7339 H   0  0  0  0  0  0  0  0  0  0  0  0
   -0.5714   -1.0093   -1.4732 H   0  0  0  0  0  0  0  0  0  0  0  0
   -1.5606   -0.2908    2.1462 H   0  0  0  0  0  0  0  0  0  0  0  0
   -1.0392   -1.9141    1.6834 H   0  0  0  0  0  0  0  0  0  0  0  0
   -0.0427    1.6868    1.5600 H   0  0  0  0  0  0  0  0  0  0  0  0
    2.2814    2.4149    1.2103 H   0  0  0  0  0  0  0  0  0  0  0  0
    3.4034   -1.5553    0.2840 H   0  0  0  0  0  0  0  0  0  0  0  0
    1.0515   -2.3018    0.6371 H   0  0  0  0  0  0  0  0  0  0  0  0
    4.0889    2.9774    0.5660 H   0  0  0  0  0  0  0  0  0  0  0  0
    7.9111    1.2195    2.0940 H   0  0  0  0  0  0  0  0  0  0  0  0
    9.4769   -0.7436    1.8884 H   0  0  0  0  0  0  0  0  0  0  0  0
   10.1932   -2.5649    0.6487 H   0  0  0  0  0  0  0  0  0  0  0  0
   11.2255   -1.7500   -0.5834 H   0  0  0  0  0  0  0  0  0  0  0  0
    9.8057   -2.7898   -1.0691 H   0  0  0  0  0  0  0  0  0  0  0  0
    8.8642   -0.7579   -2.2897 H   0  0  0  0  0  0  0  0  0  0  0  0
    7.3133    1.1907   -2.0635 H   0  0  0  0  0  0  0  0  0  0  0  0
   -7.5355    0.2013   -0.0821 H   0  0  0  0  0  0  0  0  0  0  0  0
   -5.3254   -2.1874    2.2267 H   0  0  0  0  0  0  0  0  0  0  0  0
   -6.0036   -4.5221    2.2951 H   0  0  0  0  0  0  0  0  0  0  0  0
   -7.3171   -4.3272   -1.6812 H   0  0  0  0  0  0  0  0  0  0  0  0
   -6.6220   -1.9157   -1.8136 H   0  0  0  0  0  0  0  0  0  0  0  0
  1  2  1  0
  2  3  1  0
  3  4  2  0
  4  5  1  0
  5  6  2  0
  6  7  1  0
  7  8  1  0
  8  9  1  0
  8 10  1  0
 10 11  1  0
 11 12  2  0
 12 13  1  0
 13 14  2  0
 14 15  1  0
 15 16  2  0
 14 17  1  0
 17 18  2  0
 17 19  1  0
 19 20  1  0
 20 21  2  0
 20 22  2  0
 20 23  1  0
 23 24  2  0
 24 25  1  0
 25 26  2  0
 26 27  1  0
 26 28  1  0
 28 29  2  0
  6 30  1  0
 30 31  2  0
 30 32  1  0
 32 33  2  0
 33 34  1  0
 34 35  2  0
 35 36  1  0
 36 37  2  0
 31  3  1  0
 37 32  1  0
 16 11  1  0
 29 23  1  0
  1 38  1  0
  1 39  1  0
  1 40  1  0
  2 41  1  0
  2 42  1  0
  4 43  1  0
  5 44  1  0
  7 45  1  0
  7 46  1  0
  9 47  1  0
  9 48  1  0
  9 49  1  0
 10 50  1  0
 10 51  1  0
 12 52  1  0
 13 53  1  0
 15 54  1  0
 16 55  1  0
 19 56  1  0
 24 57  1  0
 25 58  1  0
 27 59  1  0
 27 60  1  0
 27 61  1  0
 28 62  1  0
 29 63  1  0
 31 64  1  0
 33 65  1  0
 34 66  1  0
 36 67  1  0
 37 68  1  0
M  END
$$$$
[H]OC(=O)C([H])([H])C1(N([H])C([H])([H])C([H])([H])[H])OC(O[H])(C([H])(O[H])c2c([H])c([H])c([H])c([H])c2[H])C([H])(O[H])C1([H])[H]
     RDKit          3D

 43 44  0  0  0  0  0  0  0  0999 V2000
   -3.7948   -1.1517    1.6215 C   0  0  0  0  0  0  0  0  0  0  0  0
   -2.5320   -1.7221    1.0625 C   0  0  0  0  0  0  0  0  0  0  0  0
   -2.1785   -1.2006   -0.1776 N   0  0  0  0  0  0  0  0  0  0  0  0
   -1.6911    0.0829   -0.4059 C   0  0  0  0  0  0  0  0  0  0  0  0
   -2.5803    1.2411   -0.0765 C   0  0  0  0  0  0  0  0  0  0  0  0
   -1.9970    2.5500   -0.3737 C   0  0  0  0  0  0  0  0  0  0  0  0
   -1.3416    3.2591    0.6209 O   0  0  0  0  0  0  0  0  0  0  0  0
   -2.0804    3.0451   -1.5161 O   0  0  0  0  0  0  0  0  0  0  0  0
   -0.3732    0.2845    0.0763 O   0  0  0  0  0  0  0  0  0  0  0  0
    0.4409   -0.5976   -0.5717 C   0  0  0  0  0  0  0  0  0  0  0  0
    0.5698   -1.7573    0.1855 O   0  0  0  0  0  0  0  0  0  0  0  0
   -0.2439   -0.9344   -1.9060 C   0  0  0  0  0  0  0  0  0  0  0  0
   -0.7082   -2.2196   -1.9020 O   0  0  0  0  0  0  0  0  0  0  0  0
   -1.3284    0.1285   -1.9151 C   0  0  0  0  0  0  0  0  0  0  0  0
    1.8036   -0.1114   -0.9359 C   0  0  0  0  0  0  0  0  0  0  0  0
    1.8143    0.9901   -1.7944 O   0  0  0  0  0  0  0  0  0  0  0  0
    2.7270    0.1864    0.1668 C   0  0  0  0  0  0  0  0  0  0  0  0
    2.4794    0.0613    1.4992 C   0  0  0  0  0  0  0  0  0  0  0  0
    3.4423    0.3566    2.4708 C   0  0  0  0  0  0  0  0  0  0  0  0
    4.6894    0.7911    2.0723 C   0  0  0  0  0  0  0  0  0  0  0  0
    4.9604    0.9254    0.7276 C   0  0  0  0  0  0  0  0  0  0  0  0
    3.9949    0.6285   -0.2213 C   0  0  0  0  0  0  0  0  0  0  0  0
   -4.4347   -0.7111    0.8125 H   0  0  0  0  0  0  0  0  0  0  0  0
   -3.6736   -0.4092    2.4247 H   0  0  0  0  0  0  0  0  0  0  0  0
   -4.4094   -1.9801    2.0531 H   0  0  0  0  0  0  0  0  0  0  0  0
   -2.7472   -2.8412    0.9438 H   0  0  0  0  0  0  0  0  0  0  0  0
   -1.7244   -1.7240    1.8365 H   0  0  0  0  0  0  0  0  0  0  0  0
   -2.8359   -1.4898   -0.9378 H   0  0  0  0  0  0  0  0  0  0  0  0
   -3.5455    1.1006   -0.5749 H   0  0  0  0  0  0  0  0  0  0  0  0
   -2.7955    1.1792    1.0249 H   0  0  0  0  0  0  0  0  0  0  0  0
   -1.8159    4.0774    1.0415 H   0  0  0  0  0  0  0  0  0  0  0  0
    0.5244   -2.5506   -0.3678 H   0  0  0  0  0  0  0  0  0  0  0  0
    0.4266   -0.8156   -2.7724 H   0  0  0  0  0  0  0  0  0  0  0  0
   -1.1667   -2.4719   -2.7144 H   0  0  0  0  0  0  0  0  0  0  0  0
   -0.8420    1.0635   -2.1828 H   0  0  0  0  0  0  0  0  0  0  0  0
   -2.1835   -0.1859   -2.5246 H   0  0  0  0  0  0  0  0  0  0  0  0
    2.2947   -0.9540   -1.5176 H   0  0  0  0  0  0  0  0  0  0  0  0
    2.3792    0.8343   -2.5920 H   0  0  0  0  0  0  0  0  0  0  0  0
    1.5230   -0.2689    1.8350 H   0  0  0  0  0  0  0  0  0  0  0  0
    3.2483    0.2536    3.5152 H   0  0  0  0  0  0  0  0  0  0  0  0
    5.4709    1.0300    2.7872 H   0  0  0  0  0  0  0  0  0  0  0  0
    5.9471    1.2676    0.4521 H   0  0  0  0  0  0  0  0  0  0  0  0
    4.2876    0.7606   -1.2495 H   0  0  0  0  0  0  0  0  0  0  0  0
  1  2  1  0
  2  3  1  0
  3  4  1  0
  4  5  1  0
  5  6  1  0
  6  7  1  0
  6  8  2  0
  4  9  1  0
  9 10  1  0
 10 11  1  0
 10 12  1  0
 12 13  1  0
 12 14  1  0
 10 15  1  0
 15 16  1  0
 15 17  1  0
 17 18  2  0
 18 19  1  0
 19 20  2  0
 20 21  1  0
 21 22  2  0
 14  4  1  0
 22 17  1  0
  1 23  1  0
  1 24  1  0
  1 25  1  0
  2 26  1  0
  2 27  1  0
  3 28  1  0
  5 29  1  0
  5 30  1  0
  7 31  1  0
 11 32  1  0
 12 33  1  0
 13 34  1  0
 14 35  1  0
 14 36  1  0
 15 37  1  0
 16 38  1  0
 18 39  1  0
 19 40  1  0
 20 41  1  0
 21 42  1  0
 22 43  1  0
M  END
$$$$
[H]OP(=O)(O[H])OC(C([H])([H])[H])(C([H])([H])[H])[C@]([H])(c1c([H])c([H])c([H])c([H])c1[H])C([H])([H])c1c([H])c([H])c(C2([H])C([H])([H])C([H])([H])C([H])([H])C([H])([H])C2([H])[H])c([H])c1[H]
     RDKit          3D

 59 61  0  0  0  0  0  0  0  0999 V2000
   -3.9451    1.1964   -2.0925 C   0  0  0  0  0  0  0  0  0  0  0  0
   -3.6538   -0.0940   -1.4402 C   0  0  0  0  0  0  0  0  0  0  0  0
   -3.7109   -1.2216   -2.4845 C   0  0  0  0  0  0  0  0  0  0  0  0
   -4.5577   -0.3300   -0.4157 O   0  0  0  0  0  0  0  0  0  0  0  0
   -6.1527   -0.4173   -0.8505 P   0  0  0  0  0  0  0  0  0  0  0  0
   -6.5597   -1.9760   -1.4202 O   0  0  0  0  0  0  0  0  0  0  0  0
   -7.0702   -0.2365    0.5890 O   0  0  0  0  0  0  0  0  0  0  0  0
   -6.6332    0.6467   -1.7778 O   0  0  0  0  0  0  0  0  0  0  0  0
   -2.2836   -0.2234   -0.8035 C   0  0  1  0  0  0  0  0  0  0  0  0
   -1.1650   -0.0481   -1.7716 C   0  0  0  0  0  0  0  0  0  0  0  0
    0.1873   -0.1725   -1.1866 C   0  0  0  0  0  0  0  0  0  0  0  0
    0.7984   -1.4219   -1.0692 C   0  0  0  0  0  0  0  0  0  0  0  0
    2.0646   -1.5543   -0.5367 C   0  0  0  0  0  0  0  0  0  0  0  0
    2.7758   -0.4652   -0.1006 C   0  0  0  0  0  0  0  0  0  0  0  0
    2.1878    0.7739   -0.2094 C   0  0  0  0  0  0  0  0  0  0  0  0
    0.9078    0.9115   -0.7474 C   0  0  0  0  0  0  0  0  0  0  0  0
    4.1527   -0.5988    0.4798 C   0  0  0  0  0  0  0  0  0  0  0  0
    4.2124   -0.0834    1.8933 C   0  0  0  0  0  0  0  0  0  0  0  0
    5.5724   -0.4514    2.4497 C   0  0  0  0  0  0  0  0  0  0  0  0
    6.7046    0.0412    1.5971 C   0  0  0  0  0  0  0  0  0  0  0  0
    6.5349   -0.2431    0.1378 C   0  0  0  0  0  0  0  0  0  0  0  0
    5.1470    0.1709   -0.3412 C   0  0  0  0  0  0  0  0  0  0  0  0
   -2.1553    0.4488    0.4895 C   0  0  0  0  0  0  0  0  0  0  0  0
   -1.9280   -0.2108    1.6924 C   0  0  0  0  0  0  0  0  0  0  0  0
   -1.8209    0.4321    2.8894 C   0  0  0  0  0  0  0  0  0  0  0  0
   -1.9373    1.7922    2.9492 C   0  0  0  0  0  0  0  0  0  0  0  0
   -2.1618    2.4858    1.7885 C   0  0  0  0  0  0  0  0  0  0  0  0
   -2.2662    1.8117    0.5901 C   0  0  0  0  0  0  0  0  0  0  0  0
   -3.0671    1.7461   -2.4863 H   0  0  0  0  0  0  0  0  0  0  0  0
   -4.5495    1.9050   -1.4939 H   0  0  0  0  0  0  0  0  0  0  0  0
   -4.5574    0.9815   -3.0190 H   0  0  0  0  0  0  0  0  0  0  0  0
   -3.2464   -2.1390   -2.1143 H   0  0  0  0  0  0  0  0  0  0  0  0
   -3.0842   -0.8355   -3.3422 H   0  0  0  0  0  0  0  0  0  0  0  0
   -4.7166   -1.3362   -2.9099 H   0  0  0  0  0  0  0  0  0  0  0  0
   -5.9538   -2.6078   -0.9484 H   0  0  0  0  0  0  0  0  0  0  0  0
   -7.2704    0.7393    0.7272 H   0  0  0  0  0  0  0  0  0  0  0  0
   -2.2519   -1.3436   -0.5522 H   0  0  0  0  0  0  0  0  0  0  0  0
   -1.2234    0.9180   -2.3556 H   0  0  0  0  0  0  0  0  0  0  0  0
   -1.1983   -0.8338   -2.5861 H   0  0  0  0  0  0  0  0  0  0  0  0
    0.2120   -2.2601   -1.4218 H   0  0  0  0  0  0  0  0  0  0  0  0
    2.5195   -2.5448   -0.4565 H   0  0  0  0  0  0  0  0  0  0  0  0
    2.7160    1.6430    0.1216 H   0  0  0  0  0  0  0  0  0  0  0  0
    0.4940    1.9138   -0.8176 H   0  0  0  0  0  0  0  0  0  0  0  0
    4.4754   -1.6579    0.4950 H   0  0  0  0  0  0  0  0  0  0  0  0
    3.4590   -0.5740    2.5471 H   0  0  0  0  0  0  0  0  0  0  0  0
    4.1419    1.0184    1.9034 H   0  0  0  0  0  0  0  0  0  0  0  0
    5.7336   -0.0585    3.4740 H   0  0  0  0  0  0  0  0  0  0  0  0
    5.6726   -1.5635    2.5104 H   0  0  0  0  0  0  0  0  0  0  0  0
    6.9288    1.1121    1.7285 H   0  0  0  0  0  0  0  0  0  0  0  0
    7.6229   -0.5232    1.9298 H   0  0  0  0  0  0  0  0  0  0  0  0
    6.6208   -1.3283   -0.1046 H   0  0  0  0  0  0  0  0  0  0  0  0
    7.2529    0.3388   -0.4445 H   0  0  0  0  0  0  0  0  0  0  0  0
    4.9746    1.2594   -0.1510 H   0  0  0  0  0  0  0  0  0  0  0  0
    5.0682   -0.0795   -1.4117 H   0  0  0  0  0  0  0  0  0  0  0  0
   -1.8360   -1.3016    1.6349 H   0  0  0  0  0  0  0  0  0  0  0  0
   -1.6429   -0.1833    3.7663 H   0  0  0  0  0  0  0  0  0  0  0  0
   -1.8467    2.2759    3.9227 H   0  0  0  0  0  0  0  0  0  0  0  0
   -2.2533    3.5566    1.8371 H   0  0  0  0  0  0  0  0  0  0  0  0
   -2.4386    2.4116   -0.2807 H   0  0  0  0  0  0  0  0  0  0  0  0
  1  2  1  0
  2  3  1  0
  2  4  1  0
  4  5  1  0
  5  6  1  0
  5  7  1  0
  5  8  2  0
  2  9  1  0
  9 10  1  0
 10 11  1  0
 11 12  2  0
 12 13  1  0
 13 14  2  0
 14 15  1  0
 15 16  2  0
 14 17  1  0
 17 18  1  0
 18 19  1  0
 19 20  1  0
 20 21  1  0
 21 22  1  0
  9 23  1  0
 23 24  2  0
 24 25  1  0
 25 26  2  0
 26 27  1  0
 27 28  2  0
 16 11  1  0
 22 17  1  0
 28 23  1  0
  1 29  1  0
  1 30  1  0
  1 31  1  0
  3 32  1  0
  3 33  1  0
  3 34  1  0
  6 35  1  0
  7 36  1  0
  9 37  1  1
 10 38  1  0
 10 39  1  0
 12 40  1  0
 13 41  1  0
 15 42  1  0
 16 43  1  0
 17 44  1  0
 18 45  1  0
 18 46  1  0
 19 47  1  0
 19 48  1  0
 20 49  1  0
 20 50  1  0
 21 51  1  0
 21 52  1  0
 22 53  1  0
 22 54  1  0
 24 55  1  0
 25 56  1  0
 26 57  1  0
 27 58  1  0
 28 59  1  0
M  END
$$$$
[H]N=C(N([H])[H])N([H])C([H])([H])C([H])([H])C([H])([H])[C@@]([H])(C(=O)c1nc2c([H])c([H])c([H])c([H])c2s1)N([H])C(=O)[C@@]([H])(N([H])C(=O)[C@@]([H])(N([H])C(=O)C([H])([H])[H])C([H])([H])C([H])([H])C([H])([H])C([H])([H])N([H])[H])C([H])([H])C([H])(C([H])([H])[H])C([H])([H])[H]
     RDKit          3D

 82 83  0  0  0  0  0  0  0  0999 V2000
    1.1865    4.8953   -3.5402 C   0  0  0  0  0  0  0  0  0  0  0  0
    1.7643    4.2078   -2.2872 C   0  0  0  0  0  0  0  0  0  0  0  0
    1.8532    5.2975   -1.2515 C   0  0  0  0  0  0  0  0  0  0  0  0
    0.8186    3.1052   -1.9588 C   0  0  0  0  0  0  0  0  0  0  0  0
    1.1763    2.2661   -0.7757 C   0  0  2  0  0  0  0  0  0  0  0  0
    2.4770    1.6154   -0.9618 N   0  0  0  0  0  0  0  0  0  0  0  0
    3.4489    1.5938    0.0359 C   0  0  0  0  0  0  0  0  0  0  0  0
    3.2447    2.1518    1.1276 O   0  0  0  0  0  0  0  0  0  0  0  0
    4.7731    0.8956   -0.1644 C   0  0  2  0  0  0  0  0  0  0  0  0
    4.7698    0.1862   -1.4606 C   0  0  0  0  0  0  0  0  0  0  0  0
    5.9293   -0.6361   -1.8616 C   0  0  0  0  0  0  0  0  0  0  0  0
    6.2464   -1.8778   -1.1229 C   0  0  0  0  0  0  0  0  0  0  0  0
    5.1843   -2.9312   -1.1975 C   0  0  0  0  0  0  0  0  0  0  0  0
    3.8931   -2.6121   -0.6913 N   0  0  0  0  0  0  0  0  0  0  0  0
    5.3120    0.2666    0.9627 N   0  0  0  0  0  0  0  0  0  0  0  0
    4.7004   -0.2604    2.1263 C   0  0  0  0  0  0  0  0  0  0  0  0
    5.5303   -0.8890    3.2160 C   0  0  0  0  0  0  0  0  0  0  0  0
    3.4723   -0.2527    2.3455 O   0  0  0  0  0  0  0  0  0  0  0  0
    0.1592    1.1551   -0.7447 C   0  0  0  0  0  0  0  0  0  0  0  0
    0.2848    0.1679   -1.5485 O   0  0  0  0  0  0  0  0  0  0  0  0
   -0.8940    1.2238    0.1586 N   0  0  0  0  0  0  0  0  0  0  0  0
   -1.9431    0.2014    0.2688 C   0  0  1  0  0  0  0  0  0  0  0  0
   -1.4886   -0.8246    1.3115 C   0  0  0  0  0  0  0  0  0  0  0  0
   -2.5463   -1.8852    1.4381 C   0  0  0  0  0  0  0  0  0  0  0  0
   -2.1400   -2.9397    2.4605 C   0  0  0  0  0  0  0  0  0  0  0  0
   -3.1602   -3.9480    2.5764 N   0  0  0  0  0  0  0  0  0  0  0  0
   -4.4403   -3.7529    3.1431 C   0  0  0  0  0  0  0  0  0  0  0  0
   -5.4305   -2.9845    2.5076 N   0  0  0  0  0  0  0  0  0  0  0  0
   -4.7044   -4.3086    4.2723 N   0  0  0  0  0  0  0  0  0  0  0  0
   -3.2283    0.7800    0.6265 C   0  0  0  0  0  0  0  0  0  0  0  0
   -3.2383    1.7518    1.4501 O   0  0  0  0  0  0  0  0  0  0  0  0
   -4.4788    0.2890    0.0785 C   0  0  0  0  0  0  0  0  0  0  0  0
   -5.6799    0.7454    0.4090 N   0  0  0  0  0  0  0  0  0  0  0  0
   -6.7473    0.2497   -0.1475 C   0  0  0  0  0  0  0  0  0  0  0  0
   -8.0781    0.6401    0.1197 C   0  0  0  0  0  0  0  0  0  0  0  0
   -9.0940    0.0204   -0.5415 C   0  0  0  0  0  0  0  0  0  0  0  0
   -8.9393   -0.9747   -1.4688 C   0  0  0  0  0  0  0  0  0  0  0  0
   -7.6481   -1.3655   -1.7400 C   0  0  0  0  0  0  0  0  0  0  0  0
   -6.5761   -0.7446   -1.0730 C   0  0  0  0  0  0  0  0  0  0  0  0
   -4.8719   -0.9034   -1.0809 S   0  0  0  0  0  0  0  0  0  0  0  0
    0.0836    4.9132   -3.4354 H   0  0  0  0  0  0  0  0  0  0  0  0
    1.5439    5.9185   -3.6635 H   0  0  0  0  0  0  0  0  0  0  0  0
    1.4087    4.2305   -4.4039 H   0  0  0  0  0  0  0  0  0  0  0  0
    2.7837    3.8837   -2.5662 H   0  0  0  0  0  0  0  0  0  0  0  0
    0.8334    5.6279   -0.9983 H   0  0  0  0  0  0  0  0  0  0  0  0
    2.3195    6.1759   -1.7925 H   0  0  0  0  0  0  0  0  0  0  0  0
    2.5093    5.0845   -0.4068 H   0  0  0  0  0  0  0  0  0  0  0  0
   -0.1795    3.5675   -1.7923 H   0  0  0  0  0  0  0  0  0  0  0  0
    0.7153    2.4640   -2.8556 H   0  0  0  0  0  0  0  0  0  0  0  0
    1.1704    2.7419    0.1949 H   0  0  0  0  0  0  0  0  0  0  0  0
    2.6229    1.1871   -1.8813 H   0  0  0  0  0  0  0  0  0  0  0  0
    5.4591    1.8623   -0.3759 H   0  0  0  0  0  0  0  0  0  0  0  0
    3.7870   -0.3502   -1.6435 H   0  0  0  0  0  0  0  0  0  0  0  0
    4.6925    0.9890   -2.3075 H   0  0  0  0  0  0  0  0  0  0  0  0
    5.8244   -0.9245   -2.9442 H   0  0  0  0  0  0  0  0  0  0  0  0
    6.8325    0.0398   -1.8343 H   0  0  0  0  0  0  0  0  0  0  0  0
    6.5977   -1.7582   -0.0824 H   0  0  0  0  0  0  0  0  0  0  0  0
    7.1704   -2.3484   -1.6263 H   0  0  0  0  0  0  0  0  0  0  0  0
    5.5446   -3.8281   -0.6304 H   0  0  0  0  0  0  0  0  0  0  0  0
    5.0586   -3.2124   -2.2774 H   0  0  0  0  0  0  0  0  0  0  0  0
    3.7612   -2.9055    0.3223 H   0  0  0  0  0  0  0  0  0  0  0  0
    3.1291   -3.0477   -1.2969 H   0  0  0  0  0  0  0  0  0  0  0  0
    6.3927    0.1904    0.9867 H   0  0  0  0  0  0  0  0  0  0  0  0
    6.5092   -0.3567    3.2889 H   0  0  0  0  0  0  0  0  0  0  0  0
    5.7567   -1.9479    2.9840 H   0  0  0  0  0  0  0  0  0  0  0  0
    5.0541   -0.8011    4.1915 H   0  0  0  0  0  0  0  0  0  0  0  0
   -0.9952    2.0209    0.8184 H   0  0  0  0  0  0  0  0  0  0  0  0
   -1.9717   -0.3507   -0.6737 H   0  0  0  0  0  0  0  0  0  0  0  0
   -0.6047   -1.3405    0.8397 H   0  0  0  0  0  0  0  0  0  0  0  0
   -1.2145   -0.3825    2.2667 H   0  0  0  0  0  0  0  0  0  0  0  0
   -3.5157   -1.4989    1.7459 H   0  0  0  0  0  0  0  0  0  0  0  0
   -2.6642   -2.4666    0.4836 H   0  0  0  0  0  0  0  0  0  0  0  0
   -1.2022   -3.4514    2.1081 H   0  0  0  0  0  0  0  0  0  0  0  0
   -1.9425   -2.4938    3.4500 H   0  0  0  0  0  0  0  0  0  0  0  0
   -2.9807   -4.9382    2.2172 H   0  0  0  0  0  0  0  0  0  0  0  0
   -5.8623   -3.3194    1.6119 H   0  0  0  0  0  0  0  0  0  0  0  0
   -5.7373   -2.0856    2.9190 H   0  0  0  0  0  0  0  0  0  0  0  0
   -4.0358   -4.9048    4.8149 H   0  0  0  0  0  0  0  0  0  0  0  0
   -8.3110    1.4148    0.8318 H   0  0  0  0  0  0  0  0  0  0  0  0
  -10.1237    0.3418   -0.3149 H   0  0  0  0  0  0  0  0  0  0  0  0
   -9.7514   -1.4268   -1.9591 H   0  0  0  0  0  0  0  0  0  0  0  0
   -7.3650   -2.1290   -2.4393 H   0  0  0  0  0  0  0  0  0  0  0  0
  1  2  1  0
  2  3  1  0
  2  4  1  0
  4  5  1  0
  5  6  1  0
  6  7  1  0
  7  8  2  0
  7  9  1  0
  9 10  1  0
 10 11  1  0
 11 12  1  0
 12 13  1  0
 13 14  1  0
  9 15  1  0
 15 16  1  0
 16 17  1  0
 16 18  2  0
  5 19  1  0
 19 20  2  0
 19 21  1  0
 21 22  1  0
 22 23  1  0
 23 24  1  0
 24 25  1  0
 25 26  1  0
 26 27  1  0
 27 28  1  0
 27 29  2  3
 22 30  1  0
 30 31  2  0
 30 32  1  0
 32 33  2  0
 33 34  1  0
 34 35  2  0
 35 36  1  0
 36 37  2  0
 37 38  1  0
 38 39  2  0
 39 40  1  0
 40 32  1  0
 39 34  1  0
  1 41  1  0
  1 42  1  0
  1 43  1  0
  2 44  1  0
  3 45  1  0
  3 46  1  0
  3 47  1  0
  4 48  1  0
  4 49  1  0
  5 50  1  1
  6 51  1  0
  9 52  1  6
 10 53  1  0
 10 54  1  0
 11 55  1  0
 11 56  1  0
 12 57  1  0
 12 58  1  0
 13 59  1  0
 13 60  1  0
 14 61  1  0
 14 62  1  0
 15 63  1  0
 17 64  1  0
 17 65  1  0
 17 66  1  0
 21 67  1  0
 22 68  1  6
 23 69  1  0
 23 70  1  0
 24 71  1  0
 24 72  1  0
 25 73  1  0
 25 74  1  0
 26 75  1  0
 28 76  1  0
 28 77  1  0
 29 78  1  0
 35 79  1  0
 36 80  1  0
 37 81  1  0
 38 82  1  0
M  END
$$$$
[H]OC(=O)c1c([H])c([H])c(C([H])([H])N2C([H])([H])C([H])([H])C3(OC(=O)N(c4c([H])c([H])c(-c5c([H])c([H])c([H])c([H])c5[H])c([H])c4[H])C3([H])[H])C([H])([H])C2([H])[H])c([H])c1[H]
     RDKit          3D

 59 63  0  0  0  0  0  0  0  0999 V2000
   -9.9192    0.1343    0.1617 O   0  0  0  0  0  0  0  0  0  0  0  0
   -9.1383   -0.3648   -0.8516 C   0  0  0  0  0  0  0  0  0  0  0  0
   -9.6240   -0.5641   -1.9785 O   0  0  0  0  0  0  0  0  0  0  0  0
   -7.7394   -0.6569   -0.5926 C   0  0  0  0  0  0  0  0  0  0  0  0
   -7.1752   -0.4473    0.6556 C   0  0  0  0  0  0  0  0  0  0  0  0
   -5.8447   -0.7290    0.8880 C   0  0  0  0  0  0  0  0  0  0  0  0
   -5.0156   -1.2253   -0.0876 C   0  0  0  0  0  0  0  0  0  0  0  0
   -3.6098   -1.5213    0.1713 C   0  0  0  0  0  0  0  0  0  0  0  0
   -2.6966   -0.4414   -0.0192 N   0  0  0  0  0  0  0  0  0  0  0  0
   -2.9136    0.7072    0.8026 C   0  0  0  0  0  0  0  0  0  0  0  0
   -1.5647    1.3815    1.0811 C   0  0  0  0  0  0  0  0  0  0  0  0
   -0.7368    1.3567   -0.1738 C   0  0  0  0  0  0  0  0  0  0  0  0
    0.3891    0.3813   -0.0773 C   0  0  0  0  0  0  0  0  0  0  0  0
    1.5740    1.1608   -0.2972 N   0  0  0  0  0  0  0  0  0  0  0  0
    1.1901    2.4354   -0.7661 C   0  0  0  0  0  0  0  0  0  0  0  0
    1.8286    3.2826   -1.4400 O   0  0  0  0  0  0  0  0  0  0  0  0
   -0.1135    2.6309   -0.3330 O   0  0  0  0  0  0  0  0  0  0  0  0
    2.9487    0.7650   -0.0990 C   0  0  0  0  0  0  0  0  0  0  0  0
    3.8195    0.6152   -1.1579 C   0  0  0  0  0  0  0  0  0  0  0  0
    5.1443    0.2319   -0.9482 C   0  0  0  0  0  0  0  0  0  0  0  0
    5.6242   -0.0086    0.3243 C   0  0  0  0  0  0  0  0  0  0  0  0
    4.7488    0.1426    1.3760 C   0  0  0  0  0  0  0  0  0  0  0  0
    3.4400    0.5214    1.1657 C   0  0  0  0  0  0  0  0  0  0  0  0
    7.0140   -0.4104    0.5409 C   0  0  0  0  0  0  0  0  0  0  0  0
    7.6581   -0.0417    1.7054 C   0  0  0  0  0  0  0  0  0  0  0  0
    8.9620   -0.3735    1.9927 C   0  0  0  0  0  0  0  0  0  0  0  0
    9.6545   -1.1140    1.0630 C   0  0  0  0  0  0  0  0  0  0  0  0
    9.0248   -1.4963   -0.1174 C   0  0  0  0  0  0  0  0  0  0  0  0
    7.7174   -1.1503   -0.3813 C   0  0  0  0  0  0  0  0  0  0  0  0
   -1.5718    1.1414   -1.4148 C   0  0  0  0  0  0  0  0  0  0  0  0
   -2.3681   -0.1376   -1.3756 C   0  0  0  0  0  0  0  0  0  0  0  0
   -5.5821   -1.4311   -1.3255 C   0  0  0  0  0  0  0  0  0  0  0  0
   -6.9064   -1.1586   -1.5845 C   0  0  0  0  0  0  0  0  0  0  0  0
  -10.4114   -0.4300    0.8510 H   0  0  0  0  0  0  0  0  0  0  0  0
   -7.8060   -0.0583    1.4420 H   0  0  0  0  0  0  0  0  0  0  0  0
   -5.4897   -0.5296    1.9089 H   0  0  0  0  0  0  0  0  0  0  0  0
   -3.2264   -2.3716   -0.4657 H   0  0  0  0  0  0  0  0  0  0  0  0
   -3.4351   -1.8977    1.2215 H   0  0  0  0  0  0  0  0  0  0  0  0
   -3.2691    0.3630    1.7947 H   0  0  0  0  0  0  0  0  0  0  0  0
   -3.5660    1.4201    0.3025 H   0  0  0  0  0  0  0  0  0  0  0  0
   -1.6919    2.3864    1.4920 H   0  0  0  0  0  0  0  0  0  0  0  0
   -1.0395    0.7728    1.8707 H   0  0  0  0  0  0  0  0  0  0  0  0
    0.4330   -0.1159    0.9197 H   0  0  0  0  0  0  0  0  0  0  0  0
    0.3365   -0.3654   -0.9012 H   0  0  0  0  0  0  0  0  0  0  0  0
    3.4418    0.8053   -2.1690 H   0  0  0  0  0  0  0  0  0  0  0  0
    5.8306    0.1130   -1.7748 H   0  0  0  0  0  0  0  0  0  0  0  0
    5.1418   -0.0513    2.3861 H   0  0  0  0  0  0  0  0  0  0  0  0
    2.7664    0.6332    2.0265 H   0  0  0  0  0  0  0  0  0  0  0  0
    7.1344    0.5425    2.4513 H   0  0  0  0  0  0  0  0  0  0  0  0
    9.4456   -0.0640    2.9294 H   0  0  0  0  0  0  0  0  0  0  0  0
   10.6714   -1.4038    1.2310 H   0  0  0  0  0  0  0  0  0  0  0  0
    9.5997   -2.0754   -0.8248 H   0  0  0  0  0  0  0  0  0  0  0  0
    7.2041   -1.4324   -1.2876 H   0  0  0  0  0  0  0  0  0  0  0  0
   -2.2098    2.0203   -1.5496 H   0  0  0  0  0  0  0  0  0  0  0  0
   -0.8420    1.0855   -2.2664 H   0  0  0  0  0  0  0  0  0  0  0  0
   -3.2357   -0.0764   -2.0558 H   0  0  0  0  0  0  0  0  0  0  0  0
   -1.7158   -0.9503   -1.7702 H   0  0  0  0  0  0  0  0  0  0  0  0
   -4.9419   -1.8235   -2.1111 H   0  0  0  0  0  0  0  0  0  0  0  0
   -7.3429   -1.3231   -2.5579 H   0  0  0  0  0  0  0  0  0  0  0  0
  1  2  1  0
  2  3  2  0
  2  4  1  0
  4  5  2  0
  5  6  1  0
  6  7  2  0
  7  8  1  0
  8  9  1  0
  9 10  1  0
 10 11  1  0
 11 12  1  0
 12 13  1  0
 13 14  1  0
 14 15  1  0
 15 16  2  0
 15 17  1  0
 14 18  1  0
 18 19  2  0
 19 20  1  0
 20 21  2  0
 21 22  1  0
 22 23  2  0
 21 24  1  0
 24 25  2  0
 25 26  1  0
 26 27  2  0
 27 28  1  0
 28 29  2  0
 12 30  1  0
 30 31  1  0
  7 32  1  0
 32 33  2  0
 33  4  1  0
 31  9  1  0
 17 12  1  0
 23 18  1  0
 29 24  1  0
  1 34  1  0
  5 35  1  0
  6 36  1  0
  8 37  1  0
  8 38  1  0
 10 39  1  0
 10 40  1  0
 11 41  1  0
 11 42  1  0
 13 43  1  0
 13 44  1  0
 19 45  1  0
 20 46  1  0
 22 47  1  0
 23 48  1  0
 25 49  1  0
 26 50  1  0
 27 51  1  0
 28 52  1  0
 29 53  1  0
 30 54  1  0
 30 55  1  0
 31 56  1  0
 31 57  1  0
 32 58  1  0
 33 59  1  0
M  END
$$$$
[H]c1c([H])c(Cl)c([H])c(Oc2c(Cl)nc(N([H])c3c([H])c([H])c(C(=O)N4C([H])([H])C([H])([H])C([H])(C(=O)OC([H])([H])[H])C([H])([H])C4([H])[H])c([H])c3[H])nc2N2C([H])([H])C([H])([H])N(C([H])([H])[H])C([H])([H])C2([H])[H])c1[H]
     RDKit          3D

 73 77  0  0  0  0  0  0  0  0999 V2000
   10.9343    1.5740   -2.2351 C   0  0  0  0  0  0  0  0  0  0  0  0
   10.0415    1.1104   -1.2360 O   0  0  0  0  0  0  0  0  0  0  0  0
    9.5216   -0.1570   -1.1867 C   0  0  0  0  0  0  0  0  0  0  0  0
    9.8382   -0.9837   -2.0702 O   0  0  0  0  0  0  0  0  0  0  0  0
    8.5825   -0.6011   -0.1126 C   0  0  0  0  0  0  0  0  0  0  0  0
    8.1649   -2.0236   -0.2881 C   0  0  0  0  0  0  0  0  0  0  0  0
    7.2157   -2.4121    0.8168 C   0  0  0  0  0  0  0  0  0  0  0  0
    6.0533   -1.4364    0.7412 N   0  0  0  0  0  0  0  0  0  0  0  0
    6.5015   -0.1082    1.0133 C   0  0  0  0  0  0  0  0  0  0  0  0
    7.3683    0.3171   -0.1844 C   0  0  0  0  0  0  0  0  0  0  0  0
    4.8007   -1.9426    0.4894 C   0  0  0  0  0  0  0  0  0  0  0  0
    4.7604   -3.2605    0.4307 O   0  0  0  0  0  0  0  0  0  0  0  0
    3.5281   -1.3095    0.2799 C   0  0  0  0  0  0  0  0  0  0  0  0
    3.3853    0.0117    0.0135 C   0  0  0  0  0  0  0  0  0  0  0  0
    2.1742    0.6288   -0.1215 C   0  0  0  0  0  0  0  0  0  0  0  0
    0.9973   -0.1018    0.0120 C   0  0  0  0  0  0  0  0  0  0  0  0
   -0.1957    0.5948   -0.1615 N   0  0  0  0  0  0  0  0  0  0  0  0
   -1.4672    0.2073    0.3261 C   0  0  0  0  0  0  0  0  0  0  0  0
   -1.7119   -0.8963    1.0494 N   0  0  0  0  0  0  0  0  0  0  0  0
   -2.9132   -1.2460    1.4996 C   0  0  0  0  0  0  0  0  0  0  0  0
   -3.2097   -2.6869    2.4394 Cl  0  0  0  0  0  0  0  0  0  0  0  0
   -4.0109   -0.4233    1.2124 C   0  0  0  0  0  0  0  0  0  0  0  0
   -5.2589   -0.7732    1.6695 O   0  0  0  0  0  0  0  0  0  0  0  0
   -6.0844   -1.6578    0.9755 C   0  0  0  0  0  0  0  0  0  0  0  0
   -7.3189   -1.9422    1.5223 C   0  0  0  0  0  0  0  0  0  0  0  0
   -8.2163   -2.8033    0.9212 C   0  0  0  0  0  0  0  0  0  0  0  0
   -7.8562   -3.3985   -0.2732 C   0  0  0  0  0  0  0  0  0  0  0  0
   -6.6177   -3.1144   -0.8237 C   0  0  0  0  0  0  0  0  0  0  0  0
   -6.2212   -3.9030   -2.3419 Cl  0  0  0  0  0  0  0  0  0  0  0  0
   -5.7298   -2.2470   -0.2054 C   0  0  0  0  0  0  0  0  0  0  0  0
   -3.8193    0.7173    0.4785 C   0  0  0  0  0  0  0  0  0  0  0  0
   -4.8387    1.6464    0.1556 N   0  0  0  0  0  0  0  0  0  0  0  0
   -4.4960    2.7121   -0.8064 C   0  0  0  0  0  0  0  0  0  0  0  0
   -5.7231    3.2045   -1.5173 C   0  0  0  0  0  0  0  0  0  0  0  0
   -6.7286    3.7138   -0.6186 N   0  0  0  0  0  0  0  0  0  0  0  0
   -8.0473    3.7262   -1.2040 C   0  0  0  0  0  0  0  0  0  0  0  0
   -6.6884    3.1471    0.6921 C   0  0  0  0  0  0  0  0  0  0  0  0
   -6.1652    1.7002    0.6678 C   0  0  0  0  0  0  0  0  0  0  0  0
   -2.5410    0.9754    0.0683 N   0  0  0  0  0  0  0  0  0  0  0  0
    1.1295   -1.4456    0.2797 C   0  0  0  0  0  0  0  0  0  0  0  0
    2.3479   -2.0547    0.4145 C   0  0  0  0  0  0  0  0  0  0  0  0
   12.0037    1.5249   -1.8856 H   0  0  0  0  0  0  0  0  0  0  0  0
   10.7967    0.9745   -3.1708 H   0  0  0  0  0  0  0  0  0  0  0  0
   10.7341    2.6566   -2.4127 H   0  0  0  0  0  0  0  0  0  0  0  0
    9.1053   -0.4782    0.8701 H   0  0  0  0  0  0  0  0  0  0  0  0
    7.6160   -2.1201   -1.2568 H   0  0  0  0  0  0  0  0  0  0  0  0
    9.0025   -2.7241   -0.2802 H   0  0  0  0  0  0  0  0  0  0  0  0
    6.8411   -3.4217    0.7223 H   0  0  0  0  0  0  0  0  0  0  0  0
    7.6701   -2.2524    1.7932 H   0  0  0  0  0  0  0  0  0  0  0  0
    7.2393   -0.1661    1.8935 H   0  0  0  0  0  0  0  0  0  0  0  0
    5.7700    0.6272    1.2295 H   0  0  0  0  0  0  0  0  0  0  0  0
    6.8359    0.0790   -1.1174 H   0  0  0  0  0  0  0  0  0  0  0  0
    7.7169    1.3455   -0.0927 H   0  0  0  0  0  0  0  0  0  0  0  0
    4.2414    0.6557   -0.1571 H   0  0  0  0  0  0  0  0  0  0  0  0
    2.1123    1.6925   -0.3330 H   0  0  0  0  0  0  0  0  0  0  0  0
   -0.1806    1.5001   -0.7083 H   0  0  0  0  0  0  0  0  0  0  0  0
   -7.6368   -1.4914    2.4627 H   0  0  0  0  0  0  0  0  0  0  0  0
   -9.1875   -3.0255    1.3537 H   0  0  0  0  0  0  0  0  0  0  0  0
   -8.5507   -4.0876   -0.7730 H   0  0  0  0  0  0  0  0  0  0  0  0
   -4.7810   -2.0393   -0.6422 H   0  0  0  0  0  0  0  0  0  0  0  0
   -4.0416    3.5262   -0.2335 H   0  0  0  0  0  0  0  0  0  0  0  0
   -3.8143    2.2638   -1.5341 H   0  0  0  0  0  0  0  0  0  0  0  0
   -5.4040    4.0434   -2.1696 H   0  0  0  0  0  0  0  0  0  0  0  0
   -6.1296    2.4253   -2.2076 H   0  0  0  0  0  0  0  0  0  0  0  0
   -8.1915    4.5711   -1.9197 H   0  0  0  0  0  0  0  0  0  0  0  0
   -8.3498    2.7693   -1.6448 H   0  0  0  0  0  0  0  0  0  0  0  0
   -8.7669    3.9366   -0.3655 H   0  0  0  0  0  0  0  0  0  0  0  0
   -7.7048    3.0873    1.1155 H   0  0  0  0  0  0  0  0  0  0  0  0
   -6.0606    3.7080    1.4143 H   0  0  0  0  0  0  0  0  0  0  0  0
   -6.1709    1.4063    1.7336 H   0  0  0  0  0  0  0  0  0  0  0  0
   -6.9026    1.1408    0.0471 H   0  0  0  0  0  0  0  0  0  0  0  0
    0.2515   -2.0795    0.3782 H   0  0  0  0  0  0  0  0  0  0  0  0
    2.4507   -3.1069    0.6260 H   0  0  0  0  0  0  0  0  0  0  0  0
  1  2  1  0
  2  3  1  0
  3  4  2  0
  3  5  1  0
  5  6  1  0
  6  7  1  0
  7  8  1  0
  8  9  1  0
  9 10  1  0
  8 11  1  0
 11 12  2  0
 11 13  1  0
 13 14  2  0
 14 15  1  0
 15 16  2  0
 16 17  1  0
 17 18  1  0
 18 19  2  0
 19 20  1  0
 20 21  1  0
 20 22  2  0
 22 23  1  0
 23 24  1  0
 24 25  2  0
 25 26  1  0
 26 27  2  0
 27 28  1  0
 28 29  1  0
 28 30  2  0
 22 31  1  0
 31 32  1  0
 32 33  1  0
 33 34  1  0
 34 35  1  0
 35 36  1  0
 35 37  1  0
 37 38  1  0
 31 39  2  0
 16 40  1  0
 40 41  2  0
 10  5  1  0
 41 13  1  0
 39 18  1  0
 30 24  1  0
 38 32  1  0
  1 42  1  0
  1 43  1  0
  1 44  1  0
  5 45  1  0
  6 46  1  0
  6 47  1  0
  7 48  1  0
  7 49  1  0
  9 50  1  0
  9 51  1  0
 10 52  1  0
 10 53  1  0
 14 54  1  0
 15 55  1  0
 17 56  1  0
 25 57  1  0
 26 58  1  0
 27 59  1  0
 30 60  1  0
 33 61  1  0
 33 62  1  0
 34 63  1  0
 34 64  1  0
 36 65  1  0
 36 66  1  0
 36 67  1  0
 37 68  1  0
 37 69  1  0
 38 70  1  0
 38 71  1  0
 40 72  1  0
 41 73  1  0
M  END
$$$$
[H]c1nc(S(=O)(=O)C([H])([H])[H])c([H])c(C(=O)N([H])c2c([H])nc(C([H])([H])[H])c(-c3c([H])c(C4([H])C([H])([H])C([H])([H])OC([H])([H])C4([H])[H])n([H])c3[H])c2[H])c1[H]
     RDKit          3D

 55 58  0  0  0  0  0  0  0  0999 V2000
   -1.9007    2.2499    2.5121 C   0  0  0  0  0  0  0  0  0  0  0  0
   -0.6893    1.8304    1.7406 C   0  0  0  0  0  0  0  0  0  0  0  0
    0.4824    2.4871    1.8901 N   0  0  0  0  0  0  0  0  0  0  0  0
    1.5887    2.0969    1.1933 C   0  0  0  0  0  0  0  0  0  0  0  0
    1.5328    1.0359    0.3333 C   0  0  0  0  0  0  0  0  0  0  0  0
    2.6067    0.5251   -0.4160 N   0  0  0  0  0  0  0  0  0  0  0  0
    3.9505    0.7246   -0.0906 C   0  0  0  0  0  0  0  0  0  0  0  0
    4.3220    1.3697    0.9057 O   0  0  0  0  0  0  0  0  0  0  0  0
    5.0518    0.1755   -0.9180 C   0  0  0  0  0  0  0  0  0  0  0  0
    4.8037   -0.3488   -2.1625 C   0  0  0  0  0  0  0  0  0  0  0  0
    5.8431   -0.8640   -2.9227 C   0  0  0  0  0  0  0  0  0  0  0  0
    7.0932   -0.8561   -2.4544 N   0  0  0  0  0  0  0  0  0  0  0  0
    7.3434   -0.3478   -1.2447 C   0  0  0  0  0  0  0  0  0  0  0  0
    6.3490    0.1735   -0.4549 C   0  0  0  0  0  0  0  0  0  0  0  0
    8.9833   -0.3416   -0.6399 S   0  0  0  0  0  0  0  0  0  0  0  0
    9.6066   -2.0044   -0.5416 C   0  0  0  0  0  0  0  0  0  0  0  0
    9.0473    0.2605    0.7302 O   0  0  0  0  0  0  0  0  0  0  0  0
    9.8966    0.4235   -1.5860 O   0  0  0  0  0  0  0  0  0  0  0  0
    0.2973    0.3613    0.1896 C   0  0  0  0  0  0  0  0  0  0  0  0
   -0.8113    0.7567    0.8908 C   0  0  0  0  0  0  0  0  0  0  0  0
   -2.0793    0.0684    0.7330 C   0  0  0  0  0  0  0  0  0  0  0  0
   -2.3240   -1.2988    0.7787 C   0  0  0  0  0  0  0  0  0  0  0  0
   -3.6388   -1.5357    0.5704 N   0  0  0  0  0  0  0  0  0  0  0  0
   -4.2602   -0.3614    0.3897 C   0  0  0  0  0  0  0  0  0  0  0  0
   -3.3150    0.6252    0.4872 C   0  0  0  0  0  0  0  0  0  0  0  0
   -5.6920   -0.1622    0.1336 C   0  0  0  0  0  0  0  0  0  0  0  0
   -6.4998   -0.7880    1.2594 C   0  0  0  0  0  0  0  0  0  0  0  0
   -7.9305   -0.9557    0.7501 C   0  0  0  0  0  0  0  0  0  0  0  0
   -8.2187   -0.0184   -0.2464 O   0  0  0  0  0  0  0  0  0  0  0  0
   -7.5586   -0.3268   -1.4234 C   0  0  0  0  0  0  0  0  0  0  0  0
   -6.1462   -0.8472   -1.1508 C   0  0  0  0  0  0  0  0  0  0  0  0
   -2.4696    1.3796    2.8844 H   0  0  0  0  0  0  0  0  0  0  0  0
   -1.4962    2.7289    3.4594 H   0  0  0  0  0  0  0  0  0  0  0  0
   -2.4868    3.0282    2.0174 H   0  0  0  0  0  0  0  0  0  0  0  0
    2.5133    2.6497    1.3154 H   0  0  0  0  0  0  0  0  0  0  0  0
    2.3693   -0.0519   -1.2889 H   0  0  0  0  0  0  0  0  0  0  0  0
    3.7969   -0.3835   -2.6098 H   0  0  0  0  0  0  0  0  0  0  0  0
    5.6352   -1.2828   -3.9201 H   0  0  0  0  0  0  0  0  0  0  0  0
    6.5787    0.5885    0.5421 H   0  0  0  0  0  0  0  0  0  0  0  0
    8.8212   -2.7249   -0.2367 H   0  0  0  0  0  0  0  0  0  0  0  0
   10.0115   -2.2483   -1.5658 H   0  0  0  0  0  0  0  0  0  0  0  0
   10.4323   -1.9875    0.2096 H   0  0  0  0  0  0  0  0  0  0  0  0
    0.2098   -0.4874   -0.4848 H   0  0  0  0  0  0  0  0  0  0  0  0
   -1.5688   -2.0387    0.9544 H   0  0  0  0  0  0  0  0  0  0  0  0
   -4.0578   -2.4899    0.5602 H   0  0  0  0  0  0  0  0  0  0  0  0
   -3.5439    1.6747    0.3783 H   0  0  0  0  0  0  0  0  0  0  0  0
   -5.9385    0.9072    0.0236 H   0  0  0  0  0  0  0  0  0  0  0  0
   -6.4487   -0.1336    2.1381 H   0  0  0  0  0  0  0  0  0  0  0  0
   -6.1270   -1.7862    1.4964 H   0  0  0  0  0  0  0  0  0  0  0  0
   -8.5959   -0.8203    1.6126 H   0  0  0  0  0  0  0  0  0  0  0  0
   -8.0763   -1.9863    0.3411 H   0  0  0  0  0  0  0  0  0  0  0  0
   -7.4352    0.6294   -1.9892 H   0  0  0  0  0  0  0  0  0  0  0  0
   -8.1157   -1.0059   -2.0777 H   0  0  0  0  0  0  0  0  0  0  0  0
   -6.2470   -1.9391   -0.9913 H   0  0  0  0  0  0  0  0  0  0  0  0
   -5.4945   -0.5948   -2.0049 H   0  0  0  0  0  0  0  0  0  0  0  0
  1  2  1  0
  2  3  2  0
  3  4  1  0
  4  5  2  0
  5  6  1  0
  6  7  1  0
  7  8  2  0
  7  9  1  0
  9 10  2  0
 10 11  1  0
 11 12  2  0
 12 13  1  0
 13 14  2  0
 13 15  1  0
 15 16  1  0
 15 17  2  0
 15 18  2  0
  5 19  1  0
 19 20  2  0
 20 21  1  0
 21 22  2  0
 22 23  1  0
 23 24  1  0
 24 25  2  0
 24 26  1  0
 26 27  1  0
 27 28  1  0
 28 29  1  0
 29 30  1  0
 30 31  1  0
 20  2  1  0
 25 21  1  0
 31 26  1  0
 14  9  1  0
  1 32  1  0
  1 33  1  0
  1 34  1  0
  4 35  1  0
  6 36  1  0
 10 37  1  0
 11 38  1  0
 14 39  1  0
 16 40  1  0
 16 41  1  0
 16 42  1  0
 19 43  1  0
 22 44  1  0
 23 45  1  0
 25 46  1  0
 26 47  1  0
 27 48  1  0
 27 49  1  0
 28 50  1  0
 28 51  1  0
 30 52  1  0
 30 53  1  0
 31 54  1  0
 31 55  1  0
M  END
$$$$
[H]OC(c1c([H])c([H])c([H])c([H])c1[H])(c1c([H])c([H])c([H])c([H])c1[H])c1c([H])c([H])c(C(=O)c2c([H])c([H])c([H])c([H])c2[H])c([H])c1[H]
     RDKit          3D

 48 51  0  0  0  0  0  0  0  0999 V2000
   -1.9831   -0.0080    1.9332 O   0  0  0  0  0  0  0  0  0  0  0  0
   -1.9930   -0.0193    0.5146 C   0  0  0  0  0  0  0  0  0  0  0  0
   -2.7959   -1.1930    0.1368 C   0  0  0  0  0  0  0  0  0  0  0  0
   -2.8248   -2.2969    0.9630 C   0  0  0  0  0  0  0  0  0  0  0  0
   -3.5704   -3.4145    0.6460 C   0  0  0  0  0  0  0  0  0  0  0  0
   -4.3171   -3.4759   -0.5075 C   0  0  0  0  0  0  0  0  0  0  0  0
   -4.2952   -2.3746   -1.3433 C   0  0  0  0  0  0  0  0  0  0  0  0
   -3.5486   -1.2541   -1.0265 C   0  0  0  0  0  0  0  0  0  0  0  0
   -2.5951    1.2819    0.1280 C   0  0  0  0  0  0  0  0  0  0  0  0
   -2.2372    1.8823   -1.0730 C   0  0  0  0  0  0  0  0  0  0  0  0
   -2.7786    3.0960   -1.4606 C   0  0  0  0  0  0  0  0  0  0  0  0
   -3.6959    3.7663   -0.6778 C   0  0  0  0  0  0  0  0  0  0  0  0
   -4.0529    3.1742    0.5132 C   0  0  0  0  0  0  0  0  0  0  0  0
   -3.5112    1.9589    0.9024 C   0  0  0  0  0  0  0  0  0  0  0  0
   -0.5654   -0.1125    0.0834 C   0  0  0  0  0  0  0  0  0  0  0  0
    0.4460    0.5268    0.7691 C   0  0  0  0  0  0  0  0  0  0  0  0
    1.7630    0.4471    0.3784 C   0  0  0  0  0  0  0  0  0  0  0  0
    2.1245   -0.2872   -0.7298 C   0  0  0  0  0  0  0  0  0  0  0  0
    1.1056   -0.9294   -1.4180 C   0  0  0  0  0  0  0  0  0  0  0  0
   -0.1974   -0.8436   -1.0224 C   0  0  0  0  0  0  0  0  0  0  0  0
    3.5029   -0.4015   -1.1718 C   0  0  0  0  0  0  0  0  0  0  0  0
    3.6902   -0.6988   -2.4014 O   0  0  0  0  0  0  0  0  0  0  0  0
    4.6903   -0.2118   -0.3607 C   0  0  0  0  0  0  0  0  0  0  0  0
    5.8649    0.2531   -0.9605 C   0  0  0  0  0  0  0  0  0  0  0  0
    6.9965    0.4239   -0.2473 C   0  0  0  0  0  0  0  0  0  0  0  0
    7.0535    0.1517    1.0923 C   0  0  0  0  0  0  0  0  0  0  0  0
    5.8952   -0.3053    1.6768 C   0  0  0  0  0  0  0  0  0  0  0  0
    4.7303   -0.4891    0.9805 C   0  0  0  0  0  0  0  0  0  0  0  0
   -1.7572    0.9199    2.1850 H   0  0  0  0  0  0  0  0  0  0  0  0
   -2.2561   -2.3253    1.8995 H   0  0  0  0  0  0  0  0  0  0  0  0
   -3.5735   -4.2673    1.3127 H   0  0  0  0  0  0  0  0  0  0  0  0
   -4.9179   -4.3576   -0.7786 H   0  0  0  0  0  0  0  0  0  0  0  0
   -4.8814   -2.4026   -2.2655 H   0  0  0  0  0  0  0  0  0  0  0  0
   -3.5213   -0.3864   -1.6653 H   0  0  0  0  0  0  0  0  0  0  0  0
   -1.5143    1.3688   -1.7079 H   0  0  0  0  0  0  0  0  0  0  0  0
   -2.4799    3.5455   -2.4064 H   0  0  0  0  0  0  0  0  0  0  0  0
   -4.1041    4.7155   -1.0029 H   0  0  0  0  0  0  0  0  0  0  0  0
   -4.7681    3.6884    1.1337 H   0  0  0  0  0  0  0  0  0  0  0  0
   -3.7892    1.4825    1.8417 H   0  0  0  0  0  0  0  0  0  0  0  0
    0.1966    1.1145    1.6493 H   0  0  0  0  0  0  0  0  0  0  0  0
    2.5174    0.9719    0.9333 H   0  0  0  0  0  0  0  0  0  0  0  0
    1.4291   -1.5046   -2.2928 H   0  0  0  0  0  0  0  0  0  0  0  0
   -0.9498   -1.3686   -1.6062 H   0  0  0  0  0  0  0  0  0  0  0  0
    5.8372    0.4748   -2.0348 H   0  0  0  0  0  0  0  0  0  0  0  0
    7.8974    0.7871   -0.7434 H   0  0  0  0  0  0  0  0  0  0  0  0
    7.9417    0.2850    1.6557 H   0  0  0  0  0  0  0  0  0  0  0  0
    5.9464   -0.5223    2.7529 H   0  0  0  0  0  0  0  0  0  0  0  0
    3.8457   -0.8658    1.5033 H   0  0  0  0  0  0  0  0  0  0  0  0
  1  2  1  0
  2  3  1  0
  3  4  2  0
  4  5  1  0
  5  6  2  0
  6  7  1  0
  7  8  2  0
  2  9  1  0
  9 10  2  0
 10 11  1  0
 11 12  2  0
 12 13  1  0
 13 14  2  0
  2 15  1  0
 15 16  2  0
 16 17  1  0
 17 18  2  0
 18 19  1  0
 19 20  2  0
 18 21  1  0
 21 22  2  0
 21 23  1  0
 23 24  2  0
 24 25  1  0
 25 26  2  0
 26 27  1  0
 27 28  2  0
  8  3  1  0
 14  9  1  0
 20 15  1  0
 28 23  1  0
  1 29  1  0
  4 30  1  0
  5 31  1  0
  6 32  1  0
  7 33  1  0
  8 34  1  0
 10 35  1  0
 11 36  1  0
 12 37  1  0
 13 38  1  0
 14 39  1  0
 16 40  1  0
 17 41  1  0
 19 42  1  0
 20 43  1  0
 24 44  1  0
 25 45  1  0
 26 46  1  0
 27 47  1  0
 28 48  1  0
M  END
$$$$
[H]c1c([H])c(C2([H])SC([H])(C([H])([H])C([H])([H])C([H])([H])C([H])([H])[H])N([H])C(N([H])C([H])([H])C([H])([H])C([H])([H])[H])=NC2=O)c([H])c([H])c1OC([H])([H])[H]
     RDKit          3D

 51 52  0  0  0  0  0  0  0  0999 V2000
   -4.4739   -3.0416    0.8716 C   0  0  0  0  0  0  0  0  0  0  0  0
   -3.2396   -2.1623    0.5568 C   0  0  0  0  0  0  0  0  0  0  0  0
   -2.1394   -2.6917    1.4014 C   0  0  0  0  0  0  0  0  0  0  0  0
   -0.8092   -2.0661    1.3015 C   0  0  0  0  0  0  0  0  0  0  0  0
   -0.7202   -0.6315    1.6467 C   0  0  0  0  0  0  0  0  0  0  0  0
   -1.4797    0.2896    0.8675 N   0  0  0  0  0  0  0  0  0  0  0  0
   -1.3686    0.6971   -0.5008 C   0  0  0  0  0  0  0  0  0  0  0  0
   -2.5473    1.1361   -1.1417 N   0  0  0  0  0  0  0  0  0  0  0  0
   -3.1318    2.4361   -0.9626 C   0  0  0  0  0  0  0  0  0  0  0  0
   -4.3852    2.5996   -1.7834 C   0  0  0  0  0  0  0  0  0  0  0  0
   -5.0119    3.9522   -1.6103 C   0  0  0  0  0  0  0  0  0  0  0  0
   -0.3201    0.7234   -1.2373 N   0  0  0  0  0  0  0  0  0  0  0  0
    1.0054    0.3629   -0.9094 C   0  0  0  0  0  0  0  0  0  0  0  0
    1.6447   -0.2437   -1.8023 O   0  0  0  0  0  0  0  0  0  0  0  0
    1.7089    0.6244    0.3613 C   0  0  0  0  0  0  0  0  0  0  0  0
    1.0374   -0.1738    1.7992 S   0  0  0  0  0  0  0  0  0  0  0  0
    3.1384    0.1930    0.1916 C   0  0  0  0  0  0  0  0  0  0  0  0
    3.4611   -1.1266   -0.0434 C   0  0  0  0  0  0  0  0  0  0  0  0
    4.7682   -1.5413   -0.2019 C   0  0  0  0  0  0  0  0  0  0  0  0
    5.8126   -0.6415   -0.1304 C   0  0  0  0  0  0  0  0  0  0  0  0
    7.1378   -1.0428   -0.2879 O   0  0  0  0  0  0  0  0  0  0  0  0
    8.1479   -0.0586   -0.2004 C   0  0  0  0  0  0  0  0  0  0  0  0
    5.4810    0.6782    0.1053 C   0  0  0  0  0  0  0  0  0  0  0  0
    4.1767    1.0964    0.2641 C   0  0  0  0  0  0  0  0  0  0  0  0
   -5.3829   -2.4637    0.6700 H   0  0  0  0  0  0  0  0  0  0  0  0
   -4.4791   -3.2876    1.9639 H   0  0  0  0  0  0  0  0  0  0  0  0
   -4.3795   -3.9537    0.2784 H   0  0  0  0  0  0  0  0  0  0  0  0
   -3.5687   -1.1270    0.7917 H   0  0  0  0  0  0  0  0  0  0  0  0
   -3.0109   -2.2107   -0.5146 H   0  0  0  0  0  0  0  0  0  0  0  0
   -2.0196   -3.7852    1.1183 H   0  0  0  0  0  0  0  0  0  0  0  0
   -2.4757   -2.7454    2.4720 H   0  0  0  0  0  0  0  0  0  0  0  0
   -0.3525   -2.3012    0.3075 H   0  0  0  0  0  0  0  0  0  0  0  0
   -0.1468   -2.6102    2.0492 H   0  0  0  0  0  0  0  0  0  0  0  0
   -1.1063   -0.5452    2.7184 H   0  0  0  0  0  0  0  0  0  0  0  0
   -2.2864    0.7992    1.3385 H   0  0  0  0  0  0  0  0  0  0  0  0
   -3.0224    0.4692   -1.7876 H   0  0  0  0  0  0  0  0  0  0  0  0
   -2.4111    3.2250   -1.2543 H   0  0  0  0  0  0  0  0  0  0  0  0
   -3.4244    2.5749    0.1010 H   0  0  0  0  0  0  0  0  0  0  0  0
   -5.0754    1.7804   -1.4970 H   0  0  0  0  0  0  0  0  0  0  0  0
   -4.1017    2.3978   -2.8432 H   0  0  0  0  0  0  0  0  0  0  0  0
   -4.5439    4.6357   -2.3735 H   0  0  0  0  0  0  0  0  0  0  0  0
   -6.1031    3.8570   -1.7734 H   0  0  0  0  0  0  0  0  0  0  0  0
   -4.8450    4.3473   -0.5868 H   0  0  0  0  0  0  0  0  0  0  0  0
    1.6709    1.7340    0.5424 H   0  0  0  0  0  0  0  0  0  0  0  0
    2.6414   -1.8350   -0.0999 H   0  0  0  0  0  0  0  0  0  0  0  0
    5.0284   -2.5801   -0.3873 H   0  0  0  0  0  0  0  0  0  0  0  0
    9.1602   -0.4876   -0.1858 H   0  0  0  0  0  0  0  0  0  0  0  0
    8.0472    0.5003    0.7757 H   0  0  0  0  0  0  0  0  0  0  0  0
    8.0473    0.7254   -0.9876 H   0  0  0  0  0  0  0  0  0  0  0  0
    6.3163    1.3875    0.1608 H   0  0  0  0  0  0  0  0  0  0  0  0
    3.9308    2.1314    0.4480 H   0  0  0  0  0  0  0  0  0  0  0  0
  1  2  1  0
  2  3  1  0
  3  4  1  0
  4  5  1  0
  5  6  1  0
  6  7  1  0
  7  8  1  0
  8  9  1  0
  9 10  1  0
 10 11  1  0
  7 12  2  0
 12 13  1  0
 13 14  2  0
 13 15  1  0
 15 16  1  0
 15 17  1  0
 17 18  2  0
 18 19  1  0
 19 20  2  0
 20 21  1  0
 21 22  1  0
 20 23  1  0
 23 24  2  0
 16  5  1  0
 24 17  1  0
  1 25  1  0
  1 26  1  0
  1 27  1  0
  2 28  1  0
  2 29  1  0
  3 30  1  0
  3 31  1  0
  4 32  1  0
  4 33  1  0
  5 34  1  0
  6 35  1  0
  8 36  1  0
  9 37  1  0
  9 38  1  0
 10 39  1  0
 10 40  1  0
 11 41  1  0
 11 42  1  0
 11 43  1  0
 15 44  1  0
 18 45  1  0
 19 46  1  0
 22 47  1  0
 22 48  1  0
 22 49  1  0
 23 50  1  0
 24 51  1  0
M  END
$$$$
[H]c1sc(C([H])([H])[H])c([H])c1-c1nc(C([H])([H])C([H])([H])C([H])([H])N([H])C(=O)OC(C([H])([H])[H])(C([H])([H])[H])C([H])([H])[H])c(-c2c([H])c([H])c([H])c([H])c2[H])n1[H]
     RDKit          3D

 55 57  0  0  0  0  0  0  0  0999 V2000
   -6.9715    4.5202    0.5044 C   0  0  0  0  0  0  0  0  0  0  0  0
   -5.8434    3.8961   -0.2891 C   0  0  0  0  0  0  0  0  0  0  0  0
   -5.2223    2.7037   -0.0639 C   0  0  0  0  0  0  0  0  0  0  0  0
   -4.2316    2.3554   -0.8983 C   0  0  0  0  0  0  0  0  0  0  0  0
   -3.9317    3.2336   -1.9075 C   0  0  0  0  0  0  0  0  0  0  0  0
   -5.0355    4.5054   -1.6596 S   0  0  0  0  0  0  0  0  0  0  0  0
   -3.4619    1.0732   -0.7507 C   0  0  0  0  0  0  0  0  0  0  0  0
   -2.4165    0.6938   -1.4584 N   0  0  0  0  0  0  0  0  0  0  0  0
   -1.9431   -0.5217   -1.0074 C   0  0  0  0  0  0  0  0  0  0  0  0
   -0.7279   -1.1626   -1.5777 C   0  0  0  0  0  0  0  0  0  0  0  0
    0.4964   -0.7170   -0.7987 C   0  0  0  0  0  0  0  0  0  0  0  0
    1.7729   -1.3693   -1.3870 C   0  0  0  0  0  0  0  0  0  0  0  0
    2.9065   -0.9570   -0.7867 N   0  0  0  0  0  0  0  0  0  0  0  0
    4.0556   -0.5400   -0.1749 C   0  0  0  0  0  0  0  0  0  0  0  0
    4.3437   -0.6788    1.0360 O   0  0  0  0  0  0  0  0  0  0  0  0
    5.0667    0.1164   -0.9116 O   0  0  0  0  0  0  0  0  0  0  0  0
    6.2674    0.6020   -0.4392 C   0  0  0  0  0  0  0  0  0  0  0  0
    6.1338    1.6987    0.6125 C   0  0  0  0  0  0  0  0  0  0  0  0
    7.0205    1.2251   -1.6014 C   0  0  0  0  0  0  0  0  0  0  0  0
    7.1615   -0.4676    0.1552 C   0  0  0  0  0  0  0  0  0  0  0  0
   -2.7466   -0.8919    0.0203 C   0  0  0  0  0  0  0  0  0  0  0  0
   -3.6731    0.1215    0.1483 N   0  0  0  0  0  0  0  0  0  0  0  0
   -2.7570   -2.0991    0.8349 C   0  0  0  0  0  0  0  0  0  0  0  0
   -1.8163   -3.0589    0.8917 C   0  0  0  0  0  0  0  0  0  0  0  0
   -1.9183   -4.2016    1.6739 C   0  0  0  0  0  0  0  0  0  0  0  0
   -3.0181   -4.4066    2.4417 C   0  0  0  0  0  0  0  0  0  0  0  0
   -4.0037   -3.4533    2.4114 C   0  0  0  0  0  0  0  0  0  0  0  0
   -3.8854   -2.3243    1.6304 C   0  0  0  0  0  0  0  0  0  0  0  0
   -6.5226    5.0465    1.3705 H   0  0  0  0  0  0  0  0  0  0  0  0
   -7.6243    3.6896    0.7781 H   0  0  0  0  0  0  0  0  0  0  0  0
   -7.5345    5.2310   -0.1541 H   0  0  0  0  0  0  0  0  0  0  0  0
   -5.5521    2.0759    0.7954 H   0  0  0  0  0  0  0  0  0  0  0  0
   -3.1536    3.1217   -2.6897 H   0  0  0  0  0  0  0  0  0  0  0  0
   -0.5616   -0.6558   -2.6015 H   0  0  0  0  0  0  0  0  0  0  0  0
   -0.7821   -2.2309   -1.7223 H   0  0  0  0  0  0  0  0  0  0  0  0
    0.6351    0.3658   -0.9852 H   0  0  0  0  0  0  0  0  0  0  0  0
    0.4387   -0.9242    0.2801 H   0  0  0  0  0  0  0  0  0  0  0  0
    1.8021   -1.0850   -2.4956 H   0  0  0  0  0  0  0  0  0  0  0  0
    1.5469   -2.4702   -1.4284 H   0  0  0  0  0  0  0  0  0  0  0  0
    2.4426   -1.5103    0.4067 H   0  0  0  0  0  0  0  0  0  0  0  0
    7.1379    1.7718    1.1053 H   0  0  0  0  0  0  0  0  0  0  0  0
    5.3722    1.5119    1.3599 H   0  0  0  0  0  0  0  0  0  0  0  0
    6.0066    2.6747    0.0538 H   0  0  0  0  0  0  0  0  0  0  0  0
    7.3996    2.2386   -1.3779 H   0  0  0  0  0  0  0  0  0  0  0  0
    7.8799    0.5723   -1.8926 H   0  0  0  0  0  0  0  0  0  0  0  0
    6.3666    1.2128   -2.5130 H   0  0  0  0  0  0  0  0  0  0  0  0
    7.5063   -0.1918    1.1863 H   0  0  0  0  0  0  0  0  0  0  0  0
    6.6730   -1.4669    0.1401 H   0  0  0  0  0  0  0  0  0  0  0  0
    8.0764   -0.5463   -0.4523 H   0  0  0  0  0  0  0  0  0  0  0  0
   -4.4365    0.1385    0.8609 H   0  0  0  0  0  0  0  0  0  0  0  0
   -0.9194   -2.9840    0.3341 H   0  0  0  0  0  0  0  0  0  0  0  0
   -1.1161   -4.9253    1.6594 H   0  0  0  0  0  0  0  0  0  0  0  0
   -3.1422   -5.2983    3.0803 H   0  0  0  0  0  0  0  0  0  0  0  0
   -4.8678   -3.6426    3.0268 H   0  0  0  0  0  0  0  0  0  0  0  0
   -4.6921   -1.6150    1.6383 H   0  0  0  0  0  0  0  0  0  0  0  0
  1  2  1  0
  2  3  2  0
  3  4  1  0
  4  5  2  0
  5  6  1  0
  4  7  1  0
  7  8  2  0
  8  9  1  0
  9 10  1  0
 10 11  1  0
 11 12  1  0
 12 13  1  0
 13 14  1  0
 14 15  2  0
 14 16  1  0
 16 17  1  0
 17 18  1  0
 17 19  1  0
 17 20  1  0
  9 21  2  0
 21 22  1  0
 21 23  1  0
 23 24  2  0
 24 25  1  0
 25 26  2  0
 26 27  1  0
 27 28  2  0
  6  2  1  0
 22  7  1  0
 28 23  1  0
  1 29  1  0
  1 30  1  0
  1 31  1  0
  3 32  1  0
  5 33  1  0
 10 34  1  0
 10 35  1  0
 11 36  1  0
 11 37  1  0
 12 38  1  0
 12 39  1  0
 13 40  1  0
 18 41  1  0
 18 42  1  0
 18 43  1  0
 19 44  1  0
 19 45  1  0
 19 46  1  0
 20 47  1  0
 20 48  1  0
 20 49  1  0
 22 50  1  0
 24 51  1  0
 25 52  1  0
 26 53  1  0
 27 54  1  0
 28 55  1  0
M  END
$$$$
[H]c1nn(-c2c([H])c([H])c(C([H])([H])C([H])([H])N3C([H])([H])C([H])([H])C([H])([H])C([H])(C(=O)N([H])C([H])(C(=O)N([H])[C@]([H])(C(=O)OC(C([H])([H])[H])(C([H])([H])[H])C([H])([H])[H])C([H])([H])C([H])([H])C([H])([H])C([H])([H])N([H])[H])[C@]([H])(c4c([H])n([H])c5c([H])c([H])c([H])c([H])c45)C([H])([H])[H])C3([H])[H])c([H])c2[H])nc1[H]
     RDKit          3D

102106  0  0  0  0  0  0  0  0999 V2000
   -3.6938   -2.8306    1.8964 C   0  0  0  0  0  0  0  0  0  0  0  0
   -2.2605   -3.2845    1.4458 C   0  0  2  0  0  0  0  0  0  0  0  0
   -1.4591   -2.0094    1.3872 C   0  0  0  0  0  0  0  0  0  0  0  0
   -0.1020   -2.1976    1.0276 N   0  0  0  0  0  0  0  0  0  0  0  0
    0.9654   -1.9902    1.9856 C   0  0  0  0  0  0  0  0  0  0  0  0
    0.5548   -1.6469    3.1308 O   0  0  0  0  0  0  0  0  0  0  0  0
    2.3847   -2.1338    1.7379 C   0  0  0  0  0  0  0  0  0  0  0  0
    2.6952   -3.5232    1.2388 C   0  0  0  0  0  0  0  0  0  0  0  0
    4.1989   -3.6960    1.3038 C   0  0  0  0  0  0  0  0  0  0  0  0
    4.8843   -2.3861    1.4677 C   0  0  0  0  0  0  0  0  0  0  0  0
    4.4043   -1.3317    0.5840 N   0  0  0  0  0  0  0  0  0  0  0  0
    4.7308   -1.6425   -0.7924 C   0  0  0  0  0  0  0  0  0  0  0  0
    4.4566   -0.5549   -1.7723 C   0  0  0  0  0  0  0  0  0  0  0  0
    5.2200    0.6714   -1.5075 C   0  0  0  0  0  0  0  0  0  0  0  0
    4.7230    1.7004   -0.7632 C   0  0  0  0  0  0  0  0  0  0  0  0
    5.4775    2.8490   -0.4986 C   0  0  0  0  0  0  0  0  0  0  0  0
    6.7535    2.9711   -0.9879 C   0  0  0  0  0  0  0  0  0  0  0  0
    7.2679    1.9326   -1.7460 C   0  0  0  0  0  0  0  0  0  0  0  0
    6.5027    0.8149   -1.9898 C   0  0  0  0  0  0  0  0  0  0  0  0
    7.5653    4.1321   -0.7310 N   0  0  0  0  0  0  0  0  0  0  0  0
    8.1637    4.8231   -1.6790 N   0  0  0  0  0  0  0  0  0  0  0  0
    8.8599    5.8555   -1.1796 C   0  0  0  0  0  0  0  0  0  0  0  0
    8.6634    5.7813    0.2020 C   0  0  0  0  0  0  0  0  0  0  0  0
    7.8682    4.7131    0.4087 N   0  0  0  0  0  0  0  0  0  0  0  0
    2.9670   -1.1442    0.7475 C   0  0  0  0  0  0  0  0  0  0  0  0
   -2.0688   -0.9904    0.5031 C   0  0  0  0  0  0  0  0  0  0  0  0
   -1.6544   -0.9670   -0.6834 O   0  0  0  0  0  0  0  0  0  0  0  0
   -3.0563   -0.0672    0.8876 N   0  0  0  0  0  0  0  0  0  0  0  0
   -3.5916    0.8701   -0.0628 C   0  0  1  0  0  0  0  0  0  0  0  0
   -5.0726    0.7137   -0.2432 C   0  0  0  0  0  0  0  0  0  0  0  0
   -5.8843    0.8657    0.9702 C   0  0  0  0  0  0  0  0  0  0  0  0
   -5.9491    2.1453    1.6860 C   0  0  0  0  0  0  0  0  0  0  0  0
   -6.5740    3.2752    0.9451 C   0  0  0  0  0  0  0  0  0  0  0  0
   -7.9767    2.9552    0.5989 N   0  0  0  0  0  0  0  0  0  0  0  0
   -3.0805    2.2425    0.0668 C   0  0  0  0  0  0  0  0  0  0  0  0
   -2.3029    2.6102    0.9930 O   0  0  0  0  0  0  0  0  0  0  0  0
   -3.4134    3.2420   -0.8379 O   0  0  0  0  0  0  0  0  0  0  0  0
   -2.9500    4.5569   -0.8045 C   0  0  0  0  0  0  0  0  0  0  0  0
   -3.5796    5.2947   -1.9932 C   0  0  0  0  0  0  0  0  0  0  0  0
   -1.4414    4.5490   -0.9705 C   0  0  0  0  0  0  0  0  0  0  0  0
   -3.2968    5.3423    0.4171 C   0  0  0  0  0  0  0  0  0  0  0  0
   -2.3790   -4.0475    0.2193 C   0  0  0  0  0  0  0  0  0  0  0  0
   -3.4463   -3.9468   -0.6776 C   0  0  0  0  0  0  0  0  0  0  0  0
   -3.2174   -4.7593   -1.7195 N   0  0  0  0  0  0  0  0  0  0  0  0
   -2.0656   -5.3930   -1.5688 C   0  0  0  0  0  0  0  0  0  0  0  0
   -1.4627   -6.3132   -2.3826 C   0  0  0  0  0  0  0  0  0  0  0  0
   -0.2396   -6.8640   -2.0021 C   0  0  0  0  0  0  0  0  0  0  0  0
    0.2972   -6.4423   -0.8075 C   0  0  0  0  0  0  0  0  0  0  0  0
   -0.3264   -5.5177   -0.0081 C   0  0  0  0  0  0  0  0  0  0  0  0
   -1.5327   -4.9598   -0.3658 C   0  0  0  0  0  0  0  0  0  0  0  0
   -4.2541   -3.7654    2.1993 H   0  0  0  0  0  0  0  0  0  0  0  0
   -3.5152   -2.2889    2.8465 H   0  0  0  0  0  0  0  0  0  0  0  0
   -4.2127   -2.3012    1.1167 H   0  0  0  0  0  0  0  0  0  0  0  0
   -1.8895   -3.8828    2.2760 H   0  0  0  0  0  0  0  0  0  0  0  0
   -1.4990   -1.5973    2.4332 H   0  0  0  0  0  0  0  0  0  0  0  0
    0.1986   -2.4767    0.0770 H   0  0  0  0  0  0  0  0  0  0  0  0
    2.9076   -1.9600    2.7346 H   0  0  0  0  0  0  0  0  0  0  0  0
    2.2857   -3.6362    0.2254 H   0  0  0  0  0  0  0  0  0  0  0  0
    2.1531   -4.2414    1.8778 H   0  0  0  0  0  0  0  0  0  0  0  0
    4.4234   -4.2947    2.2286 H   0  0  0  0  0  0  0  0  0  0  0  0
    4.5110   -4.2214    0.3872 H   0  0  0  0  0  0  0  0  0  0  0  0
    4.9177   -1.9955    2.4871 H   0  0  0  0  0  0  0  0  0  0  0  0
    5.9511   -2.5432    1.1630 H   0  0  0  0  0  0  0  0  0  0  0  0
    5.7431   -2.0441   -0.8802 H   0  0  0  0  0  0  0  0  0  0  0  0
    4.0488   -2.5031   -1.0665 H   0  0  0  0  0  0  0  0  0  0  0  0
    4.7067   -0.9974   -2.7899 H   0  0  0  0  0  0  0  0  0  0  0  0
    3.3515   -0.3610   -1.8447 H   0  0  0  0  0  0  0  0  0  0  0  0
    3.7144    1.6881   -0.3377 H   0  0  0  0  0  0  0  0  0  0  0  0
    5.0741    3.6576    0.0870 H   0  0  0  0  0  0  0  0  0  0  0  0
    8.2848    2.0475   -2.1267 H   0  0  0  0  0  0  0  0  0  0  0  0
    6.9494    0.0303   -2.5885 H   0  0  0  0  0  0  0  0  0  0  0  0
    9.4567    6.6088   -1.6813 H   0  0  0  0  0  0  0  0  0  0  0  0
    9.1001    6.4801    0.8949 H   0  0  0  0  0  0  0  0  0  0  0  0
    2.7906   -0.1035    1.0869 H   0  0  0  0  0  0  0  0  0  0  0  0
    2.4950   -1.2657   -0.2436 H   0  0  0  0  0  0  0  0  0  0  0  0
   -3.3611   -0.1138    1.8882 H   0  0  0  0  0  0  0  0  0  0  0  0
   -3.1583    0.5363   -1.0749 H   0  0  0  0  0  0  0  0  0  0  0  0
   -5.2934   -0.2657   -0.7135 H   0  0  0  0  0  0  0  0  0  0  0  0
   -5.3589    1.4647   -1.0372 H   0  0  0  0  0  0  0  0  0  0  0  0
   -5.6007    0.0657    1.6978 H   0  0  0  0  0  0  0  0  0  0  0  0
   -6.9540    0.5853    0.7040 H   0  0  0  0  0  0  0  0  0  0  0  0
   -4.9770    2.4885    2.1190 H   0  0  0  0  0  0  0  0  0  0  0  0
   -6.5842    1.9848    2.6085 H   0  0  0  0  0  0  0  0  0  0  0  0
   -6.6629    4.1301    1.6800 H   0  0  0  0  0  0  0  0  0  0  0  0
   -6.0498    3.6695    0.0858 H   0  0  0  0  0  0  0  0  0  0  0  0
   -7.9711    2.8072   -0.4400 H   0  0  0  0  0  0  0  0  0  0  0  0
   -8.2862    2.0971    1.1187 H   0  0  0  0  0  0  0  0  0  0  0  0
   -3.1940    4.8484   -2.9356 H   0  0  0  0  0  0  0  0  0  0  0  0
   -4.6714    5.1428   -1.9605 H   0  0  0  0  0  0  0  0  0  0  0  0
   -3.3847    6.3829   -1.9380 H   0  0  0  0  0  0  0  0  0  0  0  0
   -1.0895    5.2367   -1.7305 H   0  0  0  0  0  0  0  0  0  0  0  0
   -0.9949    4.7796    0.0183 H   0  0  0  0  0  0  0  0  0  0  0  0
   -1.1006    3.5365   -1.2349 H   0  0  0  0  0  0  0  0  0  0  0  0
   -2.9466    6.3973    0.2467 H   0  0  0  0  0  0  0  0  0  0  0  0
   -4.3882    5.4151    0.5529 H   0  0  0  0  0  0  0  0  0  0  0  0
   -2.7450    5.0224    1.3332 H   0  0  0  0  0  0  0  0  0  0  0  0
   -4.3005   -3.3398   -0.5712 H   0  0  0  0  0  0  0  0  0  0  0  0
   -3.8817   -4.8647   -2.5428 H   0  0  0  0  0  0  0  0  0  0  0  0
   -1.8489   -6.6723   -3.3250 H   0  0  0  0  0  0  0  0  0  0  0  0
    0.2555   -7.5901   -2.6297 H   0  0  0  0  0  0  0  0  0  0  0  0
    1.2481   -6.8589   -0.4964 H   0  0  0  0  0  0  0  0  0  0  0  0
    0.0807   -5.1864    0.9393 H   0  0  0  0  0  0  0  0  0  0  0  0
  1  2  1  0
  2  3  1  0
  3  4  1  0
  4  5  1  0
  5  6  2  0
  5  7  1  0
  7  8  1  0
  8  9  1  0
  9 10  1  0
 10 11  1  0
 11 12  1  0
 12 13  1  0
 13 14  1  0
 14 15  2  0
 15 16  1  0
 16 17  2  0
 17 18  1  0
 18 19  2  0
 17 20  1  0
 20 21  1  0
 21 22  2  0
 22 23  1  0
 23 24  2  0
 11 25  1  0
  3 26  1  0
 26 27  2  0
 26 28  1  0
 28 29  1  0
 29 30  1  0
 30 31  1  0
 31 32  1  0
 32 33  1  0
 33 34  1  0
 29 35  1  0
 35 36  2  0
 35 37  1  0
 37 38  1  0
 38 39  1  0
 38 40  1  0
 38 41  1  0
  2 42  1  0
 42 43  2  0
 43 44  1  0
 44 45  1  0
 45 46  2  0
 46 47  1  0
 47 48  2  0
 48 49  1  0
 49 50  2  0
 25  7  1  0
 50 42  1  0
 19 14  1  0
 24 20  1  0
 50 45  1  0
  1 51  1  0
  1 52  1  0
  1 53  1  0
  2 54  1  1
  3 55  1  0
  4 56  1  0
  7 57  1  0
  8 58  1  0
  8 59  1  0
  9 60  1  0
  9 61  1  0
 10 62  1  0
 10 63  1  0
 12 64  1  0
 12 65  1  0
 13 66  1  0
 13 67  1  0
 15 68  1  0
 16 69  1  0
 18 70  1  0
 19 71  1  0
 22 72  1  0
 23 73  1  0
 25 74  1  0
 25 75  1  0
 28 76  1  0
 29 77  1  6
 30 78  1  0
 30 79  1  0
 31 80  1  0
 31 81  1  0
 32 82  1  0
 32 83  1  0
 33 84  1  0
 33 85  1  0
 34 86  1  0
 34 87  1  0
 39 88  1  0
 39 89  1  0
 39 90  1  0
 40 91  1  0
 40 92  1  0
 40 93  1  0
 41 94  1  0
 41 95  1  0
 41 96  1  0
 43 97  1  0
 44 98  1  0
 46 99  1  0
 47100  1  0
 48101  1  0
 49102  1  0
M  END
$$$$
[H]OC(=O)c1nnc(C(=O)C(=O)[C@@]([H])(N([H])C(=O)[C@@]([H])(N([H])C(=O)OC([H])([H])c2c([H])c([H])c([H])c([H])c2[H])P(=O)(O[H])OC(=O)/C(=C(\[H])c2c([H])c([H])c([H])c([N+](=O)[O-])c2[H])C([H])([H])[H])C([H])(C([H])([H])[H])C([H])([H])[H])s1
     RDKit          3D

 77 79  0  0  0  0  0  0  0  0999 V2000
   -3.5039   -1.9538    0.8625 C   0  0  0  0  0  0  0  0  0  0  0  0
   -2.3550   -1.9674    1.8110 C   0  0  0  0  0  0  0  0  0  0  0  0
   -2.3224   -3.2508    2.5760 C   0  0  0  0  0  0  0  0  0  0  0  0
   -1.0028   -1.7325    1.1372 C   0  0  2  0  0  0  0  0  0  0  0  0
   -1.0713   -0.3923    0.4982 N   0  0  0  0  0  0  0  0  0  0  0  0
   -0.5632    0.7341    1.1721 C   0  0  0  0  0  0  0  0  0  0  0  0
   -0.0637    0.5888    2.3129 O   0  0  0  0  0  0  0  0  0  0  0  0
   -0.6034    2.0768    0.5802 C   0  0  1  0  0  0  0  0  0  0  0  0
   -0.9003    3.0943    1.5793 N   0  0  0  0  0  0  0  0  0  0  0  0
   -1.9870    3.9582    1.3795 C   0  0  0  0  0  0  0  0  0  0  0  0
   -2.6851    3.8288    0.3266 O   0  0  0  0  0  0  0  0  0  0  0  0
   -2.3783    4.9652    2.2479 O   0  0  0  0  0  0  0  0  0  0  0  0
   -3.5073    5.7839    1.9210 C   0  0  0  0  0  0  0  0  0  0  0  0
   -3.7868    6.8020    2.9522 C   0  0  0  0  0  0  0  0  0  0  0  0
   -3.0273    7.9468    3.0893 C   0  0  0  0  0  0  0  0  0  0  0  0
   -3.3787    8.8463    4.0727 C   0  0  0  0  0  0  0  0  0  0  0  0
   -4.4693    8.6121    4.9076 C   0  0  0  0  0  0  0  0  0  0  0  0
   -5.2255    7.4570    4.7607 C   0  0  0  0  0  0  0  0  0  0  0  0
   -4.8685    6.5765    3.7872 C   0  0  0  0  0  0  0  0  0  0  0  0
    1.0356    2.5281   -0.0717 P   0  0  0  0  0  0  0  0  0  0  0  0
    0.9527    3.7159   -1.2535 O   0  0  0  0  0  0  0  0  0  0  0  0
    1.8358    3.1290    1.0938 O   0  0  0  0  0  0  0  0  0  0  0  0
    1.9344    1.2173   -0.6383 O   0  0  0  0  0  0  0  0  0  0  0  0
    2.5642    1.1646   -1.8542 C   0  0  0  0  0  0  0  0  0  0  0  0
    2.4701    2.1510   -2.6195 O   0  0  0  0  0  0  0  0  0  0  0  0
    3.3505   -0.0282   -2.2753 C   0  0  0  0  0  0  0  0  0  0  0  0
    3.9907   -0.0569   -3.6078 C   0  0  0  0  0  0  0  0  0  0  0  0
    3.4575   -1.0656   -1.4775 C   0  0  0  0  0  0  0  0  0  0  0  0
    4.1746   -2.2905   -1.7198 C   0  0  0  0  0  0  0  0  0  0  0  0
    3.5414   -3.5055   -1.4535 C   0  0  0  0  0  0  0  0  0  0  0  0
    4.1523   -4.7257   -1.6193 C   0  0  0  0  0  0  0  0  0  0  0  0
    5.4462   -4.7548   -2.0675 C   0  0  0  0  0  0  0  0  0  0  0  0
    6.1144   -3.5634   -2.3450 C   0  0  0  0  0  0  0  0  0  0  0  0
    5.4649   -2.3316   -2.1661 C   0  0  0  0  0  0  0  0  0  0  0  0
    7.4447   -3.5770   -2.8032 N   0  0  0  0  0  0  0  0  0  0  0  0
    8.0760   -4.7804   -2.9765 O   0  0  0  0  0  0  0  0  0  0  0  0
    8.0243   -2.5078   -3.0409 O   0  0  0  0  0  0  0  0  0  0  0  0
   -0.7784   -2.7253    0.1033 C   0  0  0  0  0  0  0  0  0  0  0  0
   -1.0858   -2.3758   -1.0955 O   0  0  0  0  0  0  0  0  0  0  0  0
   -0.2472   -4.0633    0.2525 C   0  0  0  0  0  0  0  0  0  0  0  0
    0.1912   -4.5849    1.2841 O   0  0  0  0  0  0  0  0  0  0  0  0
   -0.2122   -4.9291   -0.9509 C   0  0  0  0  0  0  0  0  0  0  0  0
    0.2178   -6.1622   -1.1274 N   0  0  0  0  0  0  0  0  0  0  0  0
    0.1356   -6.7160   -2.2563 N   0  0  0  0  0  0  0  0  0  0  0  0
   -0.3864   -6.0617   -3.2811 C   0  0  0  0  0  0  0  0  0  0  0  0
   -0.7721   -4.5639   -2.5507 S   0  0  0  0  0  0  0  0  0  0  0  0
   -0.5794   -6.5323   -4.6498 C   0  0  0  0  0  0  0  0  0  0  0  0
   -1.1578   -5.6883   -5.6039 O   0  0  0  0  0  0  0  0  0  0  0  0
   -0.2458   -7.6805   -5.0214 O   0  0  0  0  0  0  0  0  0  0  0  0
   -3.3802   -1.1535    0.0950 H   0  0  0  0  0  0  0  0  0  0  0  0
   -4.4233   -1.6622    1.4377 H   0  0  0  0  0  0  0  0  0  0  0  0
   -3.7395   -2.9378    0.4108 H   0  0  0  0  0  0  0  0  0  0  0  0
   -2.5485   -1.1615    2.5645 H   0  0  0  0  0  0  0  0  0  0  0  0
   -1.4126   -3.3330    3.2246 H   0  0  0  0  0  0  0  0  0  0  0  0
   -2.5172   -4.1220    1.9480 H   0  0  0  0  0  0  0  0  0  0  0  0
   -3.1688   -3.2814    3.3463 H   0  0  0  0  0  0  0  0  0  0  0  0
   -0.2801   -1.6701    1.9571 H   0  0  0  0  0  0  0  0  0  0  0  0
   -1.5090   -0.3698   -0.4391 H   0  0  0  0  0  0  0  0  0  0  0  0
   -1.3592    2.1350   -0.2203 H   0  0  0  0  0  0  0  0  0  0  0  0
   -0.3036    3.1584    2.4186 H   0  0  0  0  0  0  0  0  0  0  0  0
   -4.3968    5.1429    1.7373 H   0  0  0  0  0  0  0  0  0  0  0  0
   -3.3343    6.3068    0.9442 H   0  0  0  0  0  0  0  0  0  0  0  0
   -2.1824    8.0934    2.4183 H   0  0  0  0  0  0  0  0  0  0  0  0
   -2.7772    9.7384    4.1721 H   0  0  0  0  0  0  0  0  0  0  0  0
   -4.7436    9.3254    5.6825 H   0  0  0  0  0  0  0  0  0  0  0  0
   -6.0898    7.2468    5.4068 H   0  0  0  0  0  0  0  0  0  0  0  0
   -5.4622    5.6790    3.6770 H   0  0  0  0  0  0  0  0  0  0  0  0
    0.5672    4.5776   -0.9003 H   0  0  0  0  0  0  0  0  0  0  0  0
    3.4087    0.5707   -4.3421 H   0  0  0  0  0  0  0  0  0  0  0  0
    4.0609   -1.0943   -3.9625 H   0  0  0  0  0  0  0  0  0  0  0  0
    5.0163    0.3597   -3.5413 H   0  0  0  0  0  0  0  0  0  0  0  0
    2.9116   -0.9383   -0.5087 H   0  0  0  0  0  0  0  0  0  0  0  0
    2.5257   -3.4568   -1.1029 H   0  0  0  0  0  0  0  0  0  0  0  0
    3.6126   -5.6493   -1.3952 H   0  0  0  0  0  0  0  0  0  0  0  0
    5.9965   -5.6678   -2.2243 H   0  0  0  0  0  0  0  0  0  0  0  0
    6.0034   -1.4066   -2.3789 H   0  0  0  0  0  0  0  0  0  0  0  0
   -1.8841   -5.0386   -5.2697 H   0  0  0  0  0  0  0  0  0  0  0  0
  1  2  1  0
  2  3  1  0
  2  4  1  0
  4  5  1  0
  5  6  1  0
  6  7  2  0
  6  8  1  0
  8  9  1  0
  9 10  1  0
 10 11  2  0
 10 12  1  0
 12 13  1  0
 13 14  1  0
 14 15  2  0
 15 16  1  0
 16 17  2  0
 17 18  1  0
 18 19  2  0
  8 20  1  0
 20 21  1  0
 20 22  2  0
 20 23  1  0
 23 24  1  0
 24 25  2  0
 24 26  1  0
 26 27  1  0
 26 28  2  0
 28 29  1  0
 29 30  2  0
 30 31  1  0
 31 32  2  0
 32 33  1  0
 33 34  2  0
 33 35  1  0
 35 36  1  0
 35 37  2  0
  4 38  1  0
 38 39  2  0
 38 40  1  0
 40 41  2  0
 40 42  1  0
 42 43  2  0
 43 44  1  0
 44 45  2  0
 45 46  1  0
 45 47  1  0
 47 48  1  0
 47 49  2  0
 19 14  1  0
 34 29  1  0
 46 42  1  0
  1 50  1  0
  1 51  1  0
  1 52  1  0
  2 53  1  0
  3 54  1  0
  3 55  1  0
  3 56  1  0
  4 57  1  1
  5 58  1  0
  8 59  1  6
  9 60  1  0
 13 61  1  0
 13 62  1  0
 15 63  1  0
 16 64  1  0
 17 65  1  0
 18 66  1  0
 19 67  1  0
 21 68  1  0
 27 69  1  0
 27 70  1  0
 27 71  1  0
 28 72  1  0
 30 73  1  0
 31 74  1  0
 32 75  1  0
 34 76  1  0
 48 77  1  0
M  CHG  2  35   1  36  -1
M  END
$$$$
[H]OC(=O)C([H])(Oc1c([H])c([H])c(F)c(C([H])=C(C(=O)C(F)(F)C([H])(N([H])C([H])(C(=O)O[H])C([H])(C([H])([H])[H])C([H])([H])[H])C2([H])C([H])([H])C([H])([H])C([H])([H])C([H])([H])C2([H])[H])C([H])([H])[H])c1[H])C(C([H])([H])[H])(C([H])([H])[H])C([H])([H])[H]
     RDKit          3D

 79 80  0  0  0  0  0  0  0  0999 V2000
    0.0856    2.3064    0.3413 C   0  0  0  0  0  0  0  0  0  0  0  0
    0.1263    0.8378    0.3033 C   0  0  0  0  0  0  0  0  0  0  0  0
    1.2082    0.2085    0.7082 C   0  0  0  0  0  0  0  0  0  0  0  0
    2.4266    0.7978    1.2175 C   0  0  0  0  0  0  0  0  0  0  0  0
    3.6461    0.5686    0.5541 C   0  0  0  0  0  0  0  0  0  0  0  0
    4.8493    1.0553    0.9898 C   0  0  0  0  0  0  0  0  0  0  0  0
    6.0556    0.8355    0.3431 O   0  0  0  0  0  0  0  0  0  0  0  0
    6.2531    0.0979   -0.8221 C   0  0  0  0  0  0  0  0  0  0  0  0
    7.3758   -0.9254   -0.6641 C   0  0  0  0  0  0  0  0  0  0  0  0
    7.0287   -1.8912    0.4658 C   0  0  0  0  0  0  0  0  0  0  0  0
    7.4662   -1.7428   -1.9334 C   0  0  0  0  0  0  0  0  0  0  0  0
    8.7011   -0.2678   -0.4512 C   0  0  0  0  0  0  0  0  0  0  0  0
    6.7372    1.0824   -1.8600 C   0  0  0  0  0  0  0  0  0  0  0  0
    6.9986    0.6485   -3.1342 O   0  0  0  0  0  0  0  0  0  0  0  0
    6.9043    2.2838   -1.5823 O   0  0  0  0  0  0  0  0  0  0  0  0
    4.8297    1.8189    2.1629 C   0  0  0  0  0  0  0  0  0  0  0  0
    3.6497    2.0484    2.8182 C   0  0  0  0  0  0  0  0  0  0  0  0
    2.4252    1.5472    2.3672 C   0  0  0  0  0  0  0  0  0  0  0  0
    1.3178    1.8041    3.1137 F   0  0  0  0  0  0  0  0  0  0  0  0
   -1.0255    0.0414   -0.1753 C   0  0  0  0  0  0  0  0  0  0  0  0
   -0.8635   -1.1929   -0.1442 O   0  0  0  0  0  0  0  0  0  0  0  0
   -2.2580    0.6365   -0.6585 C   0  0  0  0  0  0  0  0  0  0  0  0
   -1.8993    1.3251   -1.8219 F   0  0  0  0  0  0  0  0  0  0  0  0
   -2.6164    1.6852    0.2265 F   0  0  0  0  0  0  0  0  0  0  0  0
   -3.4500   -0.1895   -0.8226 C   0  0  0  0  0  0  0  0  0  0  0  0
   -4.0547   -0.7835    0.2644 N   0  0  0  0  0  0  0  0  0  0  0  0
   -3.6372   -1.7437    1.1444 C   0  0  0  0  0  0  0  0  0  0  0  0
   -4.7718   -1.8142    2.2365 C   0  0  0  0  0  0  0  0  0  0  0  0
   -4.4570   -2.8131    3.2861 C   0  0  0  0  0  0  0  0  0  0  0  0
   -4.9461   -0.4289    2.8173 C   0  0  0  0  0  0  0  0  0  0  0  0
   -3.6908   -3.1484    0.5701 C   0  0  0  0  0  0  0  0  0  0  0  0
   -3.2575   -4.1971    1.3425 O   0  0  0  0  0  0  0  0  0  0  0  0
   -4.1163   -3.3776   -0.5855 O   0  0  0  0  0  0  0  0  0  0  0  0
   -4.5483    0.4404   -1.6596 C   0  0  0  0  0  0  0  0  0  0  0  0
   -5.0641    1.7418   -1.0927 C   0  0  0  0  0  0  0  0  0  0  0  0
   -6.3897    2.0098   -1.8194 C   0  0  0  0  0  0  0  0  0  0  0  0
   -6.2247    2.0145   -3.3081 C   0  0  0  0  0  0  0  0  0  0  0  0
   -5.6095    0.6993   -3.8091 C   0  0  0  0  0  0  0  0  0  0  0  0
   -4.2392    0.6402   -3.0977 C   0  0  0  0  0  0  0  0  0  0  0  0
   -0.5708    2.6443    1.1562 H   0  0  0  0  0  0  0  0  0  0  0  0
    1.1207    2.7337    0.3794 H   0  0  0  0  0  0  0  0  0  0  0  0
   -0.3471    2.7579   -0.5845 H   0  0  0  0  0  0  0  0  0  0  0  0
    1.1678   -0.8935    0.6468 H   0  0  0  0  0  0  0  0  0  0  0  0
    3.6035   -0.0336   -0.3551 H   0  0  0  0  0  0  0  0  0  0  0  0
    5.3759   -0.4154   -1.2271 H   0  0  0  0  0  0  0  0  0  0  0  0
    7.2597   -1.3722    1.4238 H   0  0  0  0  0  0  0  0  0  0  0  0
    5.9874   -2.2141    0.3923 H   0  0  0  0  0  0  0  0  0  0  0  0
    7.6608   -2.7959    0.4286 H   0  0  0  0  0  0  0  0  0  0  0  0
    6.4597   -1.7715   -2.3899 H   0  0  0  0  0  0  0  0  0  0  0  0
    8.2608   -1.3794   -2.6213 H   0  0  0  0  0  0  0  0  0  0  0  0
    7.7439   -2.7922   -1.6190 H   0  0  0  0  0  0  0  0  0  0  0  0
    9.5485   -0.8812   -0.8764 H   0  0  0  0  0  0  0  0  0  0  0  0
    8.8899   -0.1285    0.6234 H   0  0  0  0  0  0  0  0  0  0  0  0
    8.7354    0.6888   -1.0242 H   0  0  0  0  0  0  0  0  0  0  0  0
    7.9035    0.8228   -3.5840 H   0  0  0  0  0  0  0  0  0  0  0  0
    5.7580    2.2111    2.5230 H   0  0  0  0  0  0  0  0  0  0  0  0
    3.6246    2.6465    3.7401 H   0  0  0  0  0  0  0  0  0  0  0  0
   -3.1072   -1.0663   -1.5107 H   0  0  0  0  0  0  0  0  0  0  0  0
   -4.8326   -0.1939    0.6312 H   0  0  0  0  0  0  0  0  0  0  0  0
   -2.7490   -1.5841    1.7662 H   0  0  0  0  0  0  0  0  0  0  0  0
   -5.6712   -2.0989    1.6691 H   0  0  0  0  0  0  0  0  0  0  0  0
   -3.3799   -3.0173    3.4543 H   0  0  0  0  0  0  0  0  0  0  0  0
   -4.9433   -2.5138    4.2646 H   0  0  0  0  0  0  0  0  0  0  0  0
   -4.9381   -3.7820    3.0474 H   0  0  0  0  0  0  0  0  0  0  0  0
   -5.8679    0.0066    2.3970 H   0  0  0  0  0  0  0  0  0  0  0  0
   -4.0577    0.2050    2.6157 H   0  0  0  0  0  0  0  0  0  0  0  0
   -5.1210   -0.5508    3.9160 H   0  0  0  0  0  0  0  0  0  0  0  0
   -3.6453   -5.1248    1.1810 H   0  0  0  0  0  0  0  0  0  0  0  0
   -5.4005   -0.2790   -1.6071 H   0  0  0  0  0  0  0  0  0  0  0  0
   -4.3736    2.5886   -1.2837 H   0  0  0  0  0  0  0  0  0  0  0  0
   -5.3349    1.6624   -0.0209 H   0  0  0  0  0  0  0  0  0  0  0  0
   -7.0793    1.1777   -1.5683 H   0  0  0  0  0  0  0  0  0  0  0  0
   -6.8281    2.9602   -1.5160 H   0  0  0  0  0  0  0  0  0  0  0  0
   -7.1951    2.2003   -3.7624 H   0  0  0  0  0  0  0  0  0  0  0  0
   -5.4597    2.7952   -3.5528 H   0  0  0  0  0  0  0  0  0  0  0  0
   -5.4916    0.7633   -4.8969 H   0  0  0  0  0  0  0  0  0  0  0  0
   -6.2081   -0.1320   -3.4420 H   0  0  0  0  0  0  0  0  0  0  0  0
   -3.6416   -0.1685   -3.5370 H   0  0  0  0  0  0  0  0  0  0  0  0
   -3.8220    1.6649   -3.3380 H   0  0  0  0  0  0  0  0  0  0  0  0
  1  2  1  0
  2  3  2  3
  3  4  1  0
  4  5  2  0
  5  6  1  0
  6  7  1  0
  7  8  1  0
  8  9  1  0
  9 10  1  0
  9 11  1  0
  9 12  1  0
  8 13  1  0
 13 14  1  0
 13 15  2  0
  6 16  2  0
 16 17  1  0
 17 18  2  0
 18 19  1  0
  2 20  1  0
 20 21  2  0
 20 22  1  0
 22 23  1  0
 22 24  1  0
 22 25  1  0
 25 26  1  0
 26 27  1  0
 27 28  1  0
 28 29  1  0
 28 30  1  0
 27 31  1  0
 31 32  1  0
 31 33  2  0
 25 34  1  0
 34 35  1  0
 35 36  1  0
 36 37  1  0
 37 38  1  0
 38 39  1  0
 18  4  1  0
 39 34  1  0
  1 40  1  0
  1 41  1  0
  1 42  1  0
  3 43  1  0
  5 44  1  0
  8 45  1  0
 10 46  1  0
 10 47  1  0
 10 48  1  0
 11 49  1  0
 11 50  1  0
 11 51  1  0
 12 52  1  0
 12 53  1  0
 12 54  1  0
 14 55  1  0
 16 56  1  0
 17 57  1  0
 25 58  1  0
 26 59  1  0
 27 60  1  0
 28 61  1  0
 29 62  1  0
 29 63  1  0
 29 64  1  0
 30 65  1  0
 30 66  1  0
 30 67  1  0
 32 68  1  0
 34 69  1  0
 35 70  1  0
 35 71  1  0
 36 72  1  0
 36 73  1  0
 37 74  1  0
 37 75  1  0
 38 76  1  0
 38 77  1  0
 39 78  1  0
 39 79  1  0
M  END
$$$$
[H]c1nc2c(-c3c([H])c([H])c([H])c(C(=O)N([H])[C@]([H])(c4c([H])c([H])c(OC([H])([H])[H])c(OC([H])([H])[H])c4[H])C([H])([H])c4c(C([H])([H])[H])nn(C([H])([H])[H])c4C([H])([H])[H])c3[H])c([H])c(C(F)(F)F)c([H])c2c([H])c1[H]
     RDKit          3D

 74 78  0  0  0  0  0  0  0  0999 V2000
   -5.4772    5.4296   -3.0755 C   0  0  0  0  0  0  0  0  0  0  0  0
   -5.2273    4.8093   -1.8613 O   0  0  0  0  0  0  0  0  0  0  0  0
   -4.5441    3.6428   -1.7082 C   0  0  0  0  0  0  0  0  0  0  0  0
   -4.0034    2.8950   -2.7104 C   0  0  0  0  0  0  0  0  0  0  0  0
   -3.3194    1.7067   -2.4170 C   0  0  0  0  0  0  0  0  0  0  0  0
   -3.1793    1.2739   -1.1310 C   0  0  0  0  0  0  0  0  0  0  0  0
   -3.7247    2.0296   -0.1267 C   0  0  0  0  0  0  0  0  0  0  0  0
   -4.4058    3.2040   -0.3742 C   0  0  0  0  0  0  0  0  0  0  0  0
   -4.9480    3.9429    0.6620 O   0  0  0  0  0  0  0  0  0  0  0  0
   -4.8370    3.5135    1.9924 C   0  0  0  0  0  0  0  0  0  0  0  0
   -2.4673    0.0245   -0.7824 C   0  0  2  0  0  0  0  0  0  0  0  0
   -3.4587   -1.0394   -0.5098 C   0  0  0  0  0  0  0  0  0  0  0  0
   -2.9963   -2.3496   -0.1054 C   0  0  0  0  0  0  0  0  0  0  0  0
   -2.6866   -2.7470    1.1795 C   0  0  0  0  0  0  0  0  0  0  0  0
   -2.8170   -1.9908    2.4703 C   0  0  0  0  0  0  0  0  0  0  0  0
   -2.2646   -4.0143    1.1537 N   0  0  0  0  0  0  0  0  0  0  0  0
   -2.2929   -4.4440   -0.0856 N   0  0  0  0  0  0  0  0  0  0  0  0
   -1.8966   -5.7862   -0.4674 C   0  0  0  0  0  0  0  0  0  0  0  0
   -2.7410   -3.4431   -0.8952 C   0  0  0  0  0  0  0  0  0  0  0  0
   -2.9074   -3.5707   -2.3846 C   0  0  0  0  0  0  0  0  0  0  0  0
   -1.4515    0.3033    0.1685 N   0  0  0  0  0  0  0  0  0  0  0  0
   -0.0738    0.3794   -0.1921 C   0  0  0  0  0  0  0  0  0  0  0  0
    0.2063    0.1904   -1.4184 O   0  0  0  0  0  0  0  0  0  0  0  0
    1.0350    0.6471    0.6869 C   0  0  0  0  0  0  0  0  0  0  0  0
    0.9105    1.2090    1.9324 C   0  0  0  0  0  0  0  0  0  0  0  0
    1.9989    1.4545    2.7409 C   0  0  0  0  0  0  0  0  0  0  0  0
    3.2767    1.1426    2.3321 C   0  0  0  0  0  0  0  0  0  0  0  0
    3.4412    0.5735    1.0842 C   0  0  0  0  0  0  0  0  0  0  0  0
    2.3284    0.3381    0.2880 C   0  0  0  0  0  0  0  0  0  0  0  0
    4.7781    0.1953    0.6054 C   0  0  0  0  0  0  0  0  0  0  0  0
    5.1880    0.4693   -0.6852 C   0  0  0  0  0  0  0  0  0  0  0  0
    6.4209    0.0958   -1.1675 C   0  0  0  0  0  0  0  0  0  0  0  0
    7.2953   -0.5792   -0.3412 C   0  0  0  0  0  0  0  0  0  0  0  0
    6.9325   -0.8745    0.9526 C   0  0  0  0  0  0  0  0  0  0  0  0
    7.8132   -1.5544    1.7721 C   0  0  0  0  0  0  0  0  0  0  0  0
    7.4757   -1.8619    3.0647 C   0  0  0  0  0  0  0  0  0  0  0  0
    6.2110   -1.4570    3.4969 C   0  0  0  0  0  0  0  0  0  0  0  0
    5.3799   -0.8001    2.6761 N   0  0  0  0  0  0  0  0  0  0  0  0
    5.6711   -0.4788    1.4062 C   0  0  0  0  0  0  0  0  0  0  0  0
    6.8302    0.3831   -2.5644 C   0  0  0  0  0  0  0  0  0  0  0  0
    5.7246    0.2538   -3.3942 F   0  0  0  0  0  0  0  0  0  0  0  0
    7.8298   -0.4957   -2.9730 F   0  0  0  0  0  0  0  0  0  0  0  0
    7.3375    1.6658   -2.6152 F   0  0  0  0  0  0  0  0  0  0  0  0
   -5.0737    4.8313   -3.9077 H   0  0  0  0  0  0  0  0  0  0  0  0
   -4.9428    6.4231   -3.1714 H   0  0  0  0  0  0  0  0  0  0  0  0
   -6.5704    5.6054   -3.2590 H   0  0  0  0  0  0  0  0  0  0  0  0
   -4.0839    3.1882   -3.7310 H   0  0  0  0  0  0  0  0  0  0  0  0
   -2.9070    1.1423   -3.2412 H   0  0  0  0  0  0  0  0  0  0  0  0
   -3.6135    1.6960    0.8890 H   0  0  0  0  0  0  0  0  0  0  0  0
   -3.8026    3.3928    2.3649 H   0  0  0  0  0  0  0  0  0  0  0  0
   -5.3697    2.5375    2.1186 H   0  0  0  0  0  0  0  0  0  0  0  0
   -5.3575    4.2652    2.6380 H   0  0  0  0  0  0  0  0  0  0  0  0
   -1.9023   -0.2377   -1.7633 H   0  0  0  0  0  0  0  0  0  0  0  0
   -4.2566   -0.6177    0.1845 H   0  0  0  0  0  0  0  0  0  0  0  0
   -4.0590   -1.1467   -1.4851 H   0  0  0  0  0  0  0  0  0  0  0  0
   -1.8175   -1.8767    2.8900 H   0  0  0  0  0  0  0  0  0  0  0  0
   -3.3286   -0.9963    2.2636 H   0  0  0  0  0  0  0  0  0  0  0  0
   -3.5228   -2.4923    3.1753 H   0  0  0  0  0  0  0  0  0  0  0  0
   -0.7867   -5.8293   -0.4244 H   0  0  0  0  0  0  0  0  0  0  0  0
   -2.2463   -6.4715    0.3511 H   0  0  0  0  0  0  0  0  0  0  0  0
   -2.3052   -6.1345   -1.4164 H   0  0  0  0  0  0  0  0  0  0  0  0
   -2.6928   -4.6011   -2.6784 H   0  0  0  0  0  0  0  0  0  0  0  0
   -2.1979   -2.9225   -2.9261 H   0  0  0  0  0  0  0  0  0  0  0  0
   -3.9648   -3.3487   -2.6907 H   0  0  0  0  0  0  0  0  0  0  0  0
   -1.6804    0.4747    1.1623 H   0  0  0  0  0  0  0  0  0  0  0  0
   -0.0511    1.4901    2.3305 H   0  0  0  0  0  0  0  0  0  0  0  0
    1.8443    1.9114    3.7362 H   0  0  0  0  0  0  0  0  0  0  0  0
    4.1190    1.3688    3.0035 H   0  0  0  0  0  0  0  0  0  0  0  0
    2.4952   -0.0924   -0.6805 H   0  0  0  0  0  0  0  0  0  0  0  0
    4.5222    0.9946   -1.3577 H   0  0  0  0  0  0  0  0  0  0  0  0
    8.2705   -0.8778   -0.7175 H   0  0  0  0  0  0  0  0  0  0  0  0
    8.8043   -1.8667    1.4202 H   0  0  0  0  0  0  0  0  0  0  0  0
    8.1455   -2.3886    3.7295 H   0  0  0  0  0  0  0  0  0  0  0  0
    5.9671   -1.7071    4.5137 H   0  0  0  0  0  0  0  0  0  0  0  0
  1  2  1  0
  2  3  1  0
  3  4  2  0
  4  5  1  0
  5  6  2  0
  6  7  1  0
  7  8  2  0
  8  9  1  0
  9 10  1  0
  6 11  1  0
 11 12  1  0
 12 13  1  0
 13 14  1  0
 14 15  1  0
 14 16  2  0
 16 17  1  0
 17 18  1  0
 17 19  1  0
 19 20  1  0
 11 21  1  0
 21 22  1  0
 22 23  2  0
 22 24  1  0
 24 25  2  0
 25 26  1  0
 26 27  2  0
 27 28  1  0
 28 29  2  0
 28 30  1  0
 30 31  2  0
 31 32  1  0
 32 33  2  0
 33 34  1  0
 34 35  2  0
 35 36  1  0
 36 37  2  0
 37 38  1  0
 38 39  2  0
 32 40  1  0
 40 41  1  0
 40 42  1  0
 40 43  1  0
  8  3  1  0
 19 13  2  0
 29 24  1  0
 39 30  1  0
 39 34  1  0
  1 44  1  0
  1 45  1  0
  1 46  1  0
  4 47  1  0
  5 48  1  0
  7 49  1  0
 10 50  1  0
 10 51  1  0
 10 52  1  0
 11 53  1  6
 12 54  1  0
 12 55  1  0
 15 56  1  0
 15 57  1  0
 15 58  1  0
 18 59  1  0
 18 60  1  0
 18 61  1  0
 20 62  1  0
 20 63  1  0
 20 64  1  0
 21 65  1  0
 25 66  1  0
 26 67  1  0
 27 68  1  0
 29 69  1  0
 31 70  1  0
 33 71  1  0
 35 72  1  0
 36 73  1  0
 37 74  1  0
M  END
$$$$
[H]OC(=O)c1nc(Oc2c([H])c([H])c3c([H])c([H])c(=O)n([H])c3c2[H])c2c([H])c([H])c(O[H])c([H])c2c1[H]
     RDKit          3D

 38 41  0  0  0  0  0  0  0  0999 V2000
   -2.0571   -3.6445    2.1652 O   0  0  0  0  0  0  0  0  0  0  0  0
   -2.8925   -3.0345    1.2503 C   0  0  0  0  0  0  0  0  0  0  0  0
   -3.8842   -3.7097    0.8616 O   0  0  0  0  0  0  0  0  0  0  0  0
   -2.6480   -1.6764    0.7524 C   0  0  0  0  0  0  0  0  0  0  0  0
   -3.4830   -1.0726   -0.1588 C   0  0  0  0  0  0  0  0  0  0  0  0
   -3.2645    0.2010   -0.6324 C   0  0  0  0  0  0  0  0  0  0  0  0
   -4.1106    0.8100   -1.5343 C   0  0  0  0  0  0  0  0  0  0  0  0
   -3.8968    2.0876   -1.9927 C   0  0  0  0  0  0  0  0  0  0  0  0
   -4.7755    2.6739   -2.9077 O   0  0  0  0  0  0  0  0  0  0  0  0
   -2.8128    2.8039   -1.5543 C   0  0  0  0  0  0  0  0  0  0  0  0
   -1.9515    2.2273   -0.6576 C   0  0  0  0  0  0  0  0  0  0  0  0
   -2.1693    0.9456   -0.2022 C   0  0  0  0  0  0  0  0  0  0  0  0
   -1.3493    0.3227    0.7052 C   0  0  0  0  0  0  0  0  0  0  0  0
   -0.2213    0.9916    1.1843 O   0  0  0  0  0  0  0  0  0  0  0  0
    1.0618    0.7973    0.7166 C   0  0  0  0  0  0  0  0  0  0  0  0
    1.6520    1.5110   -0.2835 C   0  0  0  0  0  0  0  0  0  0  0  0
    2.9606    1.2485   -0.6984 C   0  0  0  0  0  0  0  0  0  0  0  0
    3.6727    0.2441   -0.0822 C   0  0  0  0  0  0  0  0  0  0  0  0
    4.9822   -0.0328   -0.4831 C   0  0  0  0  0  0  0  0  0  0  0  0
    5.6542   -1.0470    0.1634 C   0  0  0  0  0  0  0  0  0  0  0  0
    5.0884   -1.7837    1.1736 C   0  0  0  0  0  0  0  0  0  0  0  0
    5.6645   -2.7133    1.7867 O   0  0  0  0  0  0  0  0  0  0  0  0
    3.8182   -1.4933    1.5414 N   0  0  0  0  0  0  0  0  0  0  0  0
    3.1155   -0.5029    0.9337 C   0  0  0  0  0  0  0  0  0  0  0  0
    1.8236   -0.2161    1.3162 C   0  0  0  0  0  0  0  0  0  0  0  0
   -1.6020   -0.9475    1.1537 N   0  0  0  0  0  0  0  0  0  0  0  0
   -1.1405   -3.9813    1.9031 H   0  0  0  0  0  0  0  0  0  0  0  0
   -4.3495   -1.6488   -0.5061 H   0  0  0  0  0  0  0  0  0  0  0  0
   -4.9672    0.2233   -1.8704 H   0  0  0  0  0  0  0  0  0  0  0  0
   -5.5713    3.2036   -2.5199 H   0  0  0  0  0  0  0  0  0  0  0  0
   -2.6508    3.8318   -1.9294 H   0  0  0  0  0  0  0  0  0  0  0  0
   -1.1015    2.8042   -0.2969 H   0  0  0  0  0  0  0  0  0  0  0  0
    1.1650    2.3154   -0.8165 H   0  0  0  0  0  0  0  0  0  0  0  0
    3.4203    1.8235   -1.4961 H   0  0  0  0  0  0  0  0  0  0  0  0
    5.3844    0.5662   -1.2749 H   0  0  0  0  0  0  0  0  0  0  0  0
    6.6648   -1.2644   -0.1424 H   0  0  0  0  0  0  0  0  0  0  0  0
    3.3714   -2.0463    2.3110 H   0  0  0  0  0  0  0  0  0  0  0  0
    1.3997   -0.8174    2.1212 H   0  0  0  0  0  0  0  0  0  0  0  0
  1  2  1  0
  2  3  2  0
  2  4  1  0
  4  5  2  0
  5  6  1  0
  6  7  2  0
  7  8  1  0
  8  9  1  0
  8 10  2  0
 10 11  1  0
 11 12  2  0
 12 13  1  0
 13 14  1  0
 14 15  1  0
 15 16  2  0
 16 17  1  0
 17 18  2  0
 18 19  1  0
 19 20  2  0
 20 21  1  0
 21 22  2  0
 21 23  1  0
 23 24  1  0
 24 25  2  0
 13 26  2  0
 26  4  1  0
 12  6  1  0
 25 15  1  0
 24 18  1  0
  1 27  1  0
  5 28  1  0
  7 29  1  0
  9 30  1  0
 10 31  1  0
 11 32  1  0
 16 33  1  0
 17 34  1  0
 19 35  1  0
 20 36  1  0
 23 37  1  0
 25 38  1  0
M  END
$$$$
[H]/C(=C(/[H])C([H])([H])N1C([H])([H])C([H])([H])N(C([H])([H])[C@]2([H])ON=C3c4c([H])c([H])c([H])c(OC([H])([H])[H])c4OC([H])([H])[C@]32[H])C([H])([H])C1([H])[H])c1c([H])c([H])c([H])c([H])c1[H]
     RDKit          3D

 60 64  0  0  0  0  0  0  0  0999 V2000
   -9.1679    1.4059    1.5147 C   0  0  0  0  0  0  0  0  0  0  0  0
   -7.7910    1.0985    1.4824 O   0  0  0  0  0  0  0  0  0  0  0  0
   -7.2815    0.4912    0.3455 C   0  0  0  0  0  0  0  0  0  0  0  0
   -8.0819    0.1925   -0.7296 C   0  0  0  0  0  0  0  0  0  0  0  0
   -7.5448   -0.4109   -1.8387 C   0  0  0  0  0  0  0  0  0  0  0  0
   -6.1957   -0.7008   -1.8327 C   0  0  0  0  0  0  0  0  0  0  0  0
   -5.3729   -0.4176   -0.7830 C   0  0  0  0  0  0  0  0  0  0  0  0
   -3.9352   -0.7485   -0.7942 C   0  0  0  0  0  0  0  0  0  0  0  0
   -3.2304   -1.5378   -1.5116 N   0  0  0  0  0  0  0  0  0  0  0  0
   -1.8936   -1.4815   -1.1047 O   0  0  0  0  0  0  0  0  0  0  0  0
   -1.9434   -1.1561    0.2607 C   0  0  1  0  0  0  0  0  0  0  0  0
   -0.7188   -0.7168    0.9236 C   0  0  0  0  0  0  0  0  0  0  0  0
   -0.0379    0.4447    0.5083 N   0  0  0  0  0  0  0  0  0  0  0  0
    1.0981    0.6094    1.4256 C   0  0  0  0  0  0  0  0  0  0  0  0
    2.4002    0.6635    0.7040 C   0  0  0  0  0  0  0  0  0  0  0  0
    2.5944   -0.3563   -0.2981 N   0  0  0  0  0  0  0  0  0  0  0  0
    3.5487    0.2327   -1.2577 C   0  0  0  0  0  0  0  0  0  0  0  0
    4.8523    0.3570   -0.5325 C   0  0  0  0  0  0  0  0  0  0  0  0
    5.8887   -0.2686   -1.0080 C   0  0  0  0  0  0  0  0  0  0  0  0
    7.1737   -0.1962   -0.3640 C   0  0  0  0  0  0  0  0  0  0  0  0
    8.2385   -0.8834   -0.9405 C   0  0  0  0  0  0  0  0  0  0  0  0
    9.4667   -0.8235   -0.3309 C   0  0  0  0  0  0  0  0  0  0  0  0
    9.6577   -0.1010    0.8291 C   0  0  0  0  0  0  0  0  0  0  0  0
    8.6154    0.5719    1.3939 C   0  0  0  0  0  0  0  0  0  0  0  0
    7.3638    0.5236    0.7923 C   0  0  0  0  0  0  0  0  0  0  0  0
    1.3814   -0.7230   -1.0019 C   0  0  0  0  0  0  0  0  0  0  0  0
    0.4047    0.4048   -0.8432 C   0  0  0  0  0  0  0  0  0  0  0  0
   -3.0336   -0.0793    0.1837 C   0  0  2  0  0  0  0  0  0  0  0  0
   -3.7250    0.1383    1.5056 C   0  0  0  0  0  0  0  0  0  0  0  0
   -5.0742    0.4737    1.3905 O   0  0  0  0  0  0  0  0  0  0  0  0
   -5.9129    0.1904    0.3341 C   0  0  0  0  0  0  0  0  0  0  0  0
   -9.4745    2.0115    0.6424 H   0  0  0  0  0  0  0  0  0  0  0  0
   -9.4239    1.8732    2.4724 H   0  0  0  0  0  0  0  0  0  0  0  0
   -9.7662    0.4612    1.4512 H   0  0  0  0  0  0  0  0  0  0  0  0
   -9.1230    0.4311   -0.6992 H   0  0  0  0  0  0  0  0  0  0  0  0
   -8.1937   -0.6475   -2.6968 H   0  0  0  0  0  0  0  0  0  0  0  0
   -5.7683   -1.1724   -2.6978 H   0  0  0  0  0  0  0  0  0  0  0  0
   -2.4204   -2.0056    0.8064 H   0  0  0  0  0  0  0  0  0  0  0  0
   -0.9898   -0.6097    2.0360 H   0  0  0  0  0  0  0  0  0  0  0  0
   -0.0322   -1.6241    0.9763 H   0  0  0  0  0  0  0  0  0  0  0  0
    0.9412    1.5741    1.9476 H   0  0  0  0  0  0  0  0  0  0  0  0
    1.1383   -0.1888    2.1816 H   0  0  0  0  0  0  0  0  0  0  0  0
    2.5618    1.6979    0.2827 H   0  0  0  0  0  0  0  0  0  0  0  0
    3.2068    0.5330    1.4642 H   0  0  0  0  0  0  0  0  0  0  0  0
    3.2492    1.2375   -1.5722 H   0  0  0  0  0  0  0  0  0  0  0  0
    3.6428   -0.4077   -2.1389 H   0  0  0  0  0  0  0  0  0  0  0  0
    4.8488    0.9626    0.3432 H   0  0  0  0  0  0  0  0  0  0  0  0
    5.7771   -0.8613   -1.9155 H   0  0  0  0  0  0  0  0  0  0  0  0
    8.0774   -1.4365   -1.8382 H   0  0  0  0  0  0  0  0  0  0  0  0
   10.3105   -1.3529   -0.7665 H   0  0  0  0  0  0  0  0  0  0  0  0
   10.6218   -0.0534    1.3099 H   0  0  0  0  0  0  0  0  0  0  0  0
    8.7369    1.1466    2.3061 H   0  0  0  0  0  0  0  0  0  0  0  0
    6.5631    1.0800    1.2868 H   0  0  0  0  0  0  0  0  0  0  0  0
    1.6520   -0.7756   -2.0942 H   0  0  0  0  0  0  0  0  0  0  0  0
    1.0058   -1.7087   -0.7445 H   0  0  0  0  0  0  0  0  0  0  0  0
    0.9571    1.3427   -1.1344 H   0  0  0  0  0  0  0  0  0  0  0  0
   -0.4383    0.2806   -1.5286 H   0  0  0  0  0  0  0  0  0  0  0  0
   -2.5823    0.8249   -0.2385 H   0  0  0  0  0  0  0  0  0  0  0  0
   -3.2053    0.9663    2.0257 H   0  0  0  0  0  0  0  0  0  0  0  0
   -3.6162   -0.7758    2.1514 H   0  0  0  0  0  0  0  0  0  0  0  0
  1  2  1  0
  2  3  1  0
  3  4  2  0
  4  5  1  0
  5  6  2  0
  6  7  1  0
  7  8  1  0
  8  9  2  0
  9 10  1  0
 10 11  1  0
 11 12  1  0
 12 13  1  0
 13 14  1  0
 14 15  1  0
 15 16  1  0
 16 17  1  0
 17 18  1  0
 18 19  2  0
 19 20  1  0
 20 21  2  0
 21 22  1  0
 22 23  2  0
 23 24  1  0
 24 25  2  0
 16 26  1  0
 26 27  1  0
 11 28  1  0
 28 29  1  0
 29 30  1  0
 30 31  1  0
 31  3  1  0
 31  7  2  0
 28  8  1  0
 27 13  1  0
 25 20  1  0
  1 32  1  0
  1 33  1  0
  1 34  1  0
  4 35  1  0
  5 36  1  0
  6 37  1  0
 11 38  1  1
 12 39  1  0
 12 40  1  0
 14 41  1  0
 14 42  1  0
 15 43  1  0
 15 44  1  0
 17 45  1  0
 17 46  1  0
 18 47  1  0
 19 48  1  0
 21 49  1  0
 22 50  1  0
 23 51  1  0
 24 52  1  0
 25 53  1  0
 26 54  1  0
 26 55  1  0
 27 56  1  0
 27 57  1  0
 28 58  1  6
 29 59  1  0
 29 60  1  0
M  END
$$$$
[H]OC(=O)[C@@]1([H])N(C(=O)[C@]([H])(N([H])S(=O)(=O)c2c([H])c([H])c(OC([H])([H])[H])c([H])c2[H])C([H])(C([H])([H])[H])C([H])([H])[H])C([H])([H])C([H])([H])C1([H])[H]
     RDKit          3D

 50 51  0  0  0  0  0  0  0  0999 V2000
    6.7281    1.0060    1.2073 C   0  0  0  0  0  0  0  0  0  0  0  0
    5.4805    1.6341    1.3949 O   0  0  0  0  0  0  0  0  0  0  0  0
    4.4399    1.3264    0.5301 C   0  0  0  0  0  0  0  0  0  0  0  0
    4.5995    0.4320   -0.4934 C   0  0  0  0  0  0  0  0  0  0  0  0
    3.5805    0.1139   -1.3611 C   0  0  0  0  0  0  0  0  0  0  0  0
    2.3453    0.7225   -1.1921 C   0  0  0  0  0  0  0  0  0  0  0  0
    2.2008    1.6206   -0.1572 C   0  0  0  0  0  0  0  0  0  0  0  0
    3.2237    1.9434    0.7183 C   0  0  0  0  0  0  0  0  0  0  0  0
    0.9926    0.4115   -2.2173 S   0  0  0  0  0  0  0  0  0  0  0  0
    0.1461    1.6732   -2.2613 O   0  0  0  0  0  0  0  0  0  0  0  0
    1.4569    0.1617   -3.6346 O   0  0  0  0  0  0  0  0  0  0  0  0
    0.0477   -0.9218   -1.7339 N   0  0  0  0  0  0  0  0  0  0  0  0
   -0.5433   -0.7217   -0.3840 C   0  0  2  0  0  0  0  0  0  0  0  0
    0.1707   -1.7586    0.4641 C   0  0  0  0  0  0  0  0  0  0  0  0
   -0.0452   -3.1572   -0.0058 C   0  0  0  0  0  0  0  0  0  0  0  0
   -0.1405   -1.5851    1.9216 C   0  0  0  0  0  0  0  0  0  0  0  0
   -1.9907   -0.9253   -0.4294 C   0  0  0  0  0  0  0  0  0  0  0  0
   -2.4734   -1.8123   -1.1588 O   0  0  0  0  0  0  0  0  0  0  0  0
   -2.8846   -0.1234    0.3478 N   0  0  0  0  0  0  0  0  0  0  0  0
   -2.4646    0.9411    1.2259 C   0  0  0  0  0  0  0  0  0  0  0  0
   -3.6093    1.9419    1.1174 C   0  0  0  0  0  0  0  0  0  0  0  0
   -4.7709    0.9396    1.3033 C   0  0  0  0  0  0  0  0  0  0  0  0
   -4.3226   -0.2266    0.4077 C   0  0  1  0  0  0  0  0  0  0  0  0
   -4.9912   -0.1258   -0.9064 C   0  0  0  0  0  0  0  0  0  0  0  0
   -4.3035    0.1510   -2.0496 O   0  0  0  0  0  0  0  0  0  0  0  0
   -6.2326   -0.3019   -0.9549 O   0  0  0  0  0  0  0  0  0  0  0  0
    6.5786   -0.0948    1.2469 H   0  0  0  0  0  0  0  0  0  0  0  0
    7.4528    1.3129    1.9931 H   0  0  0  0  0  0  0  0  0  0  0  0
    7.0786    1.2461    0.1967 H   0  0  0  0  0  0  0  0  0  0  0  0
    5.5658   -0.0387   -0.6188 H   0  0  0  0  0  0  0  0  0  0  0  0
    3.7049   -0.5895   -2.1666 H   0  0  0  0  0  0  0  0  0  0  0  0
    1.2564    2.1462    0.0408 H   0  0  0  0  0  0  0  0  0  0  0  0
    3.0726    2.6522    1.5180 H   0  0  0  0  0  0  0  0  0  0  0  0
   -0.6820   -1.1797   -2.4240 H   0  0  0  0  0  0  0  0  0  0  0  0
   -0.2034    0.2680   -0.0463 H   0  0  0  0  0  0  0  0  0  0  0  0
    1.2802   -1.5574    0.3673 H   0  0  0  0  0  0  0  0  0  0  0  0
    0.7979   -3.7805    0.3929 H   0  0  0  0  0  0  0  0  0  0  0  0
   -0.9684   -3.6233    0.3930 H   0  0  0  0  0  0  0  0  0  0  0  0
    0.0034   -3.2215   -1.1066 H   0  0  0  0  0  0  0  0  0  0  0  0
    0.0775   -0.5606    2.2424 H   0  0  0  0  0  0  0  0  0  0  0  0
    0.4625   -2.3174    2.5312 H   0  0  0  0  0  0  0  0  0  0  0  0
   -1.2302   -1.8004    2.0720 H   0  0  0  0  0  0  0  0  0  0  0  0
   -1.5370    1.4482    0.9216 H   0  0  0  0  0  0  0  0  0  0  0  0
   -2.4094    0.5246    2.2554 H   0  0  0  0  0  0  0  0  0  0  0  0
   -3.6011    2.3267    0.0892 H   0  0  0  0  0  0  0  0  0  0  0  0
   -3.5941    2.6901    1.9082 H   0  0  0  0  0  0  0  0  0  0  0  0
   -4.7759    0.6676    2.3623 H   0  0  0  0  0  0  0  0  0  0  0  0
   -5.7314    1.3562    1.0101 H   0  0  0  0  0  0  0  0  0  0  0  0
   -4.5713   -1.1612    0.9562 H   0  0  0  0  0  0  0  0  0  0  0  0
   -4.6670   -0.0731   -2.9858 H   0  0  0  0  0  0  0  0  0  0  0  0
  1  2  1  0
  2  3  1  0
  3  4  2  0
  4  5  1  0
  5  6  2  0
  6  7  1  0
  7  8  2  0
  6  9  1  0
  9 10  2  0
  9 11  2  0
  9 12  1  0
 12 13  1  0
 13 14  1  0
 14 15  1  0
 14 16  1  0
 13 17  1  0
 17 18  2  0
 17 19  1  0
 19 20  1  0
 20 21  1  0
 21 22  1  0
 22 23  1  0
 23 24  1  0
 24 25  1  0
 24 26  2  0
  8  3  1  0
 23 19  1  0
  1 27  1  0
  1 28  1  0
  1 29  1  0
  4 30  1  0
  5 31  1  0
  7 32  1  0
  8 33  1  0
 12 34  1  0
 13 35  1  1
 14 36  1  0
 15 37  1  0
 15 38  1  0
 15 39  1  0
 16 40  1  0
 16 41  1  0
 16 42  1  0
 20 43  1  0
 20 44  1  0
 21 45  1  0
 21 46  1  0
 22 47  1  0
 22 48  1  0
 23 49  1  1
 25 50  1  0
M  END
$$$$
[H]c1c(Br)c([H])c2c(c1[H])c([H])c([H])n2C([H])([H])n1c(C([H])([H])C([H])([H])C([H])([H])C([H])([H])C([H])([H])C([H])([H])C([H])([H])C([H])([H])[H])nc(C([H])([H])C([H])([H])C([H])([H])[H])c1C(=O)N([H])C1([H])C([H])([H])C([H])([H])C([H])([H])C([H])([H])C1([H])[H]
     RDKit          3D

 79 82  0  0  0  0  0  0  0  0999 V2000
    8.6621   -1.0523   -0.8345 C   0  0  0  0  0  0  0  0  0  0  0  0
    8.0786   -2.3083   -0.2348 C   0  0  0  0  0  0  0  0  0  0  0  0
    6.5712   -2.2355   -0.2478 C   0  0  0  0  0  0  0  0  0  0  0  0
    6.0515   -1.0966    0.6144 C   0  0  0  0  0  0  0  0  0  0  0  0
    4.5207   -1.0659    0.5138 C   0  0  0  0  0  0  0  0  0  0  0  0
    3.9853   -0.0076    1.4326 C   0  0  0  0  0  0  0  0  0  0  0  0
    2.4447    0.1382    1.2452 C   0  0  0  0  0  0  0  0  0  0  0  0
    2.1815    0.7028   -0.0883 C   0  0  0  0  0  0  0  0  0  0  0  0
    0.7795    0.7489   -0.5618 C   0  0  0  0  0  0  0  0  0  0  0  0
    0.4751    0.4345   -1.8417 N   0  0  0  0  0  0  0  0  0  0  0  0
   -0.8797    0.4536   -2.0446 C   0  0  0  0  0  0  0  0  0  0  0  0
   -1.4971    0.2784   -3.3819 C   0  0  0  0  0  0  0  0  0  0  0  0
   -2.1716   -0.9536   -3.7408 C   0  0  0  0  0  0  0  0  0  0  0  0
   -2.6327   -0.7795   -5.2219 C   0  0  0  0  0  0  0  0  0  0  0  0
   -1.3821    0.7830   -0.8326 C   0  0  0  0  0  0  0  0  0  0  0  0
   -2.8237    0.7267   -0.4215 C   0  0  0  0  0  0  0  0  0  0  0  0
   -3.3274    1.8538   -0.3129 O   0  0  0  0  0  0  0  0  0  0  0  0
   -3.4216   -0.4682   -0.2022 N   0  0  0  0  0  0  0  0  0  0  0  0
   -4.0439   -1.7043    0.0258 C   0  0  0  0  0  0  0  0  0  0  0  0
   -3.5653   -2.8427   -0.8844 C   0  0  0  0  0  0  0  0  0  0  0  0
   -3.8937   -4.1658   -0.2968 C   0  0  0  0  0  0  0  0  0  0  0  0
   -5.1109   -4.2265    0.5689 C   0  0  0  0  0  0  0  0  0  0  0  0
   -5.0582   -3.1994    1.6880 C   0  0  0  0  0  0  0  0  0  0  0  0
   -3.8910   -2.2409    1.4578 C   0  0  0  0  0  0  0  0  0  0  0  0
   -0.3889    0.9811    0.0725 N   0  0  0  0  0  0  0  0  0  0  0  0
   -0.4679    1.5601    1.4341 C   0  0  0  0  0  0  0  0  0  0  0  0
   -0.5146    3.0404    1.3233 N   0  0  0  0  0  0  0  0  0  0  0  0
    0.2292    3.7793    0.4722 C   0  0  0  0  0  0  0  0  0  0  0  0
   -0.2373    5.0506    0.5620 C   0  0  0  0  0  0  0  0  0  0  0  0
   -1.2839    5.1298    1.4814 C   0  0  0  0  0  0  0  0  0  0  0  0
   -2.0233    6.1962    1.9670 C   0  0  0  0  0  0  0  0  0  0  0  0
   -2.9716    5.9909    2.9718 C   0  0  0  0  0  0  0  0  0  0  0  0
   -3.1215    4.7028    3.4358 C   0  0  0  0  0  0  0  0  0  0  0  0
   -4.3630    4.4202    4.8725 Br  0  0  0  0  0  0  0  0  0  0  0  0
   -2.3765    3.6717    2.9307 C   0  0  0  0  0  0  0  0  0  0  0  0
   -1.4088    3.8245    1.9218 C   0  0  0  0  0  0  0  0  0  0  0  0
    9.4077   -1.3384   -1.6281 H   0  0  0  0  0  0  0  0  0  0  0  0
    9.1722   -0.4119   -0.1093 H   0  0  0  0  0  0  0  0  0  0  0  0
    7.8716   -0.5077   -1.4270 H   0  0  0  0  0  0  0  0  0  0  0  0
    8.4997   -2.4309    0.7979 H   0  0  0  0  0  0  0  0  0  0  0  0
    8.4274   -3.1980   -0.7742 H   0  0  0  0  0  0  0  0  0  0  0  0
    6.1492   -3.1630    0.2013 H   0  0  0  0  0  0  0  0  0  0  0  0
    6.1906   -2.1720   -1.2739 H   0  0  0  0  0  0  0  0  0  0  0  0
    6.2983   -1.2690    1.6709 H   0  0  0  0  0  0  0  0  0  0  0  0
    6.4977   -0.1155    0.3511 H   0  0  0  0  0  0  0  0  0  0  0  0
    4.0815   -2.0656    0.7767 H   0  0  0  0  0  0  0  0  0  0  0  0
    4.2993   -0.9186   -0.5355 H   0  0  0  0  0  0  0  0  0  0  0  0
    4.0673   -0.3986    2.4983 H   0  0  0  0  0  0  0  0  0  0  0  0
    4.5324    0.8967    1.2871 H   0  0  0  0  0  0  0  0  0  0  0  0
    2.0215   -0.8424    1.5024 H   0  0  0  0  0  0  0  0  0  0  0  0
    2.2142    0.8612    2.0898 H   0  0  0  0  0  0  0  0  0  0  0  0
    2.5975    1.7844   -0.0320 H   0  0  0  0  0  0  0  0  0  0  0  0
    2.8310    0.2533   -0.8523 H   0  0  0  0  0  0  0  0  0  0  0  0
   -0.6444    0.4196   -4.1466 H   0  0  0  0  0  0  0  0  0  0  0  0
   -2.1146    1.2092   -3.6292 H   0  0  0  0  0  0  0  0  0  0  0  0
   -1.5768   -1.8474   -3.6483 H   0  0  0  0  0  0  0  0  0  0  0  0
   -3.1548   -1.1193   -3.2357 H   0  0  0  0  0  0  0  0  0  0  0  0
   -3.0800    0.2334   -5.3154 H   0  0  0  0  0  0  0  0  0  0  0  0
   -1.7160   -0.7473   -5.8752 H   0  0  0  0  0  0  0  0  0  0  0  0
   -3.3118   -1.5646   -5.5148 H   0  0  0  0  0  0  0  0  0  0  0  0
   -4.5232    0.1419    0.2584 H   0  0  0  0  0  0  0  0  0  0  0  0
   -5.1541   -1.6625   -0.1061 H   0  0  0  0  0  0  0  0  0  0  0  0
   -2.5280   -2.7147   -1.1659 H   0  0  0  0  0  0  0  0  0  0  0  0
   -4.2222   -2.7176   -1.8000 H   0  0  0  0  0  0  0  0  0  0  0  0
   -2.9714   -4.6153    0.1400 H   0  0  0  0  0  0  0  0  0  0  0  0
   -4.1264   -4.8764   -1.1592 H   0  0  0  0  0  0  0  0  0  0  0  0
   -5.2217   -5.2640    0.9339 H   0  0  0  0  0  0  0  0  0  0  0  0
   -5.9892   -4.0332   -0.0965 H   0  0  0  0  0  0  0  0  0  0  0  0
   -5.9852   -2.6050    1.6301 H   0  0  0  0  0  0  0  0  0  0  0  0
   -5.0073   -3.7252    2.6488 H   0  0  0  0  0  0  0  0  0  0  0  0
   -3.9807   -1.3707    2.1084 H   0  0  0  0  0  0  0  0  0  0  0  0
   -2.9523   -2.8111    1.5715 H   0  0  0  0  0  0  0  0  0  0  0  0
    0.1714    1.1742    2.1727 H   0  0  0  0  0  0  0  0  0  0  0  0
   -1.5260    1.3462    1.7911 H   0  0  0  0  0  0  0  0  0  0  0  0
    1.0175    3.4750   -0.1847 H   0  0  0  0  0  0  0  0  0  0  0  0
    0.1309    5.8987    0.0071 H   0  0  0  0  0  0  0  0  0  0  0  0
   -1.8437    7.1683    1.5657 H   0  0  0  0  0  0  0  0  0  0  0  0
   -3.5018    6.8568    3.3473 H   0  0  0  0  0  0  0  0  0  0  0  0
   -2.4702    2.6668    3.3162 H   0  0  0  0  0  0  0  0  0  0  0  0
  1  2  1  0
  2  3  1  0
  3  4  1  0
  4  5  1  0
  5  6  1  0
  6  7  1  0
  7  8  1  0
  8  9  1  0
  9 10  2  0
 10 11  1  0
 11 12  1  0
 12 13  1  0
 13 14  1  0
 11 15  2  0
 15 16  1  0
 16 17  2  0
 16 18  1  0
 18 19  1  0
 19 20  1  0
 20 21  1  0
 21 22  1  0
 22 23  1  0
 23 24  1  0
 15 25  1  0
 25 26  1  0
 26 27  1  0
 27 28  1  0
 28 29  2  0
 29 30  1  0
 30 31  2  0
 31 32  1  0
 32 33  2  0
 33 34  1  0
 33 35  1  0
 35 36  2  0
 25  9  1  0
 36 27  1  0
 24 19  1  0
 36 30  1  0
  1 37  1  0
  1 38  1  0
  1 39  1  0
  2 40  1  0
  2 41  1  0
  3 42  1  0
  3 43  1  0
  4 44  1  0
  4 45  1  0
  5 46  1  0
  5 47  1  0
  6 48  1  0
  6 49  1  0
  7 50  1  0
  7 51  1  0
  8 52  1  0
  8 53  1  0
 12 54  1  0
 12 55  1  0
 13 56  1  0
 13 57  1  0
 14 58  1  0
 14 59  1  0
 14 60  1  0
 18 61  1  0
 19 62  1  0
 20 63  1  0
 20 64  1  0
 21 65  1  0
 21 66  1  0
 22 67  1  0
 22 68  1  0
 23 69  1  0
 23 70  1  0
 24 71  1  0
 24 72  1  0
 26 73  1  0
 26 74  1  0
 28 75  1  0
 29 76  1  0
 31 77  1  0
 32 78  1  0
 35 79  1  0
M  END
$$$$
[H]c1c([H])c(N([H])c2nc3c([H])c([H])c(C(=O)N([H])OC([H])([H])[H])c([H])c3n3c([H])nc([H])c23)c([H])c(OC([H])([H])[H])c1OC([H])([H])C([H])([H])C1([H])C([H])([H])C([H])([H])N(C([H])([H])[H])C([H])([H])C1([H])[H]
     RDKit          3D

 69 73  0  0  0  0  0  0  0  0999 V2000
   11.3663   -0.9833   -0.6710 C   0  0  0  0  0  0  0  0  0  0  0  0
   10.3681   -1.8522   -1.1265 O   0  0  0  0  0  0  0  0  0  0  0  0
    9.1478   -1.3181   -0.8581 N   0  0  0  0  0  0  0  0  0  0  0  0
    7.9789   -2.1088   -0.8767 C   0  0  0  0  0  0  0  0  0  0  0  0
    8.1115   -3.3430   -1.1545 O   0  0  0  0  0  0  0  0  0  0  0  0
    6.6526   -1.6208   -0.6038 C   0  0  0  0  0  0  0  0  0  0  0  0
    5.5449   -2.4667   -0.5519 C   0  0  0  0  0  0  0  0  0  0  0  0
    4.2792   -2.0010   -0.2809 C   0  0  0  0  0  0  0  0  0  0  0  0
    4.0906   -0.6547   -0.0516 C   0  0  0  0  0  0  0  0  0  0  0  0
    2.8659   -0.1863    0.2273 N   0  0  0  0  0  0  0  0  0  0  0  0
    2.6788    1.1289    0.4654 C   0  0  0  0  0  0  0  0  0  0  0  0
    1.4352    1.6817    0.8120 N   0  0  0  0  0  0  0  0  0  0  0  0
    0.1920    0.9607    0.9055 C   0  0  0  0  0  0  0  0  0  0  0  0
   -0.1267   -0.1208    0.1477 C   0  0  0  0  0  0  0  0  0  0  0  0
   -1.3332   -0.7761    0.3561 C   0  0  0  0  0  0  0  0  0  0  0  0
   -2.2396   -0.3780    1.3084 C   0  0  0  0  0  0  0  0  0  0  0  0
   -3.4086   -1.0222    1.4975 O   0  0  0  0  0  0  0  0  0  0  0  0
   -3.9581   -2.0722    0.8367 C   0  0  0  0  0  0  0  0  0  0  0  0
   -4.3092   -1.7243   -0.5857 C   0  0  0  0  0  0  0  0  0  0  0  0
   -5.3054   -0.5578   -0.4807 C   0  0  0  0  0  0  0  0  0  0  0  0
   -6.5192   -0.9698    0.2960 C   0  0  0  0  0  0  0  0  0  0  0  0
   -7.7436   -0.1696   -0.0164 C   0  0  0  0  0  0  0  0  0  0  0  0
   -7.8850    0.1820   -1.3967 N   0  0  0  0  0  0  0  0  0  0  0  0
   -8.2347    1.5380   -1.6642 C   0  0  0  0  0  0  0  0  0  0  0  0
   -6.9407   -0.4173   -2.2680 C   0  0  0  0  0  0  0  0  0  0  0  0
   -5.5533   -0.0487   -1.8497 C   0  0  0  0  0  0  0  0  0  0  0  0
   -1.9155    0.7484    2.1025 C   0  0  0  0  0  0  0  0  0  0  0  0
   -2.8496    1.1141    3.0451 O   0  0  0  0  0  0  0  0  0  0  0  0
   -2.7636    2.1767    3.9410 C   0  0  0  0  0  0  0  0  0  0  0  0
   -0.7350    1.3647    1.8770 C   0  0  0  0  0  0  0  0  0  0  0  0
    3.7766    1.9931    0.4154 C   0  0  0  0  0  0  0  0  0  0  0  0
    3.8617    3.3390    0.6097 C   0  0  0  0  0  0  0  0  0  0  0  0
    5.1561    3.6743    0.4443 N   0  0  0  0  0  0  0  0  0  0  0  0
    5.8626    2.5841    0.1562 C   0  0  0  0  0  0  0  0  0  0  0  0
    5.0110    1.5388    0.1367 N   0  0  0  0  0  0  0  0  0  0  0  0
    5.1749    0.2242   -0.0958 C   0  0  0  0  0  0  0  0  0  0  0  0
    6.4230   -0.2839   -0.3701 C   0  0  0  0  0  0  0  0  0  0  0  0
   10.9217   -0.1449   -0.1191 H   0  0  0  0  0  0  0  0  0  0  0  0
   12.0144   -1.5766    0.0033 H   0  0  0  0  0  0  0  0  0  0  0  0
   11.9319   -0.6356   -1.5791 H   0  0  0  0  0  0  0  0  0  0  0  0
    9.0873   -0.3238   -0.6392 H   0  0  0  0  0  0  0  0  0  0  0  0
    5.7635   -3.5120   -0.7399 H   0  0  0  0  0  0  0  0  0  0  0  0
    3.4699   -2.7181   -0.2587 H   0  0  0  0  0  0  0  0  0  0  0  0
    1.3693    2.7022    1.0265 H   0  0  0  0  0  0  0  0  0  0  0  0
    0.5586   -0.4748   -0.6400 H   0  0  0  0  0  0  0  0  0  0  0  0
   -1.4995   -1.6547   -0.2837 H   0  0  0  0  0  0  0  0  0  0  0  0
   -4.9371   -2.3327    1.3577 H   0  0  0  0  0  0  0  0  0  0  0  0
   -3.3184   -3.0021    0.8211 H   0  0  0  0  0  0  0  0  0  0  0  0
   -3.5071   -1.4865   -1.2575 H   0  0  0  0  0  0  0  0  0  0  0  0
   -4.9385   -2.5618   -1.0240 H   0  0  0  0  0  0  0  0  0  0  0  0
   -4.7202    0.2390    0.0668 H   0  0  0  0  0  0  0  0  0  0  0  0
   -6.2960   -0.8240    1.3723 H   0  0  0  0  0  0  0  0  0  0  0  0
   -6.6893   -2.0538    0.1443 H   0  0  0  0  0  0  0  0  0  0  0  0
   -8.6304   -0.7609    0.2759 H   0  0  0  0  0  0  0  0  0  0  0  0
   -7.7719    0.7605    0.5849 H   0  0  0  0  0  0  0  0  0  0  0  0
   -7.8603    1.8241   -2.6502 H   0  0  0  0  0  0  0  0  0  0  0  0
   -7.8986    2.2464   -0.8687 H   0  0  0  0  0  0  0  0  0  0  0  0
   -9.3570    1.5977   -1.6913 H   0  0  0  0  0  0  0  0  0  0  0  0
   -7.1073    0.0048   -3.2900 H   0  0  0  0  0  0  0  0  0  0  0  0
   -7.0412   -1.5150   -2.3711 H   0  0  0  0  0  0  0  0  0  0  0  0
   -4.8537   -0.5524   -2.5727 H   0  0  0  0  0  0  0  0  0  0  0  0
   -5.3668    1.0417   -1.9661 H   0  0  0  0  0  0  0  0  0  0  0  0
   -2.0058    1.9852    4.7489 H   0  0  0  0  0  0  0  0  0  0  0  0
   -2.5345    3.1367    3.4739 H   0  0  0  0  0  0  0  0  0  0  0  0
   -3.7328    2.2244    4.5014 H   0  0  0  0  0  0  0  0  0  0  0  0
   -0.4622    2.2268    2.4655 H   0  0  0  0  0  0  0  0  0  0  0  0
    3.0896    4.0451    0.8479 H   0  0  0  0  0  0  0  0  0  0  0  0
    6.9352    2.4780   -0.0425 H   0  0  0  0  0  0  0  0  0  0  0  0
    7.2305    0.4435   -0.3944 H   0  0  0  0  0  0  0  0  0  0  0  0
  1  2  1  0
  2  3  1  0
  3  4  1  0
  4  5  2  0
  4  6  1  0
  6  7  2  0
  7  8  1  0
  8  9  2  0
  9 10  1  0
 10 11  2  0
 11 12  1  0
 12 13  1  0
 13 14  2  0
 14 15  1  0
 15 16  2  0
 16 17  1  0
 17 18  1  0
 18 19  1  0
 19 20  1  0
 20 21  1  0
 21 22  1  0
 22 23  1  0
 23 24  1  0
 23 25  1  0
 25 26  1  0
 16 27  1  0
 27 28  1  0
 28 29  1  0
 27 30  2  0
 11 31  1  0
 31 32  2  0
 32 33  1  0
 33 34  2  0
 34 35  1  0
 35 36  1  0
 36 37  2  0
 37  6  1  0
 36  9  1  0
 30 13  1  0
 35 31  1  0
 26 20  1  0
  1 38  1  0
  1 39  1  0
  1 40  1  0
  3 41  1  0
  7 42  1  0
  8 43  1  0
 12 44  1  0
 14 45  1  0
 15 46  1  0
 18 47  1  0
 18 48  1  0
 19 49  1  0
 19 50  1  0
 20 51  1  0
 21 52  1  0
 21 53  1  0
 22 54  1  0
 22 55  1  0
 24 56  1  0
 24 57  1  0
 24 58  1  0
 25 59  1  0
 25 60  1  0
 26 61  1  0
 26 62  1  0
 29 63  1  0
 29 64  1  0
 29 65  1  0
 30 66  1  0
 32 67  1  0
 34 68  1  0
 37 69  1  0
M  END
$$$$
[H]c1c([H])c([H])c2c(c1[H])c1c(nc([H])n1[H])c(=O)n2[H]
     RDKit          3D

 21 23  0  0  0  0  0  0  0  0999 V2000
   -2.4977   -2.5405   -0.4576 O   0  0  0  0  0  0  0  0  0  0  0  0
   -1.6116   -1.6422   -0.2956 C   0  0  0  0  0  0  0  0  0  0  0  0
   -0.3138   -1.9618   -0.2386 N   0  0  0  0  0  0  0  0  0  0  0  0
    0.6622   -1.0563   -0.0694 C   0  0  0  0  0  0  0  0  0  0  0  0
    1.9712   -1.4682   -0.0219 C   0  0  0  0  0  0  0  0  0  0  0  0
    2.9343   -0.4798    0.1555 C   0  0  0  0  0  0  0  0  0  0  0  0
    2.5965    0.8583    0.2791 C   0  0  0  0  0  0  0  0  0  0  0  0
    1.2713    1.2332    0.2263 C   0  0  0  0  0  0  0  0  0  0  0  0
    0.2973    0.2711    0.0510 C   0  0  0  0  0  0  0  0  0  0  0  0
   -1.0324    0.6390   -0.0029 C   0  0  0  0  0  0  0  0  0  0  0  0
   -1.6872    1.7955    0.0781 N   0  0  0  0  0  0  0  0  0  0  0  0
   -3.0162    1.6209   -0.0355 C   0  0  0  0  0  0  0  0  0  0  0  0
   -3.1878    0.2960   -0.1938 N   0  0  0  0  0  0  0  0  0  0  0  0
   -1.9996   -0.3434   -0.1799 C   0  0  0  0  0  0  0  0  0  0  0  0
   -0.0192   -2.9720   -0.3291 H   0  0  0  0  0  0  0  0  0  0  0  0
    2.2604   -2.5116   -0.1164 H   0  0  0  0  0  0  0  0  0  0  0  0
    3.9621   -0.7663    0.1969 H   0  0  0  0  0  0  0  0  0  0  0  0
    3.3841    1.6033    0.4172 H   0  0  0  0  0  0  0  0  0  0  0  0
    1.0171    2.2801    0.3237 H   0  0  0  0  0  0  0  0  0  0  0  0
   -1.2239    2.7296    0.2141 H   0  0  0  0  0  0  0  0  0  0  0  0
   -3.7670    2.4151   -0.0013 H   0  0  0  0  0  0  0  0  0  0  0  0
  1  2  2  0
  2  3  1  0
  3  4  1  0
  4  5  2  0
  5  6  1  0
  6  7  2  0
  7  8  1  0
  8  9  2  0
  9 10  1  0
 10 11  1  0
 11 12  1  0
 12 13  2  0
 13 14  1  0
 14  2  1  0
  9  4  1  0
 14 10  2  0
  3 15  1  0
  5 16  1  0
  6 17  1  0
  7 18  1  0
  8 19  1  0
 11 20  1  0
 12 21  1  0
M  END
$$$$
[H]c1nc([H])c([H])c(-c2nc(N([H])C3([H])C([H])([H])C([H])([H])N(C([H])([H])c4c([H])c([H])c([H])c([H])c4[H])C([H])([H])C3([H])[H])c3c([H])c(C([H])([H])[H])sc3n2)c1[H]
     RDKit          3D

 55 59  0  0  0  0  0  0  0  0999 V2000
   -4.5162   -5.8677   -0.2967 C   0  0  0  0  0  0  0  0  0  0  0  0
   -4.2572   -4.3916   -0.2969 C   0  0  0  0  0  0  0  0  0  0  0  0
   -3.0647   -3.7433   -0.3614 C   0  0  0  0  0  0  0  0  0  0  0  0
   -3.0911   -2.3813   -0.3458 C   0  0  0  0  0  0  0  0  0  0  0  0
   -2.0026   -1.4784   -0.4015 C   0  0  0  0  0  0  0  0  0  0  0  0
   -0.6736   -1.9681   -0.4809 N   0  0  0  0  0  0  0  0  0  0  0  0
    0.4878   -1.1435   -0.5469 C   0  0  0  0  0  0  0  0  0  0  0  0
    0.5620   -0.2562   -1.7744 C   0  0  0  0  0  0  0  0  0  0  0  0
    1.3974    0.9944   -1.4485 C   0  0  0  0  0  0  0  0  0  0  0  0
    2.4760    0.6358   -0.5480 N   0  0  0  0  0  0  0  0  0  0  0  0
    3.4553    1.6788   -0.4323 C   0  0  0  0  0  0  0  0  0  0  0  0
    4.5787    1.3569    0.4612 C   0  0  0  0  0  0  0  0  0  0  0  0
    5.6060    0.5186    0.0148 C   0  0  0  0  0  0  0  0  0  0  0  0
    6.6668    0.2046    0.8197 C   0  0  0  0  0  0  0  0  0  0  0  0
    6.7271    0.7241    2.0989 C   0  0  0  0  0  0  0  0  0  0  0  0
    5.7433    1.5435    2.5648 C   0  0  0  0  0  0  0  0  0  0  0  0
    4.6882    1.8455    1.7402 C   0  0  0  0  0  0  0  0  0  0  0  0
    2.0455    0.2086    0.7506 C   0  0  0  0  0  0  0  0  0  0  0  0
    0.6074   -0.2478    0.6659 C   0  0  0  0  0  0  0  0  0  0  0  0
   -2.2490   -0.1667   -0.3733 N   0  0  0  0  0  0  0  0  0  0  0  0
   -3.4432    0.4095   -0.2960 C   0  0  0  0  0  0  0  0  0  0  0  0
   -4.4892   -0.4296   -0.2421 N   0  0  0  0  0  0  0  0  0  0  0  0
   -4.3175   -1.7927   -0.2664 C   0  0  0  0  0  0  0  0  0  0  0  0
   -5.3933   -3.1318   -0.2159 S   0  0  0  0  0  0  0  0  0  0  0  0
   -3.6088    1.8592   -0.2712 C   0  0  0  0  0  0  0  0  0  0  0  0
   -4.8557    2.4400   -0.1905 C   0  0  0  0  0  0  0  0  0  0  0  0
   -5.0253    3.8188   -0.1662 C   0  0  0  0  0  0  0  0  0  0  0  0
   -3.9517    4.6254   -0.2224 N   0  0  0  0  0  0  0  0  0  0  0  0
   -2.7058    4.0966   -0.3025 C   0  0  0  0  0  0  0  0  0  0  0  0
   -2.5396    2.7259   -0.3264 C   0  0  0  0  0  0  0  0  0  0  0  0
   -4.7692   -6.1335   -1.3450 H   0  0  0  0  0  0  0  0  0  0  0  0
   -5.4481   -6.0306    0.2957 H   0  0  0  0  0  0  0  0  0  0  0  0
   -3.6776   -6.4354    0.1081 H   0  0  0  0  0  0  0  0  0  0  0  0
   -2.1310   -4.3519   -0.4236 H   0  0  0  0  0  0  0  0  0  0  0  0
   -0.5377   -3.0279   -0.4916 H   0  0  0  0  0  0  0  0  0  0  0  0
    1.4290   -1.7516   -0.5644 H   0  0  0  0  0  0  0  0  0  0  0  0
   -0.4108    0.0952   -2.1386 H   0  0  0  0  0  0  0  0  0  0  0  0
    1.0973   -0.7719   -2.5983 H   0  0  0  0  0  0  0  0  0  0  0  0
    1.8344    1.3354   -2.3941 H   0  0  0  0  0  0  0  0  0  0  0  0
    0.7073    1.7403   -1.0334 H   0  0  0  0  0  0  0  0  0  0  0  0
    3.7881    1.9318   -1.4665 H   0  0  0  0  0  0  0  0  0  0  0  0
    2.9531    2.6061   -0.0300 H   0  0  0  0  0  0  0  0  0  0  0  0
    5.5100    0.1393   -0.9941 H   0  0  0  0  0  0  0  0  0  0  0  0
    7.4670   -0.4444    0.4807 H   0  0  0  0  0  0  0  0  0  0  0  0
    7.5867    0.4550    2.7176 H   0  0  0  0  0  0  0  0  0  0  0  0
    5.8241    1.9302    3.5684 H   0  0  0  0  0  0  0  0  0  0  0  0
    3.9140    2.5117    2.1495 H   0  0  0  0  0  0  0  0  0  0  0  0
    2.1614    1.0345    1.4832 H   0  0  0  0  0  0  0  0  0  0  0  0
    2.6812   -0.6279    1.1558 H   0  0  0  0  0  0  0  0  0  0  0  0
    0.2976   -0.8082    1.5737 H   0  0  0  0  0  0  0  0  0  0  0  0
   -0.0003    0.6864    0.5716 H   0  0  0  0  0  0  0  0  0  0  0  0
   -5.7309    1.8051   -0.1445 H   0  0  0  0  0  0  0  0  0  0  0  0
   -5.9961    4.2920   -0.1032 H   0  0  0  0  0  0  0  0  0  0  0  0
   -1.8738    4.7881   -0.3453 H   0  0  0  0  0  0  0  0  0  0  0  0
   -1.5328    2.3450   -0.3907 H   0  0  0  0  0  0  0  0  0  0  0  0
  1  2  1  0
  2  3  2  0
  3  4  1  0
  4  5  2  0
  5  6  1  0
  6  7  1  0
  7  8  1  0
  8  9  1  0
  9 10  1  0
 10 11  1  0
 11 12  1  0
 12 13  2  0
 13 14  1  0
 14 15  2  0
 15 16  1  0
 16 17  2  0
 10 18  1  0
 18 19  1  0
  5 20  1  0
 20 21  2  0
 21 22  1  0
 22 23  2  0
 23 24  1  0
 21 25  1  0
 25 26  2  0
 26 27  1  0
 27 28  2  0
 28 29  1  0
 29 30  2  0
 24  2  1  0
 30 25  1  0
 23  4  1  0
 19  7  1  0
 17 12  1  0
  1 31  1  0
  1 32  1  0
  1 33  1  0
  3 34  1  0
  6 35  1  0
  7 36  1  0
  8 37  1  0
  8 38  1  0
  9 39  1  0
  9 40  1  0
 11 41  1  0
 11 42  1  0
 13 43  1  0
 14 44  1  0
 15 45  1  0
 16 46  1  0
 17 47  1  0
 18 48  1  0
 18 49  1  0
 19 50  1  0
 19 51  1  0
 26 52  1  0
 27 53  1  0
 29 54  1  0
 30 55  1  0
M  END
$$$$
[H]N([H])S(=O)(=O)C([H])([H])C([H])([H])C([H])([H])[H]
     RDKit          3D

 16 15  0  0  0  0  0  0  0  0999 V2000
   -2.4302    0.1216    0.4353 C   0  0  0  0  0  0  0  0  0  0  0  0
   -1.1315   -0.5066   -0.0473 C   0  0  0  0  0  0  0  0  0  0  0  0
    0.0228    0.4096    0.2926 C   0  0  0  0  0  0  0  0  0  0  0  0
    1.5358   -0.3240   -0.2705 S   0  0  0  0  0  0  0  0  0  0  0  0
    2.8967    0.6439    0.0717 N   0  0  0  0  0  0  0  0  0  0  0  0
    1.4340   -0.4489   -1.7844 O   0  0  0  0  0  0  0  0  0  0  0  0
    1.6388   -1.7149    0.2658 O   0  0  0  0  0  0  0  0  0  0  0  0
   -2.4177    1.2000    0.2635 H   0  0  0  0  0  0  0  0  0  0  0  0
   -2.5543   -0.0769    1.5291 H   0  0  0  0  0  0  0  0  0  0  0  0
   -3.2554   -0.3754   -0.1205 H   0  0  0  0  0  0  0  0  0  0  0  0
   -1.0164   -1.4683    0.5002 H   0  0  0  0  0  0  0  0  0  0  0  0
   -1.1546   -0.6874   -1.1398 H   0  0  0  0  0  0  0  0  0  0  0  0
    0.0290    0.6643    1.3565 H   0  0  0  0  0  0  0  0  0  0  0  0
   -0.1761    1.3672   -0.2676 H   0  0  0  0  0  0  0  0  0  0  0  0
    3.7467    0.0360    0.0205 H   0  0  0  0  0  0  0  0  0  0  0  0
    2.8326    1.1596    0.9769 H   0  0  0  0  0  0  0  0  0  0  0  0
  1  2  1  0
  2  3  1  0
  3  4  1  0
  4  5  1  0
  4  6  2  0
  4  7  2  0
  1  8  1  0
  1  9  1  0
  1 10  1  0
  2 11  1  0
  2 12  1  0
  3 13  1  0
  3 14  1  0
  5 15  1  0
  5 16  1  0
M  END
$$$$
[H]N=C(N([H])[H])N([H])C([H])([H])C([H])([H])C([H])([H])[C@@]([H])(C([H])=O)N([H])C(=O)[C@@]1([H])N(C(=O)[C@@]([H])(N([H])C(=O)[C@@]([H])(N([H])S(=O)(=O)c2c([H])c([H])c(F)c([H])c2[H])C2([H])C([H])([H])C([H])([H])C([H])([H])C2([H])[H])C([H])([H])[H])C([H])([H])C([H])([H])C1([H])[H]
     RDKit          3D

 82 84  0  0  0  0  0  0  0  0999 V2000
    0.0015   -0.5187    1.1151 C   0  0  0  0  0  0  0  0  0  0  0  0
   -0.4987    0.8587    1.3283 C   0  0  2  0  0  0  0  0  0  0  0  0
   -1.9621    0.8488    1.2241 N   0  0  0  0  0  0  0  0  0  0  0  0
   -2.4952    0.3569   -0.0011 C   0  0  0  0  0  0  0  0  0  0  0  0
   -1.8806    0.0162   -1.0061 O   0  0  0  0  0  0  0  0  0  0  0  0
   -4.0432    0.2040   -0.0115 C   0  0  1  0  0  0  0  0  0  0  0  0
   -4.2415   -1.0173    0.6572 N   0  0  0  0  0  0  0  0  0  0  0  0
   -4.1394   -2.4737   -0.1278 S   0  0  0  0  0  0  0  0  0  0  0  0
   -3.0431   -3.3157    0.5348 O   0  0  0  0  0  0  0  0  0  0  0  0
   -3.7326   -2.3275   -1.5937 O   0  0  0  0  0  0  0  0  0  0  0  0
   -5.6406   -3.3390   -0.1086 C   0  0  0  0  0  0  0  0  0  0  0  0
   -6.2662   -3.5074    1.1290 C   0  0  0  0  0  0  0  0  0  0  0  0
   -7.4178   -4.2531    1.2475 C   0  0  0  0  0  0  0  0  0  0  0  0
   -7.9381   -4.8311    0.1127 C   0  0  0  0  0  0  0  0  0  0  0  0
   -9.0845   -5.5931    0.1741 F   0  0  0  0  0  0  0  0  0  0  0  0
   -7.3499   -4.6921   -1.1346 C   0  0  0  0  0  0  0  0  0  0  0  0
   -6.2139   -3.9419   -1.1934 C   0  0  0  0  0  0  0  0  0  0  0  0
   -4.7390    1.3865    0.3404 C   0  0  0  0  0  0  0  0  0  0  0  0
   -4.5224    2.5617   -0.6138 C   0  0  0  0  0  0  0  0  0  0  0  0
   -5.4966    3.5797   -0.1268 C   0  0  0  0  0  0  0  0  0  0  0  0
   -6.7020    2.7822    0.2554 C   0  0  0  0  0  0  0  0  0  0  0  0
   -6.2513    1.3396    0.4295 C   0  0  0  0  0  0  0  0  0  0  0  0
    0.0375    1.9824    0.6336 C   0  0  0  0  0  0  0  0  0  0  0  0
   -0.5147    3.1141    0.9344 O   0  0  0  0  0  0  0  0  0  0  0  0
    1.0969    2.0103   -0.3462 N   0  0  0  0  0  0  0  0  0  0  0  0
    1.6557    3.2758   -0.8507 C   0  0  0  0  0  0  0  0  0  0  0  0
    1.3953    3.0852   -2.3217 C   0  0  0  0  0  0  0  0  0  0  0  0
    1.7620    1.6169   -2.4966 C   0  0  0  0  0  0  0  0  0  0  0  0
    1.7132    0.9864   -1.1182 C   0  0  1  0  0  0  0  0  0  0  0  0
    3.0135    0.4612   -0.7016 C   0  0  0  0  0  0  0  0  0  0  0  0
    3.5319   -0.4126   -1.4862 O   0  0  0  0  0  0  0  0  0  0  0  0
    3.6778    0.8553    0.4786 N   0  0  0  0  0  0  0  0  0  0  0  0
    4.9057    0.3596    0.9683 C   0  0  1  0  0  0  0  0  0  0  0  0
    6.1743    0.7680    0.2471 C   0  0  0  0  0  0  0  0  0  0  0  0
    7.3903    0.1895    0.9757 C   0  0  0  0  0  0  0  0  0  0  0  0
    7.4179   -1.2838    1.0951 C   0  0  0  0  0  0  0  0  0  0  0  0
    7.7587   -2.0312   -0.0873 N   0  0  0  0  0  0  0  0  0  0  0  0
    9.1525   -2.1491   -0.4923 C   0  0  0  0  0  0  0  0  0  0  0  0
    9.9906   -1.0209   -0.4019 N   0  0  0  0  0  0  0  0  0  0  0  0
    9.6544   -3.2553   -0.9117 N   0  0  0  0  0  0  0  0  0  0  0  0
    5.0347    0.5232    2.4103 C   0  0  0  0  0  0  0  0  0  0  0  0
    4.2039    0.3892    3.2612 O   0  0  0  0  0  0  0  0  0  0  0  0
   -0.3681   -1.0172    0.2310 H   0  0  0  0  0  0  0  0  0  0  0  0
    1.0848   -0.6532    1.3363 H   0  0  0  0  0  0  0  0  0  0  0  0
   -0.4674   -1.1318    1.9760 H   0  0  0  0  0  0  0  0  0  0  0  0
   -0.3182    1.0340    2.4729 H   0  0  0  0  0  0  0  0  0  0  0  0
   -2.5520    1.1707    2.0040 H   0  0  0  0  0  0  0  0  0  0  0  0
   -4.1819   -0.0546   -1.1407 H   0  0  0  0  0  0  0  0  0  0  0  0
   -4.8056   -1.0101    1.5188 H   0  0  0  0  0  0  0  0  0  0  0  0
   -5.8395   -3.0457    2.0043 H   0  0  0  0  0  0  0  0  0  0  0  0
   -7.9018   -4.3939    2.1924 H   0  0  0  0  0  0  0  0  0  0  0  0
   -7.7593   -5.1684   -2.0197 H   0  0  0  0  0  0  0  0  0  0  0  0
   -5.7219   -3.8335   -2.1768 H   0  0  0  0  0  0  0  0  0  0  0  0
   -4.3486    1.8169    1.3277 H   0  0  0  0  0  0  0  0  0  0  0  0
   -3.4946    2.9175   -0.4464 H   0  0  0  0  0  0  0  0  0  0  0  0
   -4.6861    2.2795   -1.6797 H   0  0  0  0  0  0  0  0  0  0  0  0
   -5.0340    4.1398    0.7327 H   0  0  0  0  0  0  0  0  0  0  0  0
   -5.7184    4.3157   -0.9408 H   0  0  0  0  0  0  0  0  0  0  0  0
   -7.4556    2.8917   -0.5447 H   0  0  0  0  0  0  0  0  0  0  0  0
   -7.0687    3.2158    1.2296 H   0  0  0  0  0  0  0  0  0  0  0  0
   -6.6291    0.7475   -0.4207 H   0  0  0  0  0  0  0  0  0  0  0  0
   -6.5884    0.9378    1.4144 H   0  0  0  0  0  0  0  0  0  0  0  0
    2.7055    3.3733   -0.6198 H   0  0  0  0  0  0  0  0  0  0  0  0
    1.0338    4.1313   -0.5120 H   0  0  0  0  0  0  0  0  0  0  0  0
    2.0292    3.7191   -2.9415 H   0  0  0  0  0  0  0  0  0  0  0  0
    0.3149    3.2198   -2.5659 H   0  0  0  0  0  0  0  0  0  0  0  0
    2.7111    1.4707   -3.0243 H   0  0  0  0  0  0  0  0  0  0  0  0
    0.9704    1.1819   -3.1828 H   0  0  0  0  0  0  0  0  0  0  0  0
    0.9811    0.1140   -1.2732 H   0  0  0  0  0  0  0  0  0  0  0  0
    3.1789    1.5875    1.0995 H   0  0  0  0  0  0  0  0  0  0  0  0
    4.8369   -0.7882    0.7558 H   0  0  0  0  0  0  0  0  0  0  0  0
    6.2128    0.3623   -0.7851 H   0  0  0  0  0  0  0  0  0  0  0  0
    6.2849    1.8694    0.2755 H   0  0  0  0  0  0  0  0  0  0  0  0
    8.2228    0.4455    0.2073 H   0  0  0  0  0  0  0  0  0  0  0  0
    7.6941    0.7437    1.8643 H   0  0  0  0  0  0  0  0  0  0  0  0
    6.4354   -1.6684    1.5049 H   0  0  0  0  0  0  0  0  0  0  0  0
    8.1248   -1.5804    1.9459 H   0  0  0  0  0  0  0  0  0  0  0  0
    6.9945   -2.4691   -0.6361 H   0  0  0  0  0  0  0  0  0  0  0  0
   10.3522   -0.7584    0.5693 H   0  0  0  0  0  0  0  0  0  0  0  0
   10.2862   -0.4177   -1.1853 H   0  0  0  0  0  0  0  0  0  0  0  0
    9.0208   -4.1008   -0.9676 H   0  0  0  0  0  0  0  0  0  0  0  0
    6.0692    0.8179    2.7864 H   0  0  0  0  0  0  0  0  0  0  0  0
  1  2  1  0
  2  3  1  0
  3  4  1  0
  4  5  2  0
  4  6  1  0
  6  7  1  0
  7  8  1  0
  8  9  2  0
  8 10  2  0
  8 11  1  0
 11 12  2  0
 12 13  1  0
 13 14  2  0
 14 15  1  0
 14 16  1  0
 16 17  2  0
  6 18  1  0
 18 19  1  0
 19 20  1  0
 20 21  1  0
 21 22  1  0
  2 23  1  0
 23 24  2  0
 23 25  1  0
 25 26  1  0
 26 27  1  0
 27 28  1  0
 28 29  1  0
 29 30  1  0
 30 31  2  0
 30 32  1  0
 32 33  1  0
 33 34  1  0
 34 35  1  0
 35 36  1  0
 36 37  1  0
 37 38  1  0
 38 39  1  0
 38 40  2  3
 33 41  1  0
 41 42  2  0
 17 11  1  0
 22 18  1  0
 29 25  1  0
  1 43  1  0
  1 44  1  0
  1 45  1  0
  2 46  1  1
  3 47  1  0
  6 48  1  6
  7 49  1  0
 12 50  1  0
 13 51  1  0
 16 52  1  0
 17 53  1  0
 18 54  1  0
 19 55  1  0
 19 56  1  0
 20 57  1  0
 20 58  1  0
 21 59  1  0
 21 60  1  0
 22 61  1  0
 22 62  1  0
 26 63  1  0
 26 64  1  0
 27 65  1  0
 27 66  1  0
 28 67  1  0
 28 68  1  0
 29 69  1  6
 32 70  1  0
 33 71  1  1
 34 72  1  0
 34 73  1  0
 35 74  1  0
 35 75  1  0
 36 76  1  0
 36 77  1  0
 37 78  1  0
 39 79  1  0
 39 80  1  0
 40 81  1  0
 41 82  1  0
M  END
$$$$
[H]OC(=O)C(F)(F)F.[H]c1c([H])c([H])c(C([H])([H])OC(=O)N([H])[C@]([H])(C(=O)OC([H])([H])[H])C([H])([H])[N+]([H])([H])[H])c([H])c1[H]
     RDKit          3D

 43 42  0  0  0  0  0  0  0  0999 V2000
   -1.4839   -0.4635    0.3845 O   0  0  0  0  0  0  0  0  0  0  0  0
   -0.4239   -0.3865   -0.5079 C   0  0  0  0  0  0  0  0  0  0  0  0
   -0.6220   -0.8081   -1.6672 O   0  0  0  0  0  0  0  0  0  0  0  0
    0.8663    0.1848   -0.0385 C   0  0  0  0  0  0  0  0  0  0  0  0
    0.6683    1.4762    0.3786 F   0  0  0  0  0  0  0  0  0  0  0  0
    1.7941    0.1720   -1.0648 F   0  0  0  0  0  0  0  0  0  0  0  0
    1.2846   -0.5451    1.0514 F   0  0  0  0  0  0  0  0  0  0  0  0
   -5.6318   -1.7128    1.1136 C   0  0  0  0  0  0  0  0  0  0  0  0
   -4.6370   -0.6741    1.2649 O   0  0  0  0  0  0  0  0  0  0  0  0
   -3.3082   -0.9442    0.8340 C   0  0  0  0  0  0  0  0  0  0  0  0
   -3.1189   -2.0734    0.3293 O   0  0  0  0  0  0  0  0  0  0  0  0
   -2.2952    0.0979    1.0054 C   0  0  2  0  0  0  0  0  0  0  0  0
   -2.8909    1.4894    0.8251 C   0  0  0  0  0  0  0  0  0  0  0  0
   -3.4357    1.5772   -0.5088 N   0  0  0  0  0  0  0  0  0  0  0  0
   -1.1262    0.0005    0.2041 N   0  0  0  0  0  0  0  0  0  0  0  0
    0.1592   -0.0698    0.7842 C   0  0  0  0  0  0  0  0  0  0  0  0
    0.3905   -0.0602    1.9868 O   0  0  0  0  0  0  0  0  0  0  0  0
    1.2893   -0.1534   -0.0540 O   0  0  0  0  0  0  0  0  0  0  0  0
    2.5780   -0.1987    0.5320 C   0  0  0  0  0  0  0  0  0  0  0  0
    3.6910   -0.3247   -0.4025 C   0  0  0  0  0  0  0  0  0  0  0  0
    4.1242   -1.5875   -0.7458 C   0  0  0  0  0  0  0  0  0  0  0  0
    5.1811   -1.7275   -1.6082 C   0  0  0  0  0  0  0  0  0  0  0  0
    5.8432   -0.6287   -2.1573 C   0  0  0  0  0  0  0  0  0  0  0  0
    5.3699    0.5982   -1.7787 C   0  0  0  0  0  0  0  0  0  0  0  0
    4.3170    0.7785   -0.9197 C   0  0  0  0  0  0  0  0  0  0  0  0
   -2.0834    0.3704    0.4279 H   0  0  0  0  0  0  0  0  0  0  0  0
   -6.5616   -1.3225    0.6876 H   0  0  0  0  0  0  0  0  0  0  0  0
   -5.8292   -2.1092    2.1161 H   0  0  0  0  0  0  0  0  0  0  0  0
   -5.1865   -2.5186    0.4686 H   0  0  0  0  0  0  0  0  0  0  0  0
   -1.9806    0.0134    2.1065 H   0  0  0  0  0  0  0  0  0  0  0  0
   -3.6899    1.5893    1.6048 H   0  0  0  0  0  0  0  0  0  0  0  0
   -2.0816    2.2308    1.0091 H   0  0  0  0  0  0  0  0  0  0  0  0
   -4.4624    1.3014   -0.3927 H   0  0  0  0  0  0  0  0  0  0  0  0
   -3.4150    2.5433   -0.8686 H   0  0  0  0  0  0  0  0  0  0  0  0
   -2.9810    0.8730   -1.1609 H   0  0  0  0  0  0  0  0  0  0  0  0
   -1.1902    0.0134   -0.8563 H   0  0  0  0  0  0  0  0  0  0  0  0
    2.6527    0.7483    1.1550 H   0  0  0  0  0  0  0  0  0  0  0  0
    2.5715   -1.0046    1.2929 H   0  0  0  0  0  0  0  0  0  0  0  0
    3.6260   -2.4822   -0.3165 H   0  0  0  0  0  0  0  0  0  0  0  0
    5.4978   -2.7594   -1.8518 H   0  0  0  0  0  0  0  0  0  0  0  0
    6.6623   -0.8107   -2.8345 H   0  0  0  0  0  0  0  0  0  0  0  0
    5.8765    1.4735   -2.1955 H   0  0  0  0  0  0  0  0  0  0  0  0
    3.9917    1.7934   -0.6682 H   0  0  0  0  0  0  0  0  0  0  0  0
  1  2  1  0
  2  3  2  0
  2  4  1  0
  4  5  1  0
  4  6  1  0
  4  7  1  0
  8  9  1  0
  9 10  1  0
 10 11  2  0
 10 12  1  0
 12 13  1  0
 13 14  1  0
 12 15  1  0
 15 16  1  0
 16 17  2  0
 16 18  1  0
 18 19  1  0
 19 20  1  0
 20 21  2  0
 21 22  1  0
 22 23  2  0
 23 24  1  0
 24 25  2  0
 25 20  1  0
  1 26  1  0
  8 27  1  0
  8 28  1  0
  8 29  1  0
 12 30  1  1
 13 31  1  0
 13 32  1  0
 14 33  1  0
 14 34  1  0
 14 35  1  0
 15 36  1  0
 19 37  1  0
 19 38  1  0
 21 39  1  0
 22 40  1  0
 23 41  1  0
 24 42  1  0
 25 43  1  0
M  CHG  1  14   1
M  END
$$$$
[H]c1nc([H])c([H])c(-c2c([H])c([H])c3c(N([H])[H])nn([H])c3c2[H])c1[H]
     RDKit          3D

 26 28  0  0  0  0  0  0  0  0999 V2000
    4.7378    0.1837    0.1800 N   0  0  0  0  0  0  0  0  0  0  0  0
    3.5606   -0.4164   -0.3493 C   0  0  0  0  0  0  0  0  0  0  0  0
    3.4408   -1.3788   -1.2831 N   0  0  0  0  0  0  0  0  0  0  0  0
    2.1664   -1.6664   -1.5027 N   0  0  0  0  0  0  0  0  0  0  0  0
    1.3789   -0.8934   -0.7103 C   0  0  0  0  0  0  0  0  0  0  0  0
    0.0134   -0.7870   -0.5408 C   0  0  0  0  0  0  0  0  0  0  0  0
   -0.4869    0.1224    0.3711 C   0  0  0  0  0  0  0  0  0  0  0  0
    0.4073    0.9124    1.0994 C   0  0  0  0  0  0  0  0  0  0  0  0
    1.7689    0.7926    0.9171 C   0  0  0  0  0  0  0  0  0  0  0  0
    2.2540   -0.1098    0.0127 C   0  0  0  0  0  0  0  0  0  0  0  0
   -1.9274    0.2513    0.5662 C   0  0  0  0  0  0  0  0  0  0  0  0
   -2.5560    1.4195    0.9165 C   0  0  0  0  0  0  0  0  0  0  0  0
   -3.9193    1.4881    1.0883 C   0  0  0  0  0  0  0  0  0  0  0  0
   -4.6913    0.4074    0.9184 N   0  0  0  0  0  0  0  0  0  0  0  0
   -4.0898   -0.7573    0.5720 C   0  0  0  0  0  0  0  0  0  0  0  0
   -2.7361   -0.8670    0.3915 C   0  0  0  0  0  0  0  0  0  0  0  0
    4.8594    1.2122    0.3134 H   0  0  0  0  0  0  0  0  0  0  0  0
    5.5436   -0.4176    0.4599 H   0  0  0  0  0  0  0  0  0  0  0  0
    1.7653   -2.3595   -2.1602 H   0  0  0  0  0  0  0  0  0  0  0  0
   -0.6472   -1.4160   -1.1232 H   0  0  0  0  0  0  0  0  0  0  0  0
   -0.0072    1.6117    1.8019 H   0  0  0  0  0  0  0  0  0  0  0  0
    2.4759    1.3929    1.4692 H   0  0  0  0  0  0  0  0  0  0  0  0
   -1.9688    2.3037    1.0604 H   0  0  0  0  0  0  0  0  0  0  0  0
   -4.3539    2.4180    1.3599 H   0  0  0  0  0  0  0  0  0  0  0  0
   -4.7204   -1.6375    0.4341 H   0  0  0  0  0  0  0  0  0  0  0  0
   -2.2681   -1.8093    0.1132 H   0  0  0  0  0  0  0  0  0  0  0  0
  1  2  1  0
  2  3  2  0
  3  4  1  0
  4  5  1  0
  5  6  2  0
  6  7  1  0
  7  8  2  0
  8  9  1  0
  9 10  2  0
  7 11  1  0
 11 12  2  0
 12 13  1  0
 13 14  2  0
 14 15  1  0
 15 16  2  0
 10  2  1  0
 16 11  1  0
 10  5  1  0
  1 17  1  0
  1 18  1  0
  4 19  1  0
  6 20  1  0
  8 21  1  0
  9 22  1  0
 12 23  1  0
 13 24  1  0
 15 25  1  0
 16 26  1  0
M  END
$$$$
[H]c1c([H])c([N+](=O)[O-])c([H])c(N([H])C(=O)c2c([H])c([H])c(OC([H])([H])C([H])([H])[H])c(C#N)c2[H])c1F
     RDKit          3D

 36 37  0  0  0  0  0  0  0  0999 V2000
    6.3689    1.1209   -2.0798 C   0  0  0  0  0  0  0  0  0  0  0  0
    4.9053    0.8373   -1.8876 C   0  0  0  0  0  0  0  0  0  0  0  0
    4.4615    1.1385   -0.5810 O   0  0  0  0  0  0  0  0  0  0  0  0
    3.1477    0.9312   -0.2560 C   0  0  0  0  0  0  0  0  0  0  0  0
    2.2743    0.4371   -1.1885 C   0  0  0  0  0  0  0  0  0  0  0  0
    0.9266    0.2222   -0.8623 C   0  0  0  0  0  0  0  0  0  0  0  0
    0.5178    0.5164    0.3961 C   0  0  0  0  0  0  0  0  0  0  0  0
    1.3594    1.0122    1.3576 C   0  0  0  0  0  0  0  0  0  0  0  0
    2.6712    1.2111    1.0067 C   0  0  0  0  0  0  0  0  0  0  0  0
    3.5774    1.7283    1.9881 C   0  0  0  0  0  0  0  0  0  0  0  0
    4.3082    2.1333    2.7675 N   0  0  0  0  0  0  0  0  0  0  0  0
   -0.8985    0.2920    0.7925 C   0  0  0  0  0  0  0  0  0  0  0  0
   -1.3178    1.0041    1.7313 O   0  0  0  0  0  0  0  0  0  0  0  0
   -1.6218   -0.6841    0.0876 N   0  0  0  0  0  0  0  0  0  0  0  0
   -2.9600   -1.0213    0.3267 C   0  0  0  0  0  0  0  0  0  0  0  0
   -3.7808   -0.4653    1.2762 C   0  0  0  0  0  0  0  0  0  0  0  0
   -5.1093   -0.8869    1.4226 C   0  0  0  0  0  0  0  0  0  0  0  0
   -5.6521   -1.8710    0.6280 C   0  0  0  0  0  0  0  0  0  0  0  0
   -4.8407   -2.4322   -0.3228 C   0  0  0  0  0  0  0  0  0  0  0  0
   -3.5346   -2.0263   -0.4755 C   0  0  0  0  0  0  0  0  0  0  0  0
   -2.7661   -2.5998   -1.4203 F   0  0  0  0  0  0  0  0  0  0  0  0
   -5.9367   -0.2807    2.4277 N   0  0  0  0  0  0  0  0  0  0  0  0
   -7.2312   -0.6941    2.5677 O   0  0  0  0  0  0  0  0  0  0  0  0
   -5.4336    0.6011    3.1322 O   0  0  0  0  0  0  0  0  0  0  0  0
    6.4572    2.1296   -2.5441 H   0  0  0  0  0  0  0  0  0  0  0  0
    6.8697    1.1088   -1.0743 H   0  0  0  0  0  0  0  0  0  0  0  0
    6.8526    0.3512   -2.7134 H   0  0  0  0  0  0  0  0  0  0  0  0
    4.3000    1.4558   -2.5935 H   0  0  0  0  0  0  0  0  0  0  0  0
    4.6528   -0.2398   -2.0641 H   0  0  0  0  0  0  0  0  0  0  0  0
    2.6341    0.2135   -2.1817 H   0  0  0  0  0  0  0  0  0  0  0  0
    0.2827   -0.1622   -1.6330 H   0  0  0  0  0  0  0  0  0  0  0  0
    0.9947    1.2294    2.3336 H   0  0  0  0  0  0  0  0  0  0  0  0
   -1.1073   -1.2150   -0.6897 H   0  0  0  0  0  0  0  0  0  0  0  0
   -3.4359    0.3051    1.9337 H   0  0  0  0  0  0  0  0  0  0  0  0
   -6.6862   -2.1826    0.7593 H   0  0  0  0  0  0  0  0  0  0  0  0
   -5.2495   -3.2181   -0.9681 H   0  0  0  0  0  0  0  0  0  0  0  0
  1  2  1  0
  2  3  1  0
  3  4  1  0
  4  5  2  0
  5  6  1  0
  6  7  2  0
  7  8  1  0
  8  9  2  0
  9 10  1  0
 10 11  3  0
  7 12  1  0
 12 13  2  0
 12 14  1  0
 14 15  1  0
 15 16  2  0
 16 17  1  0
 17 18  2  0
 18 19  1  0
 19 20  2  0
 20 21  1  0
 17 22  1  0
 22 23  1  0
 22 24  2  0
  9  4  1  0
 20 15  1  0
  1 25  1  0
  1 26  1  0
  1 27  1  0
  2 28  1  0
  2 29  1  0
  5 30  1  0
  6 31  1  0
  8 32  1  0
 14 33  1  0
 16 34  1  0
 18 35  1  0
 19 36  1  0
M  CHG  2  22   1  23  -1
M  END
$$$$
[H]OC(=O)c1c([H])c([H])c(N2C(=O)OC3(C2([H])[H])C([H])([H])C([H])([H])N(C([H])([H])c2c([H])c([H])c([H])c(OC([H])([H])c4nnn(C([H])([H])c5c([H])c([H])c(C(F)(F)F)c([H])c5[H])c4C([H])([H])C([H])([H])[H])c2[H])C([H])([H])C3([H])[H])c([H])c1C([H])([H])[H]
     RDKit          3D

 84 89  0  0  0  0  0  0  0  0999 V2000
   -4.4452   -0.0613   -4.0832 C   0  0  0  0  0  0  0  0  0  0  0  0
   -4.7307   -0.5484   -2.7168 C   0  0  0  0  0  0  0  0  0  0  0  0
   -5.3322    0.5302   -1.8518 C   0  0  0  0  0  0  0  0  0  0  0  0
   -4.6246    1.3619   -1.1029 C   0  0  0  0  0  0  0  0  0  0  0  0
   -3.2083    1.9199   -0.9595 C   0  0  0  0  0  0  0  0  0  0  0  0
   -3.1222    1.7261    0.5141 O   0  0  0  0  0  0  0  0  0  0  0  0
   -2.3499    0.5667    0.9196 C   0  0  0  0  0  0  0  0  0  0  0  0
   -2.4194    0.0506    2.1446 C   0  0  0  0  0  0  0  0  0  0  0  0
   -1.6221   -1.0551    2.5438 C   0  0  0  0  0  0  0  0  0  0  0  0
   -0.7341   -1.6164    1.6056 C   0  0  0  0  0  0  0  0  0  0  0  0
   -0.6717   -1.0527    0.3080 C   0  0  0  0  0  0  0  0  0  0  0  0
    0.4447   -1.4677   -0.6164 C   0  0  0  0  0  0  0  0  0  0  0  0
    1.6416   -0.9938    0.0058 N   0  0  0  0  0  0  0  0  0  0  0  0
    2.8732   -1.2779   -0.6172 C   0  0  0  0  0  0  0  0  0  0  0  0
    3.7929   -0.0596   -0.5455 C   0  0  0  0  0  0  0  0  0  0  0  0
    3.9602    0.4415    0.8306 C   0  0  0  0  0  0  0  0  0  0  0  0
    5.1882   -0.0403    1.5216 C   0  0  0  0  0  0  0  0  0  0  0  0
    6.2254    0.6349    0.7538 N   0  0  0  0  0  0  0  0  0  0  0  0
    5.6115    1.8124    0.2197 C   0  0  0  0  0  0  0  0  0  0  0  0
    6.1780    2.6298   -0.5574 O   0  0  0  0  0  0  0  0  0  0  0  0
    4.2861    1.8575    0.7165 O   0  0  0  0  0  0  0  0  0  0  0  0
    7.5675    0.2010    0.5877 C   0  0  0  0  0  0  0  0  0  0  0  0
    7.8837   -1.1604    0.5293 C   0  0  0  0  0  0  0  0  0  0  0  0
    9.1445   -1.5413    0.3245 C   0  0  0  0  0  0  0  0  0  0  0  0
   10.1849   -0.6442    0.1658 C   0  0  0  0  0  0  0  0  0  0  0  0
   11.5237   -1.1174   -0.0045 C   0  0  0  0  0  0  0  0  0  0  0  0
   12.6469   -0.3122    0.2240 O   0  0  0  0  0  0  0  0  0  0  0  0
   11.7819   -2.2966   -0.3857 O   0  0  0  0  0  0  0  0  0  0  0  0
    9.8597    0.7020    0.2284 C   0  0  0  0  0  0  0  0  0  0  0  0
   10.8885    1.7269    0.0286 C   0  0  0  0  0  0  0  0  0  0  0  0
    8.5486    1.1259    0.4420 C   0  0  0  0  0  0  0  0  0  0  0  0
    2.7422    0.2995    1.7271 C   0  0  0  0  0  0  0  0  0  0  0  0
    1.5782    0.2407    0.6935 C   0  0  0  0  0  0  0  0  0  0  0  0
   -1.4711    0.0033    0.0008 C   0  0  0  0  0  0  0  0  0  0  0  0
   -5.6312    2.1619   -0.4827 N   0  0  0  0  0  0  0  0  0  0  0  0
   -6.8020    1.7581   -0.8930 N   0  0  0  0  0  0  0  0  0  0  0  0
   -6.6513    0.7034   -1.7734 N   0  0  0  0  0  0  0  0  0  0  0  0
   -7.7843   -0.1142   -2.1529 C   0  0  0  0  0  0  0  0  0  0  0  0
   -8.5809   -0.2695   -0.8508 C   0  0  0  0  0  0  0  0  0  0  0  0
   -7.9114   -0.2426    0.3289 C   0  0  0  0  0  0  0  0  0  0  0  0
   -8.6665   -0.1301    1.5043 C   0  0  0  0  0  0  0  0  0  0  0  0
  -10.0531   -0.0626    1.4680 C   0  0  0  0  0  0  0  0  0  0  0  0
  -10.6875   -0.0906    0.2064 C   0  0  0  0  0  0  0  0  0  0  0  0
   -9.9535   -0.1914   -0.9347 C   0  0  0  0  0  0  0  0  0  0  0  0
  -10.8684    0.1358    2.6660 C   0  0  0  0  0  0  0  0  0  0  0  0
  -11.2648    1.4731    2.8464 F   0  0  0  0  0  0  0  0  0  0  0  0
  -10.2598   -0.2322    3.8381 F   0  0  0  0  0  0  0  0  0  0  0  0
  -12.0451   -0.6067    2.4743 F   0  0  0  0  0  0  0  0  0  0  0  0
   -3.3580    0.0056   -4.3724 H   0  0  0  0  0  0  0  0  0  0  0  0
   -4.8396   -0.8257   -4.8171 H   0  0  0  0  0  0  0  0  0  0  0  0
   -4.9636    0.9357   -4.2963 H   0  0  0  0  0  0  0  0  0  0  0  0
   -5.3080   -1.4593   -2.5828 H   0  0  0  0  0  0  0  0  0  0  0  0
   -3.6862   -0.7578   -2.2535 H   0  0  0  0  0  0  0  0  0  0  0  0
   -2.5131    1.4789   -1.5611 H   0  0  0  0  0  0  0  0  0  0  0  0
   -3.2838    3.0308   -1.0756 H   0  0  0  0  0  0  0  0  0  0  0  0
   -3.0743    0.4332    2.9069 H   0  0  0  0  0  0  0  0  0  0  0  0
   -1.6734   -1.4786    3.5089 H   0  0  0  0  0  0  0  0  0  0  0  0
   -0.1346   -2.4625    1.8710 H   0  0  0  0  0  0  0  0  0  0  0  0
    0.2459   -0.9255   -1.5895 H   0  0  0  0  0  0  0  0  0  0  0  0
    0.4611   -2.5421   -0.7805 H   0  0  0  0  0  0  0  0  0  0  0  0
    3.4594   -2.1330   -0.1583 H   0  0  0  0  0  0  0  0  0  0  0  0
    2.8101   -1.4799   -1.7271 H   0  0  0  0  0  0  0  0  0  0  0  0
    4.7732   -0.3012   -1.0546 H   0  0  0  0  0  0  0  0  0  0  0  0
    3.3812    0.7576   -1.2088 H   0  0  0  0  0  0  0  0  0  0  0  0
    5.1543    0.4102    2.5714 H   0  0  0  0  0  0  0  0  0  0  0  0
    5.3040   -1.1373    1.5601 H   0  0  0  0  0  0  0  0  0  0  0  0
    7.0808   -1.9022    0.6391 H   0  0  0  0  0  0  0  0  0  0  0  0
    9.4378   -2.6144    0.2734 H   0  0  0  0  0  0  0  0  0  0  0  0
   12.8879   -0.0086    1.1692 H   0  0  0  0  0  0  0  0  0  0  0  0
   11.4471    1.8901    0.9478 H   0  0  0  0  0  0  0  0  0  0  0  0
   10.3359    2.6852   -0.2760 H   0  0  0  0  0  0  0  0  0  0  0  0
   11.5167    1.5063   -0.8635 H   0  0  0  0  0  0  0  0  0  0  0  0
    8.3252    2.1793    0.4886 H   0  0  0  0  0  0  0  0  0  0  0  0
    2.8384   -0.6307    2.2969 H   0  0  0  0  0  0  0  0  0  0  0  0
    2.5304    1.1425    2.3479 H   0  0  0  0  0  0  0  0  0  0  0  0
    0.6982    0.4685    1.2724 H   0  0  0  0  0  0  0  0  0  0  0  0
    1.8220    1.1038   -0.0219 H   0  0  0  0  0  0  0  0  0  0  0  0
   -1.3923    0.4400   -1.0012 H   0  0  0  0  0  0  0  0  0  0  0  0
   -7.4187   -1.1879   -2.3562 H   0  0  0  0  0  0  0  0  0  0  0  0
   -8.3697    0.1835   -2.9986 H   0  0  0  0  0  0  0  0  0  0  0  0
   -6.8623   -0.3129    0.5065 H   0  0  0  0  0  0  0  0  0  0  0  0
   -8.1414   -0.0733    2.5062 H   0  0  0  0  0  0  0  0  0  0  0  0
  -11.7652   -0.0360    0.2030 H   0  0  0  0  0  0  0  0  0  0  0  0
  -10.3866   -0.2338   -1.9134 H   0  0  0  0  0  0  0  0  0  0  0  0
  1  2  1  0
  2  3  1  0
  3  4  2  0
  4  5  1  0
  5  6  1  0
  6  7  1  0
  7  8  2  0
  8  9  1  0
  9 10  2  0
 10 11  1  0
 11 12  1  0
 12 13  1  0
 13 14  1  0
 14 15  1  0
 15 16  1  0
 16 17  1  0
 17 18  1  0
 18 19  1  0
 19 20  2  0
 19 21  1  0
 18 22  1  0
 22 23  2  0
 23 24  1  0
 24 25  2  0
 25 26  1  0
 26 27  1  0
 26 28  2  0
 25 29  1  0
 29 30  1  0
 29 31  2  0
 16 32  1  0
 32 33  1  0
 11 34  2  0
  4 35  1  0
 35 36  2  0
 36 37  1  0
 37 38  1  0
 38 39  1  0
 39 40  2  0
 40 41  1  0
 41 42  2  0
 42 43  1  0
 43 44  2  0
 42 45  1  0
 45 46  1  0
 45 47  1  0
 45 48  1  0
 37  3  1  0
 44 39  1  0
 34  7  1  0
 33 13  1  0
 21 16  1  0
 31 22  1  0
  1 49  1  0
  1 50  1  0
  1 51  1  0
  2 52  1  0
  2 53  1  0
  5 54  1  0
  5 55  1  0
  8 56  1  0
  9 57  1  0
 10 58  1  0
 12 59  1  0
 12 60  1  0
 14 61  1  0
 14 62  1  0
 15 63  1  0
 15 64  1  0
 17 65  1  0
 17 66  1  0
 23 67  1  0
 24 68  1  0
 27 69  1  0
 30 70  1  0
 30 71  1  0
 30 72  1  0
 31 73  1  0
 32 74  1  0
 32 75  1  0
 33 76  1  0
 33 77  1  0
 34 78  1  0
 38 79  1  0
 38 80  1  0
 40 81  1  0
 41 82  1  0
 43 83  1  0
 44 84  1  0
M  END
$$$$
[H]c1c([H])c(C([H])([H])[H])c([H])c([H])c1C(=O)N([H])N(C(=O)C([H])([H])C1([H])C([H])([H])C([H])([H])C([H])([H])C([H])([H])C1([H])[H])C(C([H])([H])[H])(C([H])([H])[H])C([H])([H])[H]
     RDKit          3D

 54 55  0  0  0  0  0  0  0  0999 V2000
    6.3687    3.1900    0.5621 C   0  0  0  0  0  0  0  0  0  0  0  0
    5.2211    2.2869    0.2904 C   0  0  0  0  0  0  0  0  0  0  0  0
    5.2965    0.9271    0.5040 C   0  0  0  0  0  0  0  0  0  0  0  0
    4.2334    0.0592    0.2526 C   0  0  0  0  0  0  0  0  0  0  0  0
    3.0603    0.5847   -0.2285 C   0  0  0  0  0  0  0  0  0  0  0  0
    2.9734    1.9416   -0.4442 C   0  0  0  0  0  0  0  0  0  0  0  0
    4.0314    2.7882   -0.1921 C   0  0  0  0  0  0  0  0  0  0  0  0
    1.8842   -0.2235   -0.5182 C   0  0  0  0  0  0  0  0  0  0  0  0
    1.5493   -0.2586   -1.7431 O   0  0  0  0  0  0  0  0  0  0  0  0
    1.1788   -0.9040    0.4890 N   0  0  0  0  0  0  0  0  0  0  0  0
    0.0439   -1.6625    0.1945 N   0  0  0  0  0  0  0  0  0  0  0  0
   -1.2474   -1.0593    0.0861 C   0  0  0  0  0  0  0  0  0  0  0  0
   -2.2452   -1.7490   -0.1795 O   0  0  0  0  0  0  0  0  0  0  0  0
   -1.3730    0.3770    0.2923 C   0  0  0  0  0  0  0  0  0  0  0  0
   -2.7034    0.9848    0.1606 C   0  0  0  0  0  0  0  0  0  0  0  0
   -3.7818    0.5139    1.0682 C   0  0  0  0  0  0  0  0  0  0  0  0
   -4.8030    1.6248    1.1126 C   0  0  0  0  0  0  0  0  0  0  0  0
   -5.1755    2.2036   -0.1919 C   0  0  0  0  0  0  0  0  0  0  0  0
   -4.2758    2.0484   -1.3395 C   0  0  0  0  0  0  0  0  0  0  0  0
   -3.2863    0.9194   -1.2476 C   0  0  0  0  0  0  0  0  0  0  0  0
    0.1778   -3.1123   -0.0106 C   0  0  0  0  0  0  0  0  0  0  0  0
    1.6395   -3.4974    0.1631 C   0  0  0  0  0  0  0  0  0  0  0  0
   -0.2039   -3.5214   -1.4146 C   0  0  0  0  0  0  0  0  0  0  0  0
   -0.6186   -3.8894    1.0148 C   0  0  0  0  0  0  0  0  0  0  0  0
    7.2988    2.8337    0.0477 H   0  0  0  0  0  0  0  0  0  0  0  0
    6.1089    4.2093    0.1894 H   0  0  0  0  0  0  0  0  0  0  0  0
    6.5797    3.2098    1.6391 H   0  0  0  0  0  0  0  0  0  0  0  0
    6.2191    0.4772    0.8846 H   0  0  0  0  0  0  0  0  0  0  0  0
    4.3449   -0.9985    0.4372 H   0  0  0  0  0  0  0  0  0  0  0  0
    2.0397    2.3790   -0.8271 H   0  0  0  0  0  0  0  0  0  0  0  0
    3.9485    3.8648   -0.3701 H   0  0  0  0  0  0  0  0  0  0  0  0
    1.4923   -0.8510    1.4713 H   0  0  0  0  0  0  0  0  0  0  0  0
   -0.9772    0.5905    1.3240 H   0  0  0  0  0  0  0  0  0  0  0  0
   -0.6991    0.9107   -0.4411 H   0  0  0  0  0  0  0  0  0  0  0  0
   -2.5771    2.0942    0.3616 H   0  0  0  0  0  0  0  0  0  0  0  0
   -4.3158   -0.4004    0.7420 H   0  0  0  0  0  0  0  0  0  0  0  0
   -3.3844    0.3995    2.1001 H   0  0  0  0  0  0  0  0  0  0  0  0
   -5.6879    1.2491    1.6560 H   0  0  0  0  0  0  0  0  0  0  0  0
   -4.3577    2.4089    1.7957 H   0  0  0  0  0  0  0  0  0  0  0  0
   -6.2097    1.8534   -0.4811 H   0  0  0  0  0  0  0  0  0  0  0  0
   -5.3216    3.3168   -0.0348 H   0  0  0  0  0  0  0  0  0  0  0  0
   -4.8434    1.9105   -2.2932 H   0  0  0  0  0  0  0  0  0  0  0  0
   -3.6732    2.9878   -1.5240 H   0  0  0  0  0  0  0  0  0  0  0  0
   -2.5199    1.0329   -2.0071 H   0  0  0  0  0  0  0  0  0  0  0  0
   -3.8699   -0.0211   -1.2952 H   0  0  0  0  0  0  0  0  0  0  0  0
    2.2154   -2.9945   -0.6428 H   0  0  0  0  0  0  0  0  0  0  0  0
    1.7107   -4.6075    0.0866 H   0  0  0  0  0  0  0  0  0  0  0  0
    2.0403   -3.1166    1.1304 H   0  0  0  0  0  0  0  0  0  0  0  0
    0.6082   -4.0551   -1.9533 H   0  0  0  0  0  0  0  0  0  0  0  0
   -1.0520   -4.2457   -1.3359 H   0  0  0  0  0  0  0  0  0  0  0  0
   -0.5475   -2.7093   -2.0534 H   0  0  0  0  0  0  0  0  0  0  0  0
   -0.8294   -3.2532    1.8994 H   0  0  0  0  0  0  0  0  0  0  0  0
   -1.5773   -4.2123    0.5216 H   0  0  0  0  0  0  0  0  0  0  0  0
   -0.1077   -4.8352    1.2905 H   0  0  0  0  0  0  0  0  0  0  0  0
  1  2  1  0
  2  3  2  0
  3  4  1  0
  4  5  2  0
  5  6  1  0
  6  7  2  0
  5  8  1  0
  8  9  2  0
  8 10  1  0
 10 11  1  0
 11 12  1  0
 12 13  2  0
 12 14  1  0
 14 15  1  0
 15 16  1  0
 16 17  1  0
 17 18  1  0
 18 19  1  0
 19 20  1  0
 11 21  1  0
 21 22  1  0
 21 23  1  0
 21 24  1  0
  7  2  1  0
 20 15  1  0
  1 25  1  0
  1 26  1  0
  1 27  1  0
  3 28  1  0
  4 29  1  0
  6 30  1  0
  7 31  1  0
 10 32  1  0
 14 33  1  0
 14 34  1  0
 15 35  1  0
 16 36  1  0
 16 37  1  0
 17 38  1  0
 17 39  1  0
 18 40  1  0
 18 41  1  0
 19 42  1  0
 19 43  1  0
 20 44  1  0
 20 45  1  0
 22 46  1  0
 22 47  1  0
 22 48  1  0
 23 49  1  0
 23 50  1  0
 23 51  1  0
 24 52  1  0
 24 53  1  0
 24 54  1  0
M  END
$$$$
[H]c1nc(N2C([H])([H])C([H])([H])N(C([H])([H])C([H])([H])C([H])([H])Oc3c([H])c([H])c([H])c(C(=O)N([H])[H])c3C([H])([H])C([H])([H])[H])C([H])([H])C([H])([H])C2([H])[H])c([H])c([H])c1Br
     RDKit          3D

 58 60  0  0  0  0  0  0  0  0999 V2000
    4.0005   -2.2142   -0.5298 C   0  0  0  0  0  0  0  0  0  0  0  0
    4.3338   -1.2345    0.5761 C   0  0  0  0  0  0  0  0  0  0  0  0
    4.6856    0.1005    0.1081 C   0  0  0  0  0  0  0  0  0  0  0  0
    3.6265    0.9706   -0.2396 C   0  0  0  0  0  0  0  0  0  0  0  0
    2.3169    0.5280   -0.1290 O   0  0  0  0  0  0  0  0  0  0  0  0
    1.2727    1.3969   -0.4745 C   0  0  0  0  0  0  0  0  0  0  0  0
   -0.0917    0.7504   -0.2950 C   0  0  0  0  0  0  0  0  0  0  0  0
   -0.2314   -0.4765   -1.1630 C   0  0  0  0  0  0  0  0  0  0  0  0
   -1.5349   -1.0573   -0.9559 N   0  0  0  0  0  0  0  0  0  0  0  0
   -1.6288   -1.5945    0.3610 C   0  0  0  0  0  0  0  0  0  0  0  0
   -2.8218   -2.5127    0.5369 C   0  0  0  0  0  0  0  0  0  0  0  0
   -4.0692   -1.7528    0.8936 C   0  0  0  0  0  0  0  0  0  0  0  0
   -4.4730   -0.8474   -0.1584 N   0  0  0  0  0  0  0  0  0  0  0  0
   -3.9051   -0.8151   -1.5005 C   0  0  0  0  0  0  0  0  0  0  0  0
   -2.5416   -0.1266   -1.3355 C   0  0  0  0  0  0  0  0  0  0  0  0
   -5.4885    0.0880    0.1083 C   0  0  0  0  0  0  0  0  0  0  0  0
   -6.1238    0.2099    1.3212 C   0  0  0  0  0  0  0  0  0  0  0  0
   -7.1146    1.1381    1.5528 C   0  0  0  0  0  0  0  0  0  0  0  0
   -7.4980    1.9896    0.5344 C   0  0  0  0  0  0  0  0  0  0  0  0
   -8.8748    3.2968    0.8132 Br  0  0  0  0  0  0  0  0  0  0  0  0
   -6.8505    1.8536   -0.6759 C   0  0  0  0  0  0  0  0  0  0  0  0
   -5.8802    0.9287   -0.8659 N   0  0  0  0  0  0  0  0  0  0  0  0
    3.8909    2.2423   -0.6833 C   0  0  0  0  0  0  0  0  0  0  0  0
    5.1955    2.7042   -0.8016 C   0  0  0  0  0  0  0  0  0  0  0  0
    6.2282    1.8666   -0.4674 C   0  0  0  0  0  0  0  0  0  0  0  0
    5.9714    0.5597   -0.0116 C   0  0  0  0  0  0  0  0  0  0  0  0
    7.0980   -0.2908    0.2785 C   0  0  0  0  0  0  0  0  0  0  0  0
    8.4158    0.3074    0.2452 N   0  0  0  0  0  0  0  0  0  0  0  0
    7.0758   -1.5019    0.5603 O   0  0  0  0  0  0  0  0  0  0  0  0
    4.8561   -2.3410   -1.2322 H   0  0  0  0  0  0  0  0  0  0  0  0
    3.0600   -1.9454   -1.0430 H   0  0  0  0  0  0  0  0  0  0  0  0
    3.8334   -3.1990   -0.0378 H   0  0  0  0  0  0  0  0  0  0  0  0
    3.3110   -1.1267    1.1206 H   0  0  0  0  0  0  0  0  0  0  0  0
    4.9680   -1.6729    1.3212 H   0  0  0  0  0  0  0  0  0  0  0  0
    1.2788    2.2656    0.2372 H   0  0  0  0  0  0  0  0  0  0  0  0
    1.3566    1.7093   -1.5216 H   0  0  0  0  0  0  0  0  0  0  0  0
   -0.8918    1.4951   -0.4589 H   0  0  0  0  0  0  0  0  0  0  0  0
   -0.1556    0.4863    0.7932 H   0  0  0  0  0  0  0  0  0  0  0  0
   -0.1823   -0.1566   -2.2226 H   0  0  0  0  0  0  0  0  0  0  0  0
    0.5865   -1.1688   -0.8879 H   0  0  0  0  0  0  0  0  0  0  0  0
   -1.6666   -0.8332    1.1623 H   0  0  0  0  0  0  0  0  0  0  0  0
   -0.7273   -2.2126    0.5573 H   0  0  0  0  0  0  0  0  0  0  0  0
   -2.9689   -3.1328   -0.3516 H   0  0  0  0  0  0  0  0  0  0  0  0
   -2.5912   -3.1770    1.3998 H   0  0  0  0  0  0  0  0  0  0  0  0
   -3.9020   -1.1530    1.8158 H   0  0  0  0  0  0  0  0  0  0  0  0
   -4.8769   -2.4771    1.1185 H   0  0  0  0  0  0  0  0  0  0  0  0
   -4.5060   -0.1975   -2.1700 H   0  0  0  0  0  0  0  0  0  0  0  0
   -3.7097   -1.8319   -1.8975 H   0  0  0  0  0  0  0  0  0  0  0  0
   -2.7204    0.6825   -0.6157 H   0  0  0  0  0  0  0  0  0  0  0  0
   -2.2589    0.3448   -2.2886 H   0  0  0  0  0  0  0  0  0  0  0  0
   -5.8090   -0.4666    2.1043 H   0  0  0  0  0  0  0  0  0  0  0  0
   -7.6146    1.2319    2.5134 H   0  0  0  0  0  0  0  0  0  0  0  0
   -7.1409    2.5138   -1.4813 H   0  0  0  0  0  0  0  0  0  0  0  0
    3.0491    2.8725   -0.9371 H   0  0  0  0  0  0  0  0  0  0  0  0
    5.3455    3.7159   -1.1558 H   0  0  0  0  0  0  0  0  0  0  0  0
    7.2699    2.2029   -0.5504 H   0  0  0  0  0  0  0  0  0  0  0  0
    8.9561    0.4808    1.1186 H   0  0  0  0  0  0  0  0  0  0  0  0
    8.8674    0.5839   -0.6542 H   0  0  0  0  0  0  0  0  0  0  0  0
  1  2  1  0
  2  3  1  0
  3  4  2  0
  4  5  1  0
  5  6  1  0
  6  7  1  0
  7  8  1  0
  8  9  1  0
  9 10  1  0
 10 11  1  0
 11 12  1  0
 12 13  1  0
 13 14  1  0
 14 15  1  0
 13 16  1  0
 16 17  2  0
 17 18  1  0
 18 19  2  0
 19 20  1  0
 19 21  1  0
 21 22  2  0
  4 23  1  0
 23 24  2  0
 24 25  1  0
 25 26  2  0
 26 27  1  0
 27 28  1  0
 27 29  2  0
 26  3  1  0
 15  9  1  0
 22 16  1  0
  1 30  1  0
  1 31  1  0
  1 32  1  0
  2 33  1  0
  2 34  1  0
  6 35  1  0
  6 36  1  0
  7 37  1  0
  7 38  1  0
  8 39  1  0
  8 40  1  0
 10 41  1  0
 10 42  1  0
 11 43  1  0
 11 44  1  0
 12 45  1  0
 12 46  1  0
 14 47  1  0
 14 48  1  0
 15 49  1  0
 15 50  1  0
 17 51  1  0
 18 52  1  0
 21 53  1  0
 23 54  1  0
 24 55  1  0
 25 56  1  0
 28 57  1  0
 28 58  1  0
M  END
$$$$
[H]c1c([H])c(C([H])([H])C([H])([H])N(C([H])([H])[H])C([H])([H])[H])c([H])c(C(F)(F)F)c1OC1([H])C([H])([H])C([H])([H])N(C(=O)c2c([H])c(N([H])[H])c(OC([H])([H])C([H])([H])F)c(C([H])([H])[H])c2[H])C([H])([H])C1([H])[H]
     RDKit          3D

 69 71  0  0  0  0  0  0  0  0999 V2000
    8.5742    1.3110    3.2653 C   0  0  0  0  0  0  0  0  0  0  0  0
    8.4886    1.8103    1.9258 N   0  0  0  0  0  0  0  0  0  0  0  0
    9.6115    1.4603    1.0865 C   0  0  0  0  0  0  0  0  0  0  0  0
    7.2201    1.5432    1.2877 C   0  0  0  0  0  0  0  0  0  0  0  0
    7.0215    0.0649    1.0230 C   0  0  0  0  0  0  0  0  0  0  0  0
    5.7005   -0.0896    0.3694 C   0  0  0  0  0  0  0  0  0  0  0  0
    4.5899   -0.2702    1.1609 C   0  0  0  0  0  0  0  0  0  0  0  0
    3.3130   -0.4242    0.6060 C   0  0  0  0  0  0  0  0  0  0  0  0
    3.1490   -0.3965   -0.7540 C   0  0  0  0  0  0  0  0  0  0  0  0
    1.9185   -0.5428   -1.3255 O   0  0  0  0  0  0  0  0  0  0  0  0
    0.7359   -0.7208   -0.6375 C   0  0  0  0  0  0  0  0  0  0  0  0
    0.1241   -2.0574   -1.0675 C   0  0  0  0  0  0  0  0  0  0  0  0
   -1.0110   -1.8025   -2.0271 C   0  0  0  0  0  0  0  0  0  0  0  0
   -2.0685   -1.1047   -1.2261 N   0  0  0  0  0  0  0  0  0  0  0  0
   -1.5923    0.0489   -0.5362 C   0  0  0  0  0  0  0  0  0  0  0  0
   -0.1956    0.4079   -1.0469 C   0  0  0  0  0  0  0  0  0  0  0  0
   -3.3642   -1.6304   -1.2753 C   0  0  0  0  0  0  0  0  0  0  0  0
   -3.4983   -2.6775   -2.0711 O   0  0  0  0  0  0  0  0  0  0  0  0
   -4.5398   -1.1799   -0.5847 C   0  0  0  0  0  0  0  0  0  0  0  0
   -4.6201   -0.2429    0.3997 C   0  0  0  0  0  0  0  0  0  0  0  0
   -5.8301    0.1808    0.9999 C   0  0  0  0  0  0  0  0  0  0  0  0
   -5.7490    1.1536    2.0479 N   0  0  0  0  0  0  0  0  0  0  0  0
   -6.9953   -0.3778    0.5735 C   0  0  0  0  0  0  0  0  0  0  0  0
   -8.2130   -0.0357    1.0811 O   0  0  0  0  0  0  0  0  0  0  0  0
   -9.1622    0.8569    0.6543 C   0  0  0  0  0  0  0  0  0  0  0  0
   -8.8848    2.2990    0.5627 C   0  0  0  0  0  0  0  0  0  0  0  0
   -8.6056    2.9350    1.7343 F   0  0  0  0  0  0  0  0  0  0  0  0
   -6.9837   -1.3531   -0.4384 C   0  0  0  0  0  0  0  0  0  0  0  0
   -8.2303   -1.9864   -0.9279 C   0  0  0  0  0  0  0  0  0  0  0  0
   -5.7940   -1.7275   -0.9847 C   0  0  0  0  0  0  0  0  0  0  0  0
    4.2775   -0.2125   -1.5753 C   0  0  0  0  0  0  0  0  0  0  0  0
    5.4885   -0.0685   -0.9902 C   0  0  0  0  0  0  0  0  0  0  0  0
    4.0400   -0.1914   -3.0403 C   0  0  0  0  0  0  0  0  0  0  0  0
    3.1757    0.8359   -3.3888 F   0  0  0  0  0  0  0  0  0  0  0  0
    5.2407    0.0758   -3.6852 F   0  0  0  0  0  0  0  0  0  0  0  0
    3.5911   -1.3976   -3.5191 F   0  0  0  0  0  0  0  0  0  0  0  0
    7.8131    1.8060    3.8774 H   0  0  0  0  0  0  0  0  0  0  0  0
    9.5710    1.5989    3.6626 H   0  0  0  0  0  0  0  0  0  0  0  0
    8.5359    0.2037    3.3247 H   0  0  0  0  0  0  0  0  0  0  0  0
   10.0771    0.4952    1.3566 H   0  0  0  0  0  0  0  0  0  0  0  0
   10.3425    2.3132    1.1256 H   0  0  0  0  0  0  0  0  0  0  0  0
    9.2976    1.3826    0.0248 H   0  0  0  0  0  0  0  0  0  0  0  0
    6.4248    1.9132    1.9661 H   0  0  0  0  0  0  0  0  0  0  0  0
    7.1808    2.1229    0.3432 H   0  0  0  0  0  0  0  0  0  0  0  0
    7.0013   -0.4878    1.9773 H   0  0  0  0  0  0  0  0  0  0  0  0
    7.8368   -0.3591    0.4204 H   0  0  0  0  0  0  0  0  0  0  0  0
    4.6732   -0.2990    2.2422 H   0  0  0  0  0  0  0  0  0  0  0  0
    2.4886   -0.5617    1.2794 H   0  0  0  0  0  0  0  0  0  0  0  0
    0.7619   -0.7466    0.4463 H   0  0  0  0  0  0  0  0  0  0  0  0
   -0.1846   -2.6772   -0.2043 H   0  0  0  0  0  0  0  0  0  0  0  0
    0.9137   -2.6173   -1.5974 H   0  0  0  0  0  0  0  0  0  0  0  0
   -1.3859   -2.8023   -2.3431 H   0  0  0  0  0  0  0  0  0  0  0  0
   -0.6623   -1.1903   -2.8612 H   0  0  0  0  0  0  0  0  0  0  0  0
   -2.2563    0.9397   -0.6691 H   0  0  0  0  0  0  0  0  0  0  0  0
   -1.5025   -0.1420    0.5598 H   0  0  0  0  0  0  0  0  0  0  0  0
   -0.2482    0.5905   -2.1228 H   0  0  0  0  0  0  0  0  0  0  0  0
    0.1551    1.3583   -0.5843 H   0  0  0  0  0  0  0  0  0  0  0  0
   -3.7396    0.2147    0.8033 H   0  0  0  0  0  0  0  0  0  0  0  0
   -5.8025    0.8199    3.0288 H   0  0  0  0  0  0  0  0  0  0  0  0
   -5.6397    2.1721    1.8839 H   0  0  0  0  0  0  0  0  0  0  0  0
   -9.6579    0.5229   -0.3209 H   0  0  0  0  0  0  0  0  0  0  0  0
  -10.0477    0.7369    1.3780 H   0  0  0  0  0  0  0  0  0  0  0  0
   -9.7944    2.7792    0.0835 H   0  0  0  0  0  0  0  0  0  0  0  0
   -8.0587    2.4589   -0.1719 H   0  0  0  0  0  0  0  0  0  0  0  0
   -8.6132   -1.4591   -1.8358 H   0  0  0  0  0  0  0  0  0  0  0  0
   -7.9927   -3.0418   -1.1644 H   0  0  0  0  0  0  0  0  0  0  0  0
   -9.0451   -1.9536   -0.1835 H   0  0  0  0  0  0  0  0  0  0  0  0
   -5.7366   -2.4779   -1.7723 H   0  0  0  0  0  0  0  0  0  0  0  0
    6.3718    0.0757   -1.6293 H   0  0  0  0  0  0  0  0  0  0  0  0
  1  2  1  0
  2  3  1  0
  2  4  1  0
  4  5  1  0
  5  6  1  0
  6  7  2  0
  7  8  1  0
  8  9  2  0
  9 10  1  0
 10 11  1  0
 11 12  1  0
 12 13  1  0
 13 14  1  0
 14 15  1  0
 15 16  1  0
 14 17  1  0
 17 18  2  0
 17 19  1  0
 19 20  2  0
 20 21  1  0
 21 22  1  0
 21 23  2  0
 23 24  1  0
 24 25  1  0
 25 26  1  0
 26 27  1  0
 23 28  1  0
 28 29  1  0
 28 30  2  0
  9 31  1  0
 31 32  2  0
 31 33  1  0
 33 34  1  0
 33 35  1  0
 33 36  1  0
 32  6  1  0
 16 11  1  0
 30 19  1  0
  1 37  1  0
  1 38  1  0
  1 39  1  0
  3 40  1  0
  3 41  1  0
  3 42  1  0
  4 43  1  0
  4 44  1  0
  5 45  1  0
  5 46  1  0
  7 47  1  0
  8 48  1  0
 11 49  1  0
 12 50  1  0
 12 51  1  0
 13 52  1  0
 13 53  1  0
 15 54  1  0
 15 55  1  0
 16 56  1  0
 16 57  1  0
 20 58  1  0
 22 59  1  0
 22 60  1  0
 25 61  1  0
 25 62  1  0
 26 63  1  0
 26 64  1  0
 29 65  1  0
 29 66  1  0
 29 67  1  0
 30 68  1  0
 32 69  1  0
M  END
$$$$
[H]OC1([H])C([H])([H])C([H])([H])N(C([H])([H])c2nn([H])c([H])c2-c2c(I)c([H])n3nc(N([H])[H])nc3c2[H])C([H])([H])C1([H])[H]
     RDKit          3D

 42 45  0  0  0  0  0  0  0  0999 V2000
    7.0336    2.0832    0.5745 N   0  0  0  0  0  0  0  0  0  0  0  0
    5.9497    1.2199    0.2964 C   0  0  0  0  0  0  0  0  0  0  0  0
    4.7020    1.2474    0.8513 N   0  0  0  0  0  0  0  0  0  0  0  0
    3.9394    0.2725    0.3348 C   0  0  0  0  0  0  0  0  0  0  0  0
    2.6137   -0.1293    0.5477 C   0  0  0  0  0  0  0  0  0  0  0  0
    2.0600   -1.1842   -0.1334 C   0  0  0  0  0  0  0  0  0  0  0  0
    0.6922   -1.6287    0.0822 C   0  0  0  0  0  0  0  0  0  0  0  0
    0.3872   -2.9632    0.3662 C   0  0  0  0  0  0  0  0  0  0  0  0
   -0.9201   -3.0691    0.5199 N   0  0  0  0  0  0  0  0  0  0  0  0
   -1.4460   -1.8845    0.3498 N   0  0  0  0  0  0  0  0  0  0  0  0
   -0.5015   -0.9628    0.0790 C   0  0  0  0  0  0  0  0  0  0  0  0
   -0.6768    0.4869   -0.1764 C   0  0  0  0  0  0  0  0  0  0  0  0
   -2.0167    0.9391   -0.1608 N   0  0  0  0  0  0  0  0  0  0  0  0
   -2.8385    0.3539   -1.1300 C   0  0  0  0  0  0  0  0  0  0  0  0
   -4.2584    0.0961   -0.6970 C   0  0  0  0  0  0  0  0  0  0  0  0
   -4.7064    1.3889    0.0042 C   0  0  0  0  0  0  0  0  0  0  0  0
   -6.0896    1.3325    0.1569 O   0  0  0  0  0  0  0  0  0  0  0  0
   -3.9659    1.4228    1.2984 C   0  0  0  0  0  0  0  0  0  0  0  0
   -2.5019    1.3235    1.0900 C   0  0  0  0  0  0  0  0  0  0  0  0
    2.8983   -1.8274   -1.0449 C   0  0  0  0  0  0  0  0  0  0  0  0
    2.1427   -3.4353   -2.1397 I   0  0  0  0  0  0  0  0  0  0  0  0
    4.1981   -1.4391   -1.2577 C   0  0  0  0  0  0  0  0  0  0  0  0
    4.7043   -0.3826   -0.5557 N   0  0  0  0  0  0  0  0  0  0  0  0
    5.8960    0.1881   -0.5709 N   0  0  0  0  0  0  0  0  0  0  0  0
    7.9268    1.7029    0.9153 H   0  0  0  0  0  0  0  0  0  0  0  0
    6.9226    3.0979    0.4358 H   0  0  0  0  0  0  0  0  0  0  0  0
    2.0766    0.4341    1.2760 H   0  0  0  0  0  0  0  0  0  0  0  0
    1.0924   -3.8015    0.4562 H   0  0  0  0  0  0  0  0  0  0  0  0
   -1.5019   -3.9175    0.7369 H   0  0  0  0  0  0  0  0  0  0  0  0
   -0.0688    1.0303    0.5762 H   0  0  0  0  0  0  0  0  0  0  0  0
   -0.2281    0.7483   -1.1720 H   0  0  0  0  0  0  0  0  0  0  0  0
   -2.9220    1.0792   -1.9980 H   0  0  0  0  0  0  0  0  0  0  0  0
   -2.4795   -0.5791   -1.6133 H   0  0  0  0  0  0  0  0  0  0  0  0
   -4.3293   -0.7325    0.0324 H   0  0  0  0  0  0  0  0  0  0  0  0
   -4.9370   -0.1013   -1.5235 H   0  0  0  0  0  0  0  0  0  0  0  0
   -4.3859    2.2356   -0.6303 H   0  0  0  0  0  0  0  0  0  0  0  0
   -6.4703    1.3675   -0.7608 H   0  0  0  0  0  0  0  0  0  0  0  0
   -4.2852    2.3247    1.8613 H   0  0  0  0  0  0  0  0  0  0  0  0
   -4.3409    0.5463    1.9028 H   0  0  0  0  0  0  0  0  0  0  0  0
   -2.0933    0.7239    1.9571 H   0  0  0  0  0  0  0  0  0  0  0  0
   -2.0942    2.3582    1.3147 H   0  0  0  0  0  0  0  0  0  0  0  0
    4.8227   -1.9655   -1.9829 H   0  0  0  0  0  0  0  0  0  0  0  0
  1  2  1  0
  2  3  1  0
  3  4  2  0
  4  5  1  0
  5  6  2  0
  6  7  1  0
  7  8  2  0
  8  9  1  0
  9 10  1  0
 10 11  2  0
 11 12  1  0
 12 13  1  0
 13 14  1  0
 14 15  1  0
 15 16  1  0
 16 17  1  0
 16 18  1  0
 18 19  1  0
  6 20  1  0
 20 21  1  0
 20 22  2  0
 22 23  1  0
 23 24  1  0
 24  2  2  0
 23  4  1  0
 11  7  1  0
 19 13  1  0
  1 25  1  0
  1 26  1  0
  5 27  1  0
  8 28  1  0
  9 29  1  0
 12 30  1  0
 12 31  1  0
 14 32  1  0
 14 33  1  0
 15 34  1  0
 15 35  1  0
 16 36  1  0
 17 37  1  0
 18 38  1  0
 18 39  1  0
 19 40  1  0
 19 41  1  0
 22 42  1  0
M  END
$$$$
[H]OC(=O)C([H])([H])[C@@]([H])(C(=O)C([H])([H])SC([H])([H])c1c([H])c([H])c([H])c([H])c1[H])N([H])C(=O)C([H])(n1c([H])c([H])nc(N([H])C([H])([H])c2nonc2C([H])([H])[H])c1=O)C([H])([H])C([H])([H])[H]
     RDKit          3D

 65 67  0  0  0  0  0  0  0  0999 V2000
   -1.9220   -1.4276   -2.6922 C   0  0  0  0  0  0  0  0  0  0  0  0
   -0.9362   -0.7752   -1.7563 C   0  0  0  0  0  0  0  0  0  0  0  0
   -1.1992   -1.1657   -0.3036 C   0  0  0  0  0  0  0  0  0  0  0  0
   -0.2460   -0.5360    0.6127 C   0  0  0  0  0  0  0  0  0  0  0  0
   -0.6374    0.2217    1.5674 O   0  0  0  0  0  0  0  0  0  0  0  0
    1.1426   -0.7675    0.4440 N   0  0  0  0  0  0  0  0  0  0  0  0
    2.1548   -0.1893    1.3034 C   0  0  1  0  0  0  0  0  0  0  0  0
    3.1709   -1.2010    1.7754 C   0  0  0  0  0  0  0  0  0  0  0  0
    2.4989   -2.2667    2.5351 C   0  0  0  0  0  0  0  0  0  0  0  0
    3.2575   -3.3127    3.0668 O   0  0  0  0  0  0  0  0  0  0  0  0
    1.2773   -2.3038    2.7424 O   0  0  0  0  0  0  0  0  0  0  0  0
    2.9425    0.8572    0.5507 C   0  0  0  0  0  0  0  0  0  0  0  0
    2.7062    1.1347   -0.6112 O   0  0  0  0  0  0  0  0  0  0  0  0
    4.0482    1.5874    1.2263 C   0  0  0  0  0  0  0  0  0  0  0  0
    4.8170    2.7797    0.1176 S   0  0  0  0  0  0  0  0  0  0  0  0
    5.6682    1.9921   -1.2564 C   0  0  0  0  0  0  0  0  0  0  0  0
    6.8463    1.1935   -0.8484 C   0  0  0  0  0  0  0  0  0  0  0  0
    8.1146    1.6995   -0.7568 C   0  0  0  0  0  0  0  0  0  0  0  0
    9.1518    0.8971   -0.3722 C   0  0  0  0  0  0  0  0  0  0  0  0
    8.9600   -0.4432   -0.0644 C   0  0  0  0  0  0  0  0  0  0  0  0
    7.6673   -0.9397   -0.1627 C   0  0  0  0  0  0  0  0  0  0  0  0
    6.6109   -0.1428   -0.5492 C   0  0  0  0  0  0  0  0  0  0  0  0
   -2.5726   -1.0301    0.0781 N   0  0  0  0  0  0  0  0  0  0  0  0
   -3.3205   -2.0939    0.5003 C   0  0  0  0  0  0  0  0  0  0  0  0
   -4.6398   -1.9666    0.8672 C   0  0  0  0  0  0  0  0  0  0  0  0
   -5.2171   -0.7475    0.8084 N   0  0  0  0  0  0  0  0  0  0  0  0
   -4.5350    0.3353    0.4021 C   0  0  0  0  0  0  0  0  0  0  0  0
   -5.1121    1.6246    0.3406 N   0  0  0  0  0  0  0  0  0  0  0  0
   -6.4896    1.7878    0.7007 C   0  0  0  0  0  0  0  0  0  0  0  0
   -7.4326    1.0825   -0.2266 C   0  0  0  0  0  0  0  0  0  0  0  0
   -7.1797    0.3542   -1.3257 N   0  0  0  0  0  0  0  0  0  0  0  0
   -8.2968   -0.0752   -1.8454 O   0  0  0  0  0  0  0  0  0  0  0  0
   -9.2918    0.3394   -1.1336 N   0  0  0  0  0  0  0  0  0  0  0  0
   -8.8061    1.0689   -0.1077 C   0  0  0  0  0  0  0  0  0  0  0  0
   -9.5585    1.7489    0.9697 C   0  0  0  0  0  0  0  0  0  0  0  0
   -3.2072    0.1508    0.0437 C   0  0  0  0  0  0  0  0  0  0  0  0
   -2.5907    1.1756   -0.3318 O   0  0  0  0  0  0  0  0  0  0  0  0
   -2.4431   -0.6315   -3.2560 H   0  0  0  0  0  0  0  0  0  0  0  0
   -1.3943   -2.0761   -3.4278 H   0  0  0  0  0  0  0  0  0  0  0  0
   -2.6345   -2.0158   -2.0712 H   0  0  0  0  0  0  0  0  0  0  0  0
    0.1145   -1.0885   -2.0370 H   0  0  0  0  0  0  0  0  0  0  0  0
   -0.9558    0.3038   -1.9312 H   0  0  0  0  0  0  0  0  0  0  0  0
   -0.9620   -2.2724   -0.2729 H   0  0  0  0  0  0  0  0  0  0  0  0
    1.4408   -1.3906   -0.3471 H   0  0  0  0  0  0  0  0  0  0  0  0
    1.6816    0.3657    2.1321 H   0  0  0  0  0  0  0  0  0  0  0  0
    3.9023   -0.7322    2.4810 H   0  0  0  0  0  0  0  0  0  0  0  0
    3.7929   -1.5850    0.9428 H   0  0  0  0  0  0  0  0  0  0  0  0
    3.9449   -3.7415    2.4473 H   0  0  0  0  0  0  0  0  0  0  0  0
    4.8498    0.8347    1.4882 H   0  0  0  0  0  0  0  0  0  0  0  0
    3.7469    2.0351    2.1925 H   0  0  0  0  0  0  0  0  0  0  0  0
    4.9449    1.3806   -1.8583 H   0  0  0  0  0  0  0  0  0  0  0  0
    6.0387    2.8033   -1.9256 H   0  0  0  0  0  0  0  0  0  0  0  0
    8.2954    2.7275   -0.9868 H   0  0  0  0  0  0  0  0  0  0  0  0
   10.1851    1.2641   -0.2861 H   0  0  0  0  0  0  0  0  0  0  0  0
    9.7612   -1.0766    0.2360 H   0  0  0  0  0  0  0  0  0  0  0  0
    7.4908   -1.9712    0.0699 H   0  0  0  0  0  0  0  0  0  0  0  0
    5.6306   -0.5931   -0.6045 H   0  0  0  0  0  0  0  0  0  0  0  0
   -2.8292   -3.0507    0.5359 H   0  0  0  0  0  0  0  0  0  0  0  0
   -5.2428   -2.7872    1.2005 H   0  0  0  0  0  0  0  0  0  0  0  0
   -4.5532    2.4384    0.0412 H   0  0  0  0  0  0  0  0  0  0  0  0
   -6.6947    1.5064    1.7583 H   0  0  0  0  0  0  0  0  0  0  0  0
   -6.7381    2.8750    0.5988 H   0  0  0  0  0  0  0  0  0  0  0  0
   -8.8816    2.0424    1.7922 H   0  0  0  0  0  0  0  0  0  0  0  0
  -10.3850    1.0863    1.3059 H   0  0  0  0  0  0  0  0  0  0  0  0
   -9.9499    2.7027    0.5271 H   0  0  0  0  0  0  0  0  0  0  0  0
  1  2  1  0
  2  3  1  0
  3  4  1  0
  4  5  2  0
  4  6  1  0
  6  7  1  0
  7  8  1  0
  8  9  1  0
  9 10  1  0
  9 11  2  0
  7 12  1  0
 12 13  2  0
 12 14  1  0
 14 15  1  0
 15 16  1  0
 16 17  1  0
 17 18  2  0
 18 19  1  0
 19 20  2  0
 20 21  1  0
 21 22  2  0
  3 23  1  0
 23 24  1  0
 24 25  2  0
 25 26  1  0
 26 27  2  0
 27 28  1  0
 28 29  1  0
 29 30  1  0
 30 31  2  0
 31 32  1  0
 32 33  1  0
 33 34  2  0
 34 35  1  0
 27 36  1  0
 36 37  2  0
 22 17  1  0
 36 23  1  0
 34 30  1  0
  1 38  1  0
  1 39  1  0
  1 40  1  0
  2 41  1  0
  2 42  1  0
  3 43  1  0
  6 44  1  0
  7 45  1  1
  8 46  1  0
  8 47  1  0
 10 48  1  0
 14 49  1  0
 14 50  1  0
 16 51  1  0
 16 52  1  0
 18 53  1  0
 19 54  1  0
 20 55  1  0
 21 56  1  0
 22 57  1  0
 24 58  1  0
 25 59  1  0
 28 60  1  0
 29 61  1  0
 29 62  1  0
 35 63  1  0
 35 64  1  0
 35 65  1  0
M  END
$$$$
[H]C([H])=C(C([H])([H])[H])C([H])([H])C([H])([H])/N=C(\c1nc([H])c([H])c([H])c1[H])c1c([H])c([H])c([H])c(S(=O)(=O)N([H])[H])c1[H]
     RDKit          3D

 42 43  0  0  0  0  0  0  0  0999 V2000
    5.1197    0.5224   -0.8919 C   0  0  0  0  0  0  0  0  0  0  0  0
    4.4749    1.3433    0.1723 C   0  0  0  0  0  0  0  0  0  0  0  0
    5.2150    1.8322    1.1672 C   0  0  0  0  0  0  0  0  0  0  0  0
    3.0346    1.6110    0.1240 C   0  0  0  0  0  0  0  0  0  0  0  0
    2.2523    0.2395    0.1675 C   0  0  0  0  0  0  0  0  0  0  0  0
    0.9197    0.6114    0.1176 N   0  0  0  0  0  0  0  0  0  0  0  0
   -0.1581   -0.1265    0.0332 C   0  0  0  0  0  0  0  0  0  0  0  0
    0.0926   -1.5332   -0.0133 C   0  0  0  0  0  0  0  0  0  0  0  0
   -0.8609   -2.4783   -0.2247 C   0  0  0  0  0  0  0  0  0  0  0  0
   -0.5978   -3.8639   -0.1724 C   0  0  0  0  0  0  0  0  0  0  0  0
    0.6778   -4.2777    0.1013 C   0  0  0  0  0  0  0  0  0  0  0  0
    1.6419   -3.2895    0.3124 C   0  0  0  0  0  0  0  0  0  0  0  0
    1.3287   -2.0213    0.2502 N   0  0  0  0  0  0  0  0  0  0  0  0
   -1.4018    0.6288    0.0188 C   0  0  0  0  0  0  0  0  0  0  0  0
   -1.3202    2.0377   -0.0243 C   0  0  0  0  0  0  0  0  0  0  0  0
   -2.4095    2.8619    0.0327 C   0  0  0  0  0  0  0  0  0  0  0  0
   -3.6677    2.3392    0.1374 C   0  0  0  0  0  0  0  0  0  0  0  0
   -3.8087    0.9791    0.1843 C   0  0  0  0  0  0  0  0  0  0  0  0
   -2.6735    0.1523    0.1251 C   0  0  0  0  0  0  0  0  0  0  0  0
   -5.4020    0.2640    0.3182 S   0  0  0  0  0  0  0  0  0  0  0  0
   -6.0777   -0.0310   -1.2321 N   0  0  0  0  0  0  0  0  0  0  0  0
   -6.3261    1.1693    1.0892 O   0  0  0  0  0  0  0  0  0  0  0  0
   -5.2578   -1.0717    1.0144 O   0  0  0  0  0  0  0  0  0  0  0  0
    4.9007    0.9532   -1.8887 H   0  0  0  0  0  0  0  0  0  0  0  0
    6.2345    0.4997   -0.7208 H   0  0  0  0  0  0  0  0  0  0  0  0
    4.7277   -0.4995   -0.8448 H   0  0  0  0  0  0  0  0  0  0  0  0
    6.2938    1.6269    1.1960 H   0  0  0  0  0  0  0  0  0  0  0  0
    4.7586    2.4292    1.9452 H   0  0  0  0  0  0  0  0  0  0  0  0
    2.7056    2.1456   -0.7784 H   0  0  0  0  0  0  0  0  0  0  0  0
    2.6649    2.1427    1.0030 H   0  0  0  0  0  0  0  0  0  0  0  0
    2.7064   -0.2551   -0.7193 H   0  0  0  0  0  0  0  0  0  0  0  0
    2.6422   -0.1668    1.1483 H   0  0  0  0  0  0  0  0  0  0  0  0
   -1.8790   -2.2787   -0.5047 H   0  0  0  0  0  0  0  0  0  0  0  0
   -1.3884   -4.5917   -0.3451 H   0  0  0  0  0  0  0  0  0  0  0  0
    0.9453   -5.3138    0.1557 H   0  0  0  0  0  0  0  0  0  0  0  0
    2.6462   -3.6644    0.5270 H   0  0  0  0  0  0  0  0  0  0  0  0
   -0.3481    2.4797   -0.1092 H   0  0  0  0  0  0  0  0  0  0  0  0
   -2.3119    3.9473   -0.0028 H   0  0  0  0  0  0  0  0  0  0  0  0
   -4.5567    2.9722    0.1847 H   0  0  0  0  0  0  0  0  0  0  0  0
   -2.8689   -0.8730    0.2154 H   0  0  0  0  0  0  0  0  0  0  0  0
   -7.1080    0.1413   -1.2623 H   0  0  0  0  0  0  0  0  0  0  0  0
   -5.5601    0.4065   -2.0063 H   0  0  0  0  0  0  0  0  0  0  0  0
  1  2  1  0
  2  3  2  3
  2  4  1  0
  4  5  1  0
  5  6  1  0
  6  7  2  0
  7  8  1  0
  8  9  2  0
  9 10  1  0
 10 11  2  0
 11 12  1  0
 12 13  2  0
  7 14  1  0
 14 15  2  0
 15 16  1  0
 16 17  2  0
 17 18  1  0
 18 19  2  0
 18 20  1  0
 20 21  1  0
 20 22  2  0
 20 23  2  0
 13  8  1  0
 19 14  1  0
  1 24  1  0
  1 25  1  0
  1 26  1  0
  3 27  1  0
  3 28  1  0
  4 29  1  0
  4 30  1  0
  5 31  1  0
  5 32  1  0
  9 33  1  0
 10 34  1  0
 11 35  1  0
 12 36  1  0
 15 37  1  0
 16 38  1  0
 17 39  1  0
 19 40  1  0
 21 41  1  0
 21 42  1  0
M  END
$$$$
[H]OC(=O)c1c([H])nn([C@@]2([H])O[C@]([H])(C([H])([H])OP(=O)(O[H])OP(=O)(O[H])OP(=O)(O[H])OC([H])([H])[C@]3([H])O[C@@]([H])(C(=O)O[H])[C@@]3([H])O[H])[C@@]2([H])O[H])c1[H]
     RDKit          3D

 55 57  0  0  0  0  0  0  0  0999 V2000
    8.3455   -1.0343   -0.6562 O   0  0  0  0  0  0  0  0  0  0  0  0
    7.4842   -0.0159   -1.0424 C   0  0  1  0  0  0  0  0  0  0  0  0
    6.7805    0.6978    0.0844 C   0  0  2  0  0  0  0  0  0  0  0  0
    5.3202    0.3251    0.2338 C   0  0  0  0  0  0  0  0  0  0  0  0
    5.2246   -0.8830    0.9192 O   0  0  0  0  0  0  0  0  0  0  0  0
    3.5833   -1.2584    1.0623 P   0  0  0  0  0  0  0  0  0  0  0  0
    3.3538   -2.7530    1.8134 O   0  0  0  0  0  0  0  0  0  0  0  0
    2.9515   -0.1921    1.9298 O   0  0  0  0  0  0  0  0  0  0  0  0
    2.8841   -1.2100   -0.4774 O   0  0  0  0  0  0  0  0  0  0  0  0
    1.2181   -1.5257   -0.2537 P   0  0  0  0  0  0  0  0  0  0  0  0
    1.1213   -2.6632    0.9938 O   0  0  0  0  0  0  0  0  0  0  0  0
    0.6583   -2.1152   -1.5448 O   0  0  0  0  0  0  0  0  0  0  0  0
    0.4836   -0.0759    0.1197 O   0  0  0  0  0  0  0  0  0  0  0  0
   -0.5872   -0.1483    1.3950 P   0  0  0  0  0  0  0  0  0  0  0  0
   -0.3634    1.2719    2.3255 O   0  0  0  0  0  0  0  0  0  0  0  0
   -0.2795   -1.3027    2.3517 O   0  0  0  0  0  0  0  0  0  0  0  0
   -2.1902   -0.1868    0.9347 O   0  0  0  0  0  0  0  0  0  0  0  0
   -2.4188   -1.0516   -0.1352 C   0  0  0  0  0  0  0  0  0  0  0  0
   -3.8578   -1.0834   -0.5450 C   0  0  1  0  0  0  0  0  0  0  0  0
   -4.7551   -1.4901    0.4212 O   0  0  0  0  0  0  0  0  0  0  0  0
   -5.2136   -0.1904    0.6077 C   0  0  1  0  0  0  0  0  0  0  0  0
   -4.4708    0.2981   -0.6212 C   0  0  2  0  0  0  0  0  0  0  0  0
   -5.3311    0.3908   -1.7206 O   0  0  0  0  0  0  0  0  0  0  0  0
   -6.6618   -0.0734    0.4728 N   0  0  0  0  0  0  0  0  0  0  0  0
   -7.3120    1.0882    0.2875 C   0  0  0  0  0  0  0  0  0  0  0  0
   -8.6860    0.8651    0.1970 C   0  0  0  0  0  0  0  0  0  0  0  0
   -8.8018   -0.5169    0.3427 C   0  0  0  0  0  0  0  0  0  0  0  0
   -7.5798   -1.0142    0.5014 N   0  0  0  0  0  0  0  0  0  0  0  0
   -9.7414    1.8365   -0.0010 C   0  0  0  0  0  0  0  0  0  0  0  0
   -9.4400    3.1728   -0.1260 O   0  0  0  0  0  0  0  0  0  0  0  0
  -10.9275    1.4602   -0.0585 O   0  0  0  0  0  0  0  0  0  0  0  0
    6.9742    1.8964   -0.5913 O   0  0  0  0  0  0  0  0  0  0  0  0
    8.1122    1.3426   -1.1716 C   0  0  1  0  0  0  0  0  0  0  0  0
    9.2835    1.5295   -0.2657 C   0  0  0  0  0  0  0  0  0  0  0  0
    9.1894    2.1724    0.9599 O   0  0  0  0  0  0  0  0  0  0  0  0
   10.4127    1.0946   -0.6064 O   0  0  0  0  0  0  0  0  0  0  0  0
    8.0517   -1.3393    0.2504 H   0  0  0  0  0  0  0  0  0  0  0  0
    6.8342   -0.2769   -1.9014 H   0  0  0  0  0  0  0  0  0  0  0  0
    7.3338    0.5580    1.0200 H   0  0  0  0  0  0  0  0  0  0  0  0
    4.8715    0.2753   -0.7700 H   0  0  0  0  0  0  0  0  0  0  0  0
    4.8164    1.1105    0.8194 H   0  0  0  0  0  0  0  0  0  0  0  0
    3.4916   -3.4771    1.1384 H   0  0  0  0  0  0  0  0  0  0  0  0
    0.3718   -3.2890    0.8768 H   0  0  0  0  0  0  0  0  0  0  0  0
   -0.4596    2.0190    1.6855 H   0  0  0  0  0  0  0  0  0  0  0  0
   -2.1086   -2.0708    0.1189 H   0  0  0  0  0  0  0  0  0  0  0  0
   -1.8161   -0.7048   -0.9998 H   0  0  0  0  0  0  0  0  0  0  0  0
   -4.0024   -1.6798   -1.4658 H   0  0  0  0  0  0  0  0  0  0  0  0
   -4.8784    0.2439    1.5594 H   0  0  0  0  0  0  0  0  0  0  0  0
   -3.7879    1.1343   -0.4720 H   0  0  0  0  0  0  0  0  0  0  0  0
   -5.1198   -0.2802   -2.4017 H   0  0  0  0  0  0  0  0  0  0  0  0
   -6.8555    2.0725    0.2152 H   0  0  0  0  0  0  0  0  0  0  0  0
   -9.7702   -1.0046    0.3161 H   0  0  0  0  0  0  0  0  0  0  0  0
   -8.5778    3.4405   -0.5834 H   0  0  0  0  0  0  0  0  0  0  0  0
    8.2940    1.6759   -2.2155 H   0  0  0  0  0  0  0  0  0  0  0  0
    8.5482    2.9348    1.1147 H   0  0  0  0  0  0  0  0  0  0  0  0
  1  2  1  0
  2  3  1  0
  3  4  1  0
  4  5  1  0
  5  6  1  0
  6  7  1  0
  6  8  2  0
  6  9  1  0
  9 10  1  0
 10 11  1  0
 10 12  2  0
 10 13  1  0
 13 14  1  0
 14 15  1  0
 14 16  2  0
 14 17  1  0
 17 18  1  0
 18 19  1  0
 19 20  1  0
 20 21  1  0
 21 22  1  0
 22 23  1  0
 21 24  1  0
 24 25  1  0
 25 26  2  0
 26 27  1  0
 27 28  2  0
 26 29  1  0
 29 30  1  0
 29 31  2  0
  3 32  1  0
 32 33  1  0
 33 34  1  0
 34 35  1  0
 34 36  2  0
 33  2  1  0
 22 19  1  0
 28 24  1  0
  1 37  1  0
  2 38  1  6
  3 39  1  1
  4 40  1  0
  4 41  1  0
  7 42  1  0
 11 43  1  0
 15 44  1  0
 18 45  1  0
 18 46  1  0
 19 47  1  6
 21 48  1  1
 22 49  1  1
 23 50  1  0
 25 51  1  0
 27 52  1  0
 30 53  1  0
 33 54  1  6
 35 55  1  0
M  END
$$$$
[H]Oc1c([H])c([H])c(-c2c([H])c([H])c(O[H])c([H])c2Oc2c([H])c([H])c([H])c([H])c2[H])c([H])c1[H]
     RDKit          3D

 35 37  0  0  0  0  0  0  0  0999 V2000
   -0.3994    5.0757    1.3607 O   0  0  0  0  0  0  0  0  0  0  0  0
    0.0054    3.7948    0.9697 C   0  0  0  0  0  0  0  0  0  0  0  0
    1.1231    3.7062    0.1480 C   0  0  0  0  0  0  0  0  0  0  0  0
    1.5141    2.4539   -0.2287 C   0  0  0  0  0  0  0  0  0  0  0  0
    0.8505    1.2800    0.1696 C   0  0  0  0  0  0  0  0  0  0  0  0
    1.4645   -0.0047   -0.2450 C   0  0  0  0  0  0  0  0  0  0  0  0
    2.0798   -0.7761    0.7513 C   0  0  0  0  0  0  0  0  0  0  0  0
    2.6743   -1.9720    0.4324 C   0  0  0  0  0  0  0  0  0  0  0  0
    2.6772   -2.4322   -0.8617 C   0  0  0  0  0  0  0  0  0  0  0  0
    3.2850   -3.6549   -1.1884 O   0  0  0  0  0  0  0  0  0  0  0  0
    2.0670   -1.6578   -1.8236 C   0  0  0  0  0  0  0  0  0  0  0  0
    1.4615   -0.4505   -1.5286 C   0  0  0  0  0  0  0  0  0  0  0  0
   -0.2370    1.3995    0.9672 C   0  0  0  0  0  0  0  0  0  0  0  0
   -0.9627    0.3405    1.4086 O   0  0  0  0  0  0  0  0  0  0  0  0
   -1.7309   -0.5646    0.7410 C   0  0  0  0  0  0  0  0  0  0  0  0
   -1.5003   -1.8864    0.5045 C   0  0  0  0  0  0  0  0  0  0  0  0
   -2.3744   -2.6808   -0.1933 C   0  0  0  0  0  0  0  0  0  0  0  0
   -3.5469   -2.1441   -0.6887 C   0  0  0  0  0  0  0  0  0  0  0  0
   -3.8098   -0.8130   -0.4669 C   0  0  0  0  0  0  0  0  0  0  0  0
   -2.9321   -0.0332    0.2286 C   0  0  0  0  0  0  0  0  0  0  0  0
   -0.6742    2.6878    1.3824 C   0  0  0  0  0  0  0  0  0  0  0  0
   -1.1812    5.2630    1.9449 H   0  0  0  0  0  0  0  0  0  0  0  0
    1.6383    4.6148   -0.1615 H   0  0  0  0  0  0  0  0  0  0  0  0
    2.3809    2.3207   -0.8709 H   0  0  0  0  0  0  0  0  0  0  0  0
    2.0636   -0.3906    1.7642 H   0  0  0  0  0  0  0  0  0  0  0  0
    3.1414   -2.5455    1.2229 H   0  0  0  0  0  0  0  0  0  0  0  0
    4.2628   -3.6611   -1.4499 H   0  0  0  0  0  0  0  0  0  0  0  0
    2.0840   -2.0469   -2.8418 H   0  0  0  0  0  0  0  0  0  0  0  0
    0.9859    0.1459   -2.2984 H   0  0  0  0  0  0  0  0  0  0  0  0
   -0.5726   -2.3083    0.9094 H   0  0  0  0  0  0  0  0  0  0  0  0
   -2.1205   -3.7199   -0.3398 H   0  0  0  0  0  0  0  0  0  0  0  0
   -4.2568   -2.7390   -1.2416 H   0  0  0  0  0  0  0  0  0  0  0  0
   -4.7435   -0.4167   -0.8698 H   0  0  0  0  0  0  0  0  0  0  0  0
   -3.1858    1.0126    0.3771 H   0  0  0  0  0  0  0  0  0  0  0  0
   -1.5314    2.8030    2.0162 H   0  0  0  0  0  0  0  0  0  0  0  0
  1  2  1  0
  2  3  2  0
  3  4  1  0
  4  5  2  0
  5  6  1  0
  6  7  2  0
  7  8  1  0
  8  9  2  0
  9 10  1  0
  9 11  1  0
 11 12  2  0
  5 13  1  0
 13 14  1  0
 14 15  1  0
 15 16  2  0
 16 17  1  0
 17 18  2  0
 18 19  1  0
 19 20  2  0
 13 21  2  0
 21  2  1  0
 12  6  1  0
 20 15  1  0
  1 22  1  0
  3 23  1  0
  4 24  1  0
  7 25  1  0
  8 26  1  0
 10 27  1  0
 11 28  1  0
 12 29  1  0
 16 30  1  0
 17 31  1  0
 18 32  1  0
 19 33  1  0
 20 34  1  0
 21 35  1  0
M  END
$$$$
[H]c1c([H])c(N(C([H])([H])[H])C([H])([H])[H])c([H])c(C([H])([H])n2c(=O)c(C(=O)N([H])C([H])([H])C([H])(C([H])([H])C([H])([H])[H])C([H])([H])C([H])([H])[H])c(C([H])([H])[H])n2[H])c1[H]
     RDKit          3D

 56 57  0  0  0  0  0  0  0  0999 V2000
    5.7195   -2.2413   -0.5933 C   0  0  0  0  0  0  0  0  0  0  0  0
    5.1165   -0.8819   -0.7354 C   0  0  0  0  0  0  0  0  0  0  0  0
    4.8972   -0.1900    0.5988 C   0  0  0  0  0  0  0  0  0  0  0  0
    6.2303   -0.0256    1.3280 C   0  0  0  0  0  0  0  0  0  0  0  0
    7.1730    0.8006    0.5019 C   0  0  0  0  0  0  0  0  0  0  0  0
    3.9046   -0.9255    1.4293 C   0  0  0  0  0  0  0  0  0  0  0  0
    2.6289   -1.0050    0.7364 N   0  0  0  0  0  0  0  0  0  0  0  0
    1.8888    0.1334    0.4277 C   0  0  0  0  0  0  0  0  0  0  0  0
    2.3311    1.2980    0.7769 O   0  0  0  0  0  0  0  0  0  0  0  0
    0.6128    0.1548   -0.2754 C   0  0  0  0  0  0  0  0  0  0  0  0
   -0.1061   -0.8157   -0.9155 C   0  0  0  0  0  0  0  0  0  0  0  0
    0.2973   -2.2345   -1.0893 C   0  0  0  0  0  0  0  0  0  0  0  0
   -1.2704   -0.2707   -1.3959 N   0  0  0  0  0  0  0  0  0  0  0  0
   -1.3168    0.9992   -1.0879 N   0  0  0  0  0  0  0  0  0  0  0  0
   -2.4304    1.8552   -1.4596 C   0  0  0  0  0  0  0  0  0  0  0  0
   -3.4455    1.8306   -0.3940 C   0  0  0  0  0  0  0  0  0  0  0  0
   -3.3709    2.7524    0.6134 C   0  0  0  0  0  0  0  0  0  0  0  0
   -4.3260    2.7179    1.6030 C   0  0  0  0  0  0  0  0  0  0  0  0
   -5.3458    1.7604    1.5734 C   0  0  0  0  0  0  0  0  0  0  0  0
   -5.4143    0.8357    0.5562 C   0  0  0  0  0  0  0  0  0  0  0  0
   -4.4600    0.8671   -0.4364 C   0  0  0  0  0  0  0  0  0  0  0  0
   -6.4726   -0.1434    0.5423 N   0  0  0  0  0  0  0  0  0  0  0  0
   -7.6967    0.2139   -0.1485 C   0  0  0  0  0  0  0  0  0  0  0  0
   -6.2968   -1.4250    1.1987 C   0  0  0  0  0  0  0  0  0  0  0  0
   -0.2047    1.3009   -0.4132 C   0  0  0  0  0  0  0  0  0  0  0  0
    0.0703    2.4315    0.0304 O   0  0  0  0  0  0  0  0  0  0  0  0
    6.7687   -2.1857   -1.0018 H   0  0  0  0  0  0  0  0  0  0  0  0
    5.2075   -2.9916   -1.2648 H   0  0  0  0  0  0  0  0  0  0  0  0
    5.6864   -2.6648    0.4114 H   0  0  0  0  0  0  0  0  0  0  0  0
    4.1344   -0.9862   -1.2234 H   0  0  0  0  0  0  0  0  0  0  0  0
    5.7274   -0.1859   -1.3498 H   0  0  0  0  0  0  0  0  0  0  0  0
    4.5556    0.8270    0.3904 H   0  0  0  0  0  0  0  0  0  0  0  0
    6.0842    0.4749    2.3038 H   0  0  0  0  0  0  0  0  0  0  0  0
    6.7067   -0.9995    1.5195 H   0  0  0  0  0  0  0  0  0  0  0  0
    7.7340    1.5000    1.1589 H   0  0  0  0  0  0  0  0  0  0  0  0
    7.9325    0.1430   -0.0102 H   0  0  0  0  0  0  0  0  0  0  0  0
    6.6230    1.4333   -0.2254 H   0  0  0  0  0  0  0  0  0  0  0  0
    3.7034   -0.3538    2.3678 H   0  0  0  0  0  0  0  0  0  0  0  0
    4.2565   -1.9230    1.7643 H   0  0  0  0  0  0  0  0  0  0  0  0
    2.3048   -1.9781    0.4959 H   0  0  0  0  0  0  0  0  0  0  0  0
    1.2944   -2.2884   -1.5675 H   0  0  0  0  0  0  0  0  0  0  0  0
    0.2449   -2.8335   -0.1646 H   0  0  0  0  0  0  0  0  0  0  0  0
   -0.3833   -2.7185   -1.8548 H   0  0  0  0  0  0  0  0  0  0  0  0
   -1.9607   -0.8611   -1.9197 H   0  0  0  0  0  0  0  0  0  0  0  0
   -2.0971    2.8920   -1.6687 H   0  0  0  0  0  0  0  0  0  0  0  0
   -2.8978    1.4926   -2.4187 H   0  0  0  0  0  0  0  0  0  0  0  0
   -2.5721    3.4740    0.6025 H   0  0  0  0  0  0  0  0  0  0  0  0
   -4.3017    3.4261    2.4127 H   0  0  0  0  0  0  0  0  0  0  0  0
   -6.0995    1.7273    2.3475 H   0  0  0  0  0  0  0  0  0  0  0  0
   -4.4966    0.1590   -1.2326 H   0  0  0  0  0  0  0  0  0  0  0  0
   -8.3389   -0.7035   -0.1829 H   0  0  0  0  0  0  0  0  0  0  0  0
   -8.1934    1.0274    0.4345 H   0  0  0  0  0  0  0  0  0  0  0  0
   -7.4958    0.5752   -1.1837 H   0  0  0  0  0  0  0  0  0  0  0  0
   -6.3917   -1.2519    2.2838 H   0  0  0  0  0  0  0  0  0  0  0  0
   -5.3440   -1.9164    0.9406 H   0  0  0  0  0  0  0  0  0  0  0  0
   -7.1051   -2.1029    0.8238 H   0  0  0  0  0  0  0  0  0  0  0  0
  1  2  1  0
  2  3  1  0
  3  4  1  0
  4  5  1  0
  3  6  1  0
  6  7  1  0
  7  8  1  0
  8  9  2  0
  8 10  1  0
 10 11  2  0
 11 12  1  0
 11 13  1  0
 13 14  1  0
 14 15  1  0
 15 16  1  0
 16 17  2  0
 17 18  1  0
 18 19  2  0
 19 20  1  0
 20 21  2  0
 20 22  1  0
 22 23  1  0
 22 24  1  0
 14 25  1  0
 25 26  2  0
 25 10  1  0
 21 16  1  0
  1 27  1  0
  1 28  1  0
  1 29  1  0
  2 30  1  0
  2 31  1  0
  3 32  1  0
  4 33  1  0
  4 34  1  0
  5 35  1  0
  5 36  1  0
  5 37  1  0
  6 38  1  0
  6 39  1  0
  7 40  1  0
 12 41  1  0
 12 42  1  0
 12 43  1  0
 13 44  1  0
 15 45  1  0
 15 46  1  0
 17 47  1  0
 18 48  1  0
 19 49  1  0
 21 50  1  0
 23 51  1  0
 23 52  1  0
 23 53  1  0
 24 54  1  0
 24 55  1  0
 24 56  1  0
M  END
$$$$
[H]c1c([H])c([H])c([N+](=O)[O-])c(N(c2nc3c(s2)C([H])([H])C([H])([H])C([H])([H])C3([H])[H])C([H])([H])C(=O)N2C([H])([H])C([H])([H])C([H])(C3([H])C([H])([H])c4c([H])c([H])c([H])c([H])c4C3([H])[H])C([H])([H])C2([H])[H])c1[H]
     RDKit          3D

 69 74  0  0  0  0  0  0  0  0999 V2000
   -1.8270   -5.0048   -1.3247 O   0  0  0  0  0  0  0  0  0  0  0  0
   -2.5651   -3.8422   -1.0756 N   0  0  0  0  0  0  0  0  0  0  0  0
   -2.3834   -2.9336   -1.8991 O   0  0  0  0  0  0  0  0  0  0  0  0
   -3.4498   -3.7723    0.0209 C   0  0  0  0  0  0  0  0  0  0  0  0
   -4.0895   -4.9736    0.3806 C   0  0  0  0  0  0  0  0  0  0  0  0
   -4.9734   -4.9744    1.4464 C   0  0  0  0  0  0  0  0  0  0  0  0
   -5.2291   -3.8192    2.1507 C   0  0  0  0  0  0  0  0  0  0  0  0
   -4.5782   -2.6695    1.7607 C   0  0  0  0  0  0  0  0  0  0  0  0
   -3.6837   -2.6267    0.6973 C   0  0  0  0  0  0  0  0  0  0  0  0
   -3.0444   -1.4083    0.3890 N   0  0  0  0  0  0  0  0  0  0  0  0
   -1.6394   -1.2864    0.6358 C   0  0  0  0  0  0  0  0  0  0  0  0
   -0.9619   -0.1582   -0.0116 C   0  0  0  0  0  0  0  0  0  0  0  0
   -1.5698    0.6149   -0.7593 O   0  0  0  0  0  0  0  0  0  0  0  0
    0.4240    0.0444    0.2290 N   0  0  0  0  0  0  0  0  0  0  0  0
    1.0304    1.1826   -0.4747 C   0  0  0  0  0  0  0  0  0  0  0  0
    2.4256    0.6690   -0.8701 C   0  0  0  0  0  0  0  0  0  0  0  0
    3.2082    0.6944    0.4403 C   0  0  0  0  0  0  0  0  0  0  0  0
    2.4720   -0.0155    1.5247 C   0  0  0  0  0  0  0  0  0  0  0  0
    1.2406   -0.7548    1.0876 C   0  0  0  0  0  0  0  0  0  0  0  0
    4.5651    0.0993    0.1416 C   0  0  0  0  0  0  0  0  0  0  0  0
    5.2461    0.8996   -0.9762 C   0  0  0  0  0  0  0  0  0  0  0  0
    6.6781    0.6397   -0.7522 C   0  0  0  0  0  0  0  0  0  0  0  0
    7.7448    0.6569   -1.6082 C   0  0  0  0  0  0  0  0  0  0  0  0
    8.9973    0.3803   -1.1459 C   0  0  0  0  0  0  0  0  0  0  0  0
    9.1778    0.0848    0.1864 C   0  0  0  0  0  0  0  0  0  0  0  0
    8.0994    0.0705    1.0377 C   0  0  0  0  0  0  0  0  0  0  0  0
    6.8503    0.3458    0.5771 C   0  0  0  0  0  0  0  0  0  0  0  0
    5.5431    0.3918    1.2826 C   0  0  0  0  0  0  0  0  0  0  0  0
   -3.8269   -0.3172   -0.0994 C   0  0  0  0  0  0  0  0  0  0  0  0
   -4.1970    0.7962    0.5311 N   0  0  0  0  0  0  0  0  0  0  0  0
   -4.9292    1.6742   -0.0593 C   0  0  0  0  0  0  0  0  0  0  0  0
   -5.4300    3.0180    0.4470 C   0  0  0  0  0  0  0  0  0  0  0  0
   -5.0237    4.0929   -0.5551 C   0  0  0  0  0  0  0  0  0  0  0  0
   -5.4470    3.7869   -1.9578 C   0  0  0  0  0  0  0  0  0  0  0  0
   -6.1734    2.4462   -2.0286 C   0  0  0  0  0  0  0  0  0  0  0  0
   -5.3147    1.4225   -1.3551 C   0  0  0  0  0  0  0  0  0  0  0  0
   -4.5823   -0.0855   -1.6409 S   0  0  0  0  0  0  0  0  0  0  0  0
   -3.8785   -5.8713   -0.1861 H   0  0  0  0  0  0  0  0  0  0  0  0
   -5.4660   -5.8837    1.7288 H   0  0  0  0  0  0  0  0  0  0  0  0
   -5.9323   -3.8542    2.9868 H   0  0  0  0  0  0  0  0  0  0  0  0
   -4.7857   -1.7764    2.3196 H   0  0  0  0  0  0  0  0  0  0  0  0
   -1.4556   -1.1499    1.7670 H   0  0  0  0  0  0  0  0  0  0  0  0
   -1.0506   -2.2173    0.4380 H   0  0  0  0  0  0  0  0  0  0  0  0
    1.1337    1.9764    0.2932 H   0  0  0  0  0  0  0  0  0  0  0  0
    0.4463    1.4643   -1.3543 H   0  0  0  0  0  0  0  0  0  0  0  0
    2.3164   -0.3779   -1.1599 H   0  0  0  0  0  0  0  0  0  0  0  0
    2.8723    1.3325   -1.6081 H   0  0  0  0  0  0  0  0  0  0  0  0
    3.3517    1.7518    0.7255 H   0  0  0  0  0  0  0  0  0  0  0  0
    2.1977    0.6460    2.3896 H   0  0  0  0  0  0  0  0  0  0  0  0
    3.1764   -0.7826    1.9657 H   0  0  0  0  0  0  0  0  0  0  0  0
    0.6367   -0.9380    2.0190 H   0  0  0  0  0  0  0  0  0  0  0  0
    1.4955   -1.7598    0.6937 H   0  0  0  0  0  0  0  0  0  0  0  0
    4.5662   -0.9528   -0.1287 H   0  0  0  0  0  0  0  0  0  0  0  0
    4.8975    0.5457   -1.9679 H   0  0  0  0  0  0  0  0  0  0  0  0
    5.0270    1.9644   -0.8257 H   0  0  0  0  0  0  0  0  0  0  0  0
    7.5909    0.8919   -2.6603 H   0  0  0  0  0  0  0  0  0  0  0  0
    9.8081    0.4068   -1.8684 H   0  0  0  0  0  0  0  0  0  0  0  0
   10.1808   -0.1387    0.5641 H   0  0  0  0  0  0  0  0  0  0  0  0
    8.2375   -0.1655    2.0935 H   0  0  0  0  0  0  0  0  0  0  0  0
    5.4405   -0.3449    2.0788 H   0  0  0  0  0  0  0  0  0  0  0  0
    5.3130    1.4397    1.6205 H   0  0  0  0  0  0  0  0  0  0  0  0
   -5.0065    3.2642    1.4189 H   0  0  0  0  0  0  0  0  0  0  0  0
   -6.5333    3.0296    0.4965 H   0  0  0  0  0  0  0  0  0  0  0  0
   -3.9067    4.1383   -0.4961 H   0  0  0  0  0  0  0  0  0  0  0  0
   -5.4067    5.0661   -0.2219 H   0  0  0  0  0  0  0  0  0  0  0  0
   -6.0204    4.5643   -2.4571 H   0  0  0  0  0  0  0  0  0  0  0  0
   -4.5196    3.6405   -2.5887 H   0  0  0  0  0  0  0  0  0  0  0  0
   -6.4285    2.1656   -3.0467 H   0  0  0  0  0  0  0  0  0  0  0  0
   -7.0813    2.5561   -1.4023 H   0  0  0  0  0  0  0  0  0  0  0  0
  1  2  1  0
  2  3  2  0
  2  4  1  0
  4  5  2  0
  5  6  1  0
  6  7  2  0
  7  8  1  0
  8  9  2  0
  9 10  1  0
 10 11  1  0
 11 12  1  0
 12 13  2  0
 12 14  1  0
 14 15  1  0
 15 16  1  0
 16 17  1  0
 17 18  1  0
 18 19  1  0
 17 20  1  0
 20 21  1  0
 21 22  1  0
 22 23  2  0
 23 24  1  0
 24 25  2  0
 25 26  1  0
 26 27  2  0
 27 28  1  0
 10 29  1  0
 29 30  2  0
 30 31  1  0
 31 32  1  0
 32 33  1  0
 33 34  1  0
 34 35  1  0
 35 36  1  0
 36 37  1  0
  9  4  1  0
 19 14  1  0
 28 20  1  0
 37 29  1  0
 27 22  1  0
 36 31  2  0
  5 38  1  0
  6 39  1  0
  7 40  1  0
  8 41  1  0
 11 42  1  0
 11 43  1  0
 15 44  1  0
 15 45  1  0
 16 46  1  0
 16 47  1  0
 17 48  1  0
 18 49  1  0
 18 50  1  0
 19 51  1  0
 19 52  1  0
 20 53  1  0
 21 54  1  0
 21 55  1  0
 23 56  1  0
 24 57  1  0
 25 58  1  0
 26 59  1  0
 28 60  1  0
 28 61  1  0
 32 62  1  0
 32 63  1  0
 33 64  1  0
 33 65  1  0
 34 66  1  0
 34 67  1  0
 35 68  1  0
 35 69  1  0
M  CHG  2   1  -1   2   1
M  END
$$$$
[H]c1nc(C#Cc2c([H])c(O[C@@]([H])(C([H])([H])[H])C([H])([H])OC([H])([H])[H])c([H])c(C(=O)N([H])c3nn(C([H])([H])[H])c([H])c3[H])c2[H])sc1[H]
     RDKit          3D

 48 50  0  0  0  0  0  0  0  0999 V2000
    0.6078    6.1240    0.1484 C   0  0  0  0  0  0  0  0  0  0  0  0
   -0.7506    6.2200    0.0416 O   0  0  0  0  0  0  0  0  0  0  0  0
   -1.4813    5.0849    0.2323 C   0  0  0  0  0  0  0  0  0  0  0  0
   -1.1591    3.9972   -0.7380 C   0  0  2  0  0  0  0  0  0  0  0  0
   -1.5208    4.5437   -2.1282 C   0  0  0  0  0  0  0  0  0  0  0  0
   -1.8995    2.8390   -0.5669 O   0  0  0  0  0  0  0  0  0  0  0  0
   -1.4429    1.5531   -0.3692 C   0  0  0  0  0  0  0  0  0  0  0  0
   -2.3608    0.5189   -0.2180 C   0  0  0  0  0  0  0  0  0  0  0  0
   -1.9801   -0.7868   -0.0178 C   0  0  0  0  0  0  0  0  0  0  0  0
   -0.6090   -1.0951    0.0372 C   0  0  0  0  0  0  0  0  0  0  0  0
    0.3156   -0.0920   -0.1093 C   0  0  0  0  0  0  0  0  0  0  0  0
   -0.1179    1.1973   -0.3073 C   0  0  0  0  0  0  0  0  0  0  0  0
    1.7434   -0.4364   -0.0454 C   0  0  0  0  0  0  0  0  0  0  0  0
    2.5262    0.5303   -0.2991 O   0  0  0  0  0  0  0  0  0  0  0  0
    2.2254   -1.6928    0.2612 N   0  0  0  0  0  0  0  0  0  0  0  0
    3.5961   -2.0179    0.3210 C   0  0  0  0  0  0  0  0  0  0  0  0
    4.6827   -1.2196    0.1039 C   0  0  0  0  0  0  0  0  0  0  0  0
    5.8169   -2.0158    0.2857 C   0  0  0  0  0  0  0  0  0  0  0  0
    5.4131   -3.2519    0.6017 N   0  0  0  0  0  0  0  0  0  0  0  0
    6.3267   -4.3525    0.8632 C   0  0  0  0  0  0  0  0  0  0  0  0
    4.1141   -3.2427    0.6198 N   0  0  0  0  0  0  0  0  0  0  0  0
   -2.9370   -1.8527    0.1381 C   0  0  0  0  0  0  0  0  0  0  0  0
   -3.7515   -2.7327    0.2579 C   0  0  0  0  0  0  0  0  0  0  0  0
   -4.7560   -3.7794    0.4001 C   0  0  0  0  0  0  0  0  0  0  0  0
   -4.5560   -5.0639    0.6467 N   0  0  0  0  0  0  0  0  0  0  0  0
   -5.5656   -5.8670    0.7438 C   0  0  0  0  0  0  0  0  0  0  0  0
   -6.8213   -5.3365    0.5828 C   0  0  0  0  0  0  0  0  0  0  0  0
   -6.4565   -3.6873    0.2974 S   0  0  0  0  0  0  0  0  0  0  0  0
    1.1042    5.4379   -0.5610 H   0  0  0  0  0  0  0  0  0  0  0  0
    1.0162    7.1452   -0.1118 H   0  0  0  0  0  0  0  0  0  0  0  0
    0.9580    5.8268    1.1607 H   0  0  0  0  0  0  0  0  0  0  0  0
   -1.3232    4.7620    1.2998 H   0  0  0  0  0  0  0  0  0  0  0  0
   -2.5604    5.3754    0.1685 H   0  0  0  0  0  0  0  0  0  0  0  0
   -0.0660    3.8204   -0.7044 H   0  0  0  0  0  0  0  0  0  0  0  0
   -0.6163    4.9991   -2.5643 H   0  0  0  0  0  0  0  0  0  0  0  0
   -2.3790    5.2424   -2.0532 H   0  0  0  0  0  0  0  0  0  0  0  0
   -1.8479    3.7122   -2.7950 H   0  0  0  0  0  0  0  0  0  0  0  0
   -3.4007    0.7784   -0.2636 H   0  0  0  0  0  0  0  0  0  0  0  0
   -0.3760   -2.1348    0.1948 H   0  0  0  0  0  0  0  0  0  0  0  0
    0.6301    1.9570   -0.4179 H   0  0  0  0  0  0  0  0  0  0  0  0
    1.5522   -2.4652    0.4649 H   0  0  0  0  0  0  0  0  0  0  0  0
    4.7385   -0.1936   -0.1540 H   0  0  0  0  0  0  0  0  0  0  0  0
    6.8284   -1.6544    0.1792 H   0  0  0  0  0  0  0  0  0  0  0  0
    6.8101   -4.1782    1.8434 H   0  0  0  0  0  0  0  0  0  0  0  0
    7.1465   -4.3554    0.1096 H   0  0  0  0  0  0  0  0  0  0  0  0
    5.8065   -5.3411    0.8386 H   0  0  0  0  0  0  0  0  0  0  0  0
   -5.4332   -6.9528    0.9504 H   0  0  0  0  0  0  0  0  0  0  0  0
   -7.7897   -5.8670    0.6317 H   0  0  0  0  0  0  0  0  0  0  0  0
  1  2  1  0
  2  3  1  0
  3  4  1  0
  4  5  1  0
  4  6  1  0
  6  7  1  0
  7  8  2  0
  8  9  1  0
  9 10  2  0
 10 11  1  0
 11 12  2  0
 11 13  1  0
 13 14  2  0
 13 15  1  0
 15 16  1  0
 16 17  1  0
 17 18  2  0
 18 19  1  0
 19 20  1  0
 19 21  1  0
  9 22  1  0
 22 23  3  0
 23 24  1  0
 24 25  2  0
 25 26  1  0
 26 27  2  0
 27 28  1  0
 12  7  1  0
 21 16  2  0
 28 24  1  0
  1 29  1  0
  1 30  1  0
  1 31  1  0
  3 32  1  0
  3 33  1  0
  4 34  1  6
  5 35  1  0
  5 36  1  0
  5 37  1  0
  8 38  1  0
 10 39  1  0
 12 40  1  0
 15 41  1  0
 17 42  1  0
 18 43  1  0
 20 44  1  0
 20 45  1  0
 20 46  1  0
 26 47  1  0
 27 48  1  0
M  END
$$$$
[H]SC([H])([H])[C@@]([H])(C(=O)N([H])[C@]([H])(C(=O)N([H])[H])C([H])([H])c1c([H])c([H])c([H])c([H])c1[H])N([H])C(=O)N1C([H])([H])C([H])([H])C([H])([H])C([H])([H])C1([H])[H]
     RDKit          3D

 52 53  0  0  0  0  0  0  0  0999 V2000
   -4.8804   -0.0133   -2.1716 N   0  0  0  0  0  0  0  0  0  0  0  0
   -3.8472    0.9038   -1.8742 C   0  0  0  0  0  0  0  0  0  0  0  0
   -3.8950    2.0501   -2.4560 O   0  0  0  0  0  0  0  0  0  0  0  0
   -2.7643    0.5709   -0.9499 C   0  0  2  0  0  0  0  0  0  0  0  0
   -3.0629    1.1399    0.4359 C   0  0  0  0  0  0  0  0  0  0  0  0
   -4.3247    0.5649    0.9227 C   0  0  0  0  0  0  0  0  0  0  0  0
   -5.5295    1.1923    0.7035 C   0  0  0  0  0  0  0  0  0  0  0  0
   -6.7058    0.6358    1.1682 C   0  0  0  0  0  0  0  0  0  0  0  0
   -6.6935   -0.5714    1.8683 C   0  0  0  0  0  0  0  0  0  0  0  0
   -5.4749   -1.1767    2.0733 C   0  0  0  0  0  0  0  0  0  0  0  0
   -4.3016   -0.6236    1.6104 C   0  0  0  0  0  0  0  0  0  0  0  0
   -1.5145    1.2117   -1.3598 N   0  0  0  0  0  0  0  0  0  0  0  0
   -0.3084    0.5190   -1.2398 C   0  0  0  0  0  0  0  0  0  0  0  0
   -0.3288   -0.6700   -0.7538 O   0  0  0  0  0  0  0  0  0  0  0  0
    1.0325    1.0404   -1.6289 C   0  0  2  0  0  0  0  0  0  0  0  0
    1.3104    0.5925   -3.0908 C   0  0  0  0  0  0  0  0  0  0  0  0
    1.2886   -1.2324   -3.1225 S   0  0  0  0  0  0  0  0  0  0  0  0
    2.0173    0.3028   -0.8630 N   0  0  0  0  0  0  0  0  0  0  0  0
    3.1376    0.8083   -0.2089 C   0  0  0  0  0  0  0  0  0  0  0  0
    3.3494    2.0808   -0.2894 O   0  0  0  0  0  0  0  0  0  0  0  0
    4.0648    0.0715    0.5361 N   0  0  0  0  0  0  0  0  0  0  0  0
    5.1796    0.7224    1.1752 C   0  0  0  0  0  0  0  0  0  0  0  0
    6.3249   -0.2667    1.1793 C   0  0  0  0  0  0  0  0  0  0  0  0
    5.9914   -1.4853    2.0015 C   0  0  0  0  0  0  0  0  0  0  0  0
    4.6116   -2.0099    1.7705 C   0  0  0  0  0  0  0  0  0  0  0  0
    3.8676   -1.3525    0.6586 C   0  0  0  0  0  0  0  0  0  0  0  0
   -5.5725    0.1676   -2.9366 H   0  0  0  0  0  0  0  0  0  0  0  0
   -4.9678   -0.8912   -1.6314 H   0  0  0  0  0  0  0  0  0  0  0  0
   -2.6431   -0.5157   -0.8350 H   0  0  0  0  0  0  0  0  0  0  0  0
   -3.0849    2.2422    0.3785 H   0  0  0  0  0  0  0  0  0  0  0  0
   -2.2238    0.8604    1.1330 H   0  0  0  0  0  0  0  0  0  0  0  0
   -5.5393    2.1419    0.1595 H   0  0  0  0  0  0  0  0  0  0  0  0
   -7.6625    1.1047    1.0118 H   0  0  0  0  0  0  0  0  0  0  0  0
   -7.6308   -0.9661    2.2111 H   0  0  0  0  0  0  0  0  0  0  0  0
   -5.4552   -2.1291    2.6276 H   0  0  0  0  0  0  0  0  0  0  0  0
   -3.3653   -1.1408    1.7980 H   0  0  0  0  0  0  0  0  0  0  0  0
   -1.5770    2.1773   -1.7310 H   0  0  0  0  0  0  0  0  0  0  0  0
    1.1040    2.1169   -1.5757 H   0  0  0  0  0  0  0  0  0  0  0  0
    2.3201    0.9450   -3.3689 H   0  0  0  0  0  0  0  0  0  0  0  0
    0.5361    0.9557   -3.7779 H   0  0  0  0  0  0  0  0  0  0  0  0
    2.6044   -1.7220   -3.0658 H   0  0  0  0  0  0  0  0  0  0  0  0
    1.8342   -0.7309   -0.8098 H   0  0  0  0  0  0  0  0  0  0  0  0
    5.5218    1.6443    0.7233 H   0  0  0  0  0  0  0  0  0  0  0  0
    4.8980    0.9544    2.2287 H   0  0  0  0  0  0  0  0  0  0  0  0
    6.5942   -0.5587    0.1703 H   0  0  0  0  0  0  0  0  0  0  0  0
    7.1812    0.2731    1.6672 H   0  0  0  0  0  0  0  0  0  0  0  0
    6.7738   -2.2460    1.7760 H   0  0  0  0  0  0  0  0  0  0  0  0
    6.1595   -1.2150    3.0642 H   0  0  0  0  0  0  0  0  0  0  0  0
    4.0528   -2.0109    2.7218 H   0  0  0  0  0  0  0  0  0  0  0  0
    4.7082   -3.0923    1.4795 H   0  0  0  0  0  0  0  0  0  0  0  0
    2.7857   -1.5152    0.8110 H   0  0  0  0  0  0  0  0  0  0  0  0
    4.1038   -1.8549   -0.3245 H   0  0  0  0  0  0  0  0  0  0  0  0
  1  2  1  0
  2  3  2  0
  2  4  1  0
  4  5  1  0
  5  6  1  0
  6  7  2  0
  7  8  1  0
  8  9  2  0
  9 10  1  0
 10 11  2  0
  4 12  1  0
 12 13  1  0
 13 14  2  0
 13 15  1  0
 15 16  1  0
 16 17  1  0
 15 18  1  0
 18 19  1  0
 19 20  2  0
 19 21  1  0
 21 22  1  0
 22 23  1  0
 23 24  1  0
 24 25  1  0
 25 26  1  0
 11  6  1  0
 26 21  1  0
  1 27  1  0
  1 28  1  0
  4 29  1  1
  5 30  1  0
  5 31  1  0
  7 32  1  0
  8 33  1  0
  9 34  1  0
 10 35  1  0
 11 36  1  0
 12 37  1  0
 15 38  1  6
 16 39  1  0
 16 40  1  0
 17 41  1  0
 18 42  1  0
 22 43  1  0
 22 44  1  0
 23 45  1  0
 23 46  1  0
 24 47  1  0
 24 48  1  0
 25 49  1  0
 25 50  1  0
 26 51  1  0
 26 52  1  0
M  END
$$$$
[H]c1nn([H])c([H])c1-c1c([H])nc2c(-c3c([H])c([H])c(C([H])([H])[H])c([H])c3[H])c([H])nn2c1[H]
     RDKit          3D

 34 37  0  0  0  0  0  0  0  0999 V2000
   -6.1053    0.3014   -0.2367 C   0  0  0  0  0  0  0  0  0  0  0  0
   -4.6685   -0.0937   -0.0673 C   0  0  0  0  0  0  0  0  0  0  0  0
   -4.2724   -1.3215   -0.5529 C   0  0  0  0  0  0  0  0  0  0  0  0
   -2.9379   -1.6613   -0.3829 C   0  0  0  0  0  0  0  0  0  0  0  0
   -2.0624   -0.8093    0.2400 C   0  0  0  0  0  0  0  0  0  0  0  0
   -2.4707    0.4072    0.7172 C   0  0  0  0  0  0  0  0  0  0  0  0
   -3.7898    0.7602    0.5573 C   0  0  0  0  0  0  0  0  0  0  0  0
   -0.6635   -1.2120    0.3963 C   0  0  0  0  0  0  0  0  0  0  0  0
   -0.2748   -2.4695    0.8210 C   0  0  0  0  0  0  0  0  0  0  0  0
    1.0716   -2.4292    0.8291 N   0  0  0  0  0  0  0  0  0  0  0  0
    1.4988   -1.2311    0.4372 N   0  0  0  0  0  0  0  0  0  0  0  0
    2.7387   -0.7329    0.2911 C   0  0  0  0  0  0  0  0  0  0  0  0
    2.9519    0.5723   -0.1400 C   0  0  0  0  0  0  0  0  0  0  0  0
    1.8595    1.3649   -0.4212 C   0  0  0  0  0  0  0  0  0  0  0  0
    0.6255    0.8432   -0.2672 N   0  0  0  0  0  0  0  0  0  0  0  0
    0.4513   -0.4314    0.1543 C   0  0  0  0  0  0  0  0  0  0  0  0
    4.3330    1.0792   -0.2869 C   0  0  0  0  0  0  0  0  0  0  0  0
    4.7284    2.3870   -0.1045 C   0  0  0  0  0  0  0  0  0  0  0  0
    6.0440    2.4505   -0.3253 N   0  0  0  0  0  0  0  0  0  0  0  0
    6.4836    1.2473   -0.6354 N   0  0  0  0  0  0  0  0  0  0  0  0
    5.4580    0.3787   -0.6214 C   0  0  0  0  0  0  0  0  0  0  0  0
   -6.7048   -0.5752   -0.5075 H   0  0  0  0  0  0  0  0  0  0  0  0
   -6.4520    0.6135    0.7889 H   0  0  0  0  0  0  0  0  0  0  0  0
   -6.2126    1.1323   -0.9491 H   0  0  0  0  0  0  0  0  0  0  0  0
   -4.9851   -1.9802   -1.0434 H   0  0  0  0  0  0  0  0  0  0  0  0
   -2.5787   -2.5965   -0.7384 H   0  0  0  0  0  0  0  0  0  0  0  0
   -1.7499    1.0754    1.2142 H   0  0  0  0  0  0  0  0  0  0  0  0
   -4.1462    1.7013    0.9164 H   0  0  0  0  0  0  0  0  0  0  0  0
   -0.8866   -3.3206    1.0945 H   0  0  0  0  0  0  0  0  0  0  0  0
    3.5928   -1.3674    0.5159 H   0  0  0  0  0  0  0  0  0  0  0  0
    2.0168    2.3902   -0.7602 H   0  0  0  0  0  0  0  0  0  0  0  0
    4.1268    3.2428    0.1674 H   0  0  0  0  0  0  0  0  0  0  0  0
    7.4817    0.9603   -0.8677 H   0  0  0  0  0  0  0  0  0  0  0  0
    5.4986   -0.6761   -0.8321 H   0  0  0  0  0  0  0  0  0  0  0  0
  1  2  1  0
  2  3  2  0
  3  4  1  0
  4  5  2  0
  5  6  1  0
  6  7  2  0
  5  8  1  0
  8  9  1  0
  9 10  2  0
 10 11  1  0
 11 12  1  0
 12 13  2  0
 13 14  1  0
 14 15  2  0
 15 16  1  0
 13 17  1  0
 17 18  1  0
 18 19  2  0
 19 20  1  0
 20 21  1  0
  7  2  1  0
 16  8  2  0
 21 17  2  0
 16 11  1  0
  1 22  1  0
  1 23  1  0
  1 24  1  0
  3 25  1  0
  4 26  1  0
  6 27  1  0
  7 28  1  0
  9 29  1  0
 12 30  1  0
 14 31  1  0
 18 32  1  0
 20 33  1  0
 21 34  1  0
M  END
$$$$
[H]C([H])=C([H])C(=O)N1C([H])([H])C([H])([H])[C@]([H])(N2C(=O)N(c3c([H])c(F)c([H])c(F)c3[H])C([H])([H])c3c([H])nc(N([H])c4c([H])c([H])c(N5C([H])([H])C([H])([H])N(C([H])([H])[H])C([H])([H])C5([H])[H])c([H])c4[H])nc32)C1([H])[H]
     RDKit          3D

 74 79  0  0  0  0  0  0  0  0999 V2000
    9.9581    1.5648   -0.7048 C   0  0  0  0  0  0  0  0  0  0  0  0
    9.2862    0.4328   -0.1434 N   0  0  0  0  0  0  0  0  0  0  0  0
    8.3990   -0.2323   -1.0430 C   0  0  0  0  0  0  0  0  0  0  0  0
    7.2937   -0.9597   -0.2697 C   0  0  0  0  0  0  0  0  0  0  0  0
    6.5415    0.0524    0.4177 N   0  0  0  0  0  0  0  0  0  0  0  0
    7.2946    1.0080    1.2069 C   0  0  0  0  0  0  0  0  0  0  0  0
    8.7503    0.6476    1.1645 C   0  0  0  0  0  0  0  0  0  0  0  0
    5.1297    0.1704    0.3729 C   0  0  0  0  0  0  0  0  0  0  0  0
    4.3250   -0.6875   -0.3140 C   0  0  0  0  0  0  0  0  0  0  0  0
    2.9270   -0.5418   -0.3296 C   0  0  0  0  0  0  0  0  0  0  0  0
    2.3016    0.4732    0.3477 C   0  0  0  0  0  0  0  0  0  0  0  0
    0.9087    0.6814    0.4247 N   0  0  0  0  0  0  0  0  0  0  0  0
   -0.1106   -0.2662    0.1993 C   0  0  0  0  0  0  0  0  0  0  0  0
    0.1075   -1.5341   -0.1282 N   0  0  0  0  0  0  0  0  0  0  0  0
   -0.8449   -2.4440   -0.3228 C   0  0  0  0  0  0  0  0  0  0  0  0
   -2.1902   -2.0535   -0.1748 C   0  0  0  0  0  0  0  0  0  0  0  0
   -3.2515   -3.0759   -0.4095 C   0  0  0  0  0  0  0  0  0  0  0  0
   -4.5517   -2.5896   -0.1331 N   0  0  0  0  0  0  0  0  0  0  0  0
   -4.7908   -1.2378    0.2123 C   0  0  0  0  0  0  0  0  0  0  0  0
   -6.0061   -0.9006    0.3795 O   0  0  0  0  0  0  0  0  0  0  0  0
   -3.7661   -0.2724    0.3753 N   0  0  0  0  0  0  0  0  0  0  0  0
   -4.0496    1.0740    0.7252 C   0  0  1  0  0  0  0  0  0  0  0  0
   -3.4726    1.5977    1.9848 C   0  0  0  0  0  0  0  0  0  0  0  0
   -3.1905    3.0727    1.6729 C   0  0  0  0  0  0  0  0  0  0  0  0
   -3.8357    3.3099    0.4179 N   0  0  0  0  0  0  0  0  0  0  0  0
   -3.7330    2.0965   -0.3486 C   0  0  0  0  0  0  0  0  0  0  0  0
   -4.4560    4.4969   -0.0090 C   0  0  0  0  0  0  0  0  0  0  0  0
   -4.4450    5.4890    0.7907 O   0  0  0  0  0  0  0  0  0  0  0  0
   -5.1024    4.6407   -1.3037 C   0  0  0  0  0  0  0  0  0  0  0  0
   -5.6645    5.7688   -1.6424 C   0  0  0  0  0  0  0  0  0  0  0  0
   -2.4093   -0.7444    0.1640 C   0  0  0  0  0  0  0  0  0  0  0  0
   -1.4075    0.1195    0.3443 N   0  0  0  0  0  0  0  0  0  0  0  0
   -5.6371   -3.5306   -0.2170 C   0  0  0  0  0  0  0  0  0  0  0  0
   -5.4928   -4.6896    0.5308 C   0  0  0  0  0  0  0  0  0  0  0  0
   -6.4897   -5.6517    0.5119 C   0  0  0  0  0  0  0  0  0  0  0  0
   -6.3827   -6.7989    1.2317 F   0  0  0  0  0  0  0  0  0  0  0  0
   -7.6214   -5.4345   -0.2614 C   0  0  0  0  0  0  0  0  0  0  0  0
   -7.7409   -4.2703   -0.9981 C   0  0  0  0  0  0  0  0  0  0  0  0
   -8.8451   -4.0375   -1.7637 F   0  0  0  0  0  0  0  0  0  0  0  0
   -6.7534   -3.3068   -0.9852 C   0  0  0  0  0  0  0  0  0  0  0  0
    3.1672    1.3401    1.0451 C   0  0  0  0  0  0  0  0  0  0  0  0
    4.5165    1.2092    1.0666 C   0  0  0  0  0  0  0  0  0  0  0  0
   10.8018    1.8224   -0.0042 H   0  0  0  0  0  0  0  0  0  0  0  0
   10.3621    1.3241   -1.7164 H   0  0  0  0  0  0  0  0  0  0  0  0
    9.3331    2.4601   -0.8042 H   0  0  0  0  0  0  0  0  0  0  0  0
    7.8824    0.5347   -1.6810 H   0  0  0  0  0  0  0  0  0  0  0  0
    8.8673   -0.9623   -1.7187 H   0  0  0  0  0  0  0  0  0  0  0  0
    6.7393   -1.6257   -0.9211 H   0  0  0  0  0  0  0  0  0  0  0  0
    7.8557   -1.5340    0.5230 H   0  0  0  0  0  0  0  0  0  0  0  0
    7.1813    2.0419    0.8245 H   0  0  0  0  0  0  0  0  0  0  0  0
    6.9727    0.9789    2.2856 H   0  0  0  0  0  0  0  0  0  0  0  0
    9.3840    1.4270    1.6626 H   0  0  0  0  0  0  0  0  0  0  0  0
    8.9180   -0.3059    1.7470 H   0  0  0  0  0  0  0  0  0  0  0  0
    4.7635   -1.5193   -0.8729 H   0  0  0  0  0  0  0  0  0  0  0  0
    2.3783   -1.2611   -0.9126 H   0  0  0  0  0  0  0  0  0  0  0  0
    0.6063    1.6822    0.6791 H   0  0  0  0  0  0  0  0  0  0  0  0
   -0.6550   -3.4719   -0.5887 H   0  0  0  0  0  0  0  0  0  0  0  0
   -2.9754   -4.0083    0.1319 H   0  0  0  0  0  0  0  0  0  0  0  0
   -3.1887   -3.3828   -1.5009 H   0  0  0  0  0  0  0  0  0  0  0  0
   -5.1769    1.1507    0.8376 H   0  0  0  0  0  0  0  0  0  0  0  0
   -2.6049    1.0939    2.3960 H   0  0  0  0  0  0  0  0  0  0  0  0
   -4.2275    1.6202    2.8276 H   0  0  0  0  0  0  0  0  0  0  0  0
   -2.0993    3.2682    1.6754 H   0  0  0  0  0  0  0  0  0  0  0  0
   -3.5901    3.7380    2.4887 H   0  0  0  0  0  0  0  0  0  0  0  0
   -4.5207    2.0136   -1.1288 H   0  0  0  0  0  0  0  0  0  0  0  0
   -2.7700    1.9606   -0.8326 H   0  0  0  0  0  0  0  0  0  0  0  0
   -5.0932    3.7763   -1.9625 H   0  0  0  0  0  0  0  0  0  0  0  0
   -5.6430    6.6133   -0.9329 H   0  0  0  0  0  0  0  0  0  0  0  0
   -6.1551    5.9418   -2.5753 H   0  0  0  0  0  0  0  0  0  0  0  0
   -4.6192   -4.8719    1.1373 H   0  0  0  0  0  0  0  0  0  0  0  0
   -8.4298   -6.1572   -0.3107 H   0  0  0  0  0  0  0  0  0  0  0  0
   -6.8016   -2.3857   -1.5403 H   0  0  0  0  0  0  0  0  0  0  0  0
    2.6888    2.1476    1.5841 H   0  0  0  0  0  0  0  0  0  0  0  0
    5.1506    1.9043    1.6200 H   0  0  0  0  0  0  0  0  0  0  0  0
  1  2  1  0
  2  3  1  0
  3  4  1  0
  4  5  1  0
  5  6  1  0
  6  7  1  0
  5  8  1  0
  8  9  2  0
  9 10  1  0
 10 11  2  0
 11 12  1  0
 12 13  1  0
 13 14  2  0
 14 15  1  0
 15 16  2  0
 16 17  1  0
 17 18  1  0
 18 19  1  0
 19 20  2  0
 19 21  1  0
 21 22  1  0
 22 23  1  0
 23 24  1  0
 24 25  1  0
 25 26  1  0
 25 27  1  0
 27 28  2  0
 27 29  1  0
 29 30  2  3
 21 31  1  0
 31 32  2  0
 18 33  1  0
 33 34  2  0
 34 35  1  0
 35 36  1  0
 35 37  2  0
 37 38  1  0
 38 39  1  0
 38 40  2  0
 11 41  1  0
 41 42  2  0
  7  2  1  0
 42  8  1  0
 32 13  1  0
 40 33  1  0
 31 16  1  0
 26 22  1  0
  1 43  1  0
  1 44  1  0
  1 45  1  0
  3 46  1  0
  3 47  1  0
  4 48  1  0
  4 49  1  0
  6 50  1  0
  6 51  1  0
  7 52  1  0
  7 53  1  0
  9 54  1  0
 10 55  1  0
 12 56  1  0
 15 57  1  0
 17 58  1  0
 17 59  1  0
 22 60  1  1
 23 61  1  0
 23 62  1  0
 24 63  1  0
 24 64  1  0
 26 65  1  0
 26 66  1  0
 29 67  1  0
 30 68  1  0
 30 69  1  0
 34 70  1  0
 37 71  1  0
 40 72  1  0
 41 73  1  0
 42 74  1  0
M  END
$$$$
[H]c1nc2sc(-c3c([H])c([H])c(C#N)c([H])c3[H])c([H])c2c(N([H])c2c([H])c([H])c3c(c([H])c([H])n3[H])c2C([H])([H])[H])c1C#N
     RDKit          3D

 45 49  0  0  0  0  0  0  0  0999 V2000
   -2.3511    1.4329   -2.4865 C   0  0  0  0  0  0  0  0  0  0  0  0
   -2.5988    1.0526   -1.0784 C   0  0  0  0  0  0  0  0  0  0  0  0
   -2.0466   -0.1211   -0.6260 C   0  0  0  0  0  0  0  0  0  0  0  0
   -1.2721   -0.9224   -1.4958 N   0  0  0  0  0  0  0  0  0  0  0  0
   -0.6839   -2.1501   -1.0497 C   0  0  0  0  0  0  0  0  0  0  0  0
   -1.4082   -3.3004   -1.1812 C   0  0  0  0  0  0  0  0  0  0  0  0
   -0.9182   -4.5203   -0.7786 C   0  0  0  0  0  0  0  0  0  0  0  0
    0.3099   -4.5354   -0.2471 N   0  0  0  0  0  0  0  0  0  0  0  0
    1.0522   -3.3888   -0.1073 C   0  0  0  0  0  0  0  0  0  0  0  0
    2.6132   -3.0507    0.5121 S   0  0  0  0  0  0  0  0  0  0  0  0
    2.6462   -1.3660    0.2619 C   0  0  0  0  0  0  0  0  0  0  0  0
    1.4258   -1.1144   -0.3034 C   0  0  0  0  0  0  0  0  0  0  0  0
    0.6026   -2.1575   -0.4943 C   0  0  0  0  0  0  0  0  0  0  0  0
    3.7140   -0.3921    0.5690 C   0  0  0  0  0  0  0  0  0  0  0  0
    4.8789   -0.8351    1.1406 C   0  0  0  0  0  0  0  0  0  0  0  0
    5.8970    0.0803    1.4355 C   0  0  0  0  0  0  0  0  0  0  0  0
    5.7496    1.4226    1.1612 C   0  0  0  0  0  0  0  0  0  0  0  0
    4.5643    1.8522    0.5830 C   0  0  0  0  0  0  0  0  0  0  0  0
    3.5454    0.9382    0.2875 C   0  0  0  0  0  0  0  0  0  0  0  0
    6.8079    2.3263    1.4753 C   0  0  0  0  0  0  0  0  0  0  0  0
    7.6666    3.0800    1.7466 N   0  0  0  0  0  0  0  0  0  0  0  0
   -2.7517   -3.2525   -1.7675 C   0  0  0  0  0  0  0  0  0  0  0  0
   -3.8009   -3.2041   -2.2176 N   0  0  0  0  0  0  0  0  0  0  0  0
   -2.2746   -0.4793    0.6846 C   0  0  0  0  0  0  0  0  0  0  0  0
   -3.0372    0.3306    1.5007 C   0  0  0  0  0  0  0  0  0  0  0  0
   -3.5961    1.5112    1.0557 C   0  0  0  0  0  0  0  0  0  0  0  0
   -4.3571    2.4678    1.6065 N   0  0  0  0  0  0  0  0  0  0  0  0
   -4.6258    3.4247    0.7009 C   0  0  0  0  0  0  0  0  0  0  0  0
   -4.0185    3.0794   -0.4813 C   0  0  0  0  0  0  0  0  0  0  0  0
   -3.3727    1.8879   -0.2739 C   0  0  0  0  0  0  0  0  0  0  0  0
   -1.2702    1.3592   -2.7256 H   0  0  0  0  0  0  0  0  0  0  0  0
   -2.6059    2.5060   -2.5968 H   0  0  0  0  0  0  0  0  0  0  0  0
   -2.9957    0.8883   -3.2061 H   0  0  0  0  0  0  0  0  0  0  0  0
   -1.1071   -0.6537   -2.4677 H   0  0  0  0  0  0  0  0  0  0  0  0
   -1.5407   -5.3862   -0.9108 H   0  0  0  0  0  0  0  0  0  0  0  0
    1.1830   -0.0587   -0.5737 H   0  0  0  0  0  0  0  0  0  0  0  0
    5.0862   -1.8652    1.3917 H   0  0  0  0  0  0  0  0  0  0  0  0
    6.8221   -0.2590    1.8874 H   0  0  0  0  0  0  0  0  0  0  0  0
    4.4681    2.9057    0.3761 H   0  0  0  0  0  0  0  0  0  0  0  0
    2.6508    1.3440   -0.1617 H   0  0  0  0  0  0  0  0  0  0  0  0
   -1.8597   -1.3959    1.0860 H   0  0  0  0  0  0  0  0  0  0  0  0
   -3.2381    0.0773    2.5448 H   0  0  0  0  0  0  0  0  0  0  0  0
   -4.6954    2.4818    2.5818 H   0  0  0  0  0  0  0  0  0  0  0  0
   -5.2153    4.3296    0.8362 H   0  0  0  0  0  0  0  0  0  0  0  0
   -4.0420    3.6307   -1.3914 H   0  0  0  0  0  0  0  0  0  0  0  0
  1  2  1  0
  2  3  2  0
  3  4  1  0
  4  5  1  0
  5  6  2  0
  6  7  1  0
  7  8  2  0
  8  9  1  0
  9 10  1  0
 10 11  1  0
 11 12  2  0
 12 13  1  0
 11 14  1  0
 14 15  2  0
 15 16  1  0
 16 17  2  0
 17 18  1  0
 18 19  2  0
 17 20  1  0
 20 21  3  0
  6 22  1  0
 22 23  3  0
  3 24  1  0
 24 25  2  0
 25 26  1  0
 26 27  1  0
 27 28  1  0
 28 29  2  0
 29 30  1  0
 30  2  1  0
 13  5  1  0
 19 14  1  0
 30 26  2  0
 13  9  2  0
  1 31  1  0
  1 32  1  0
  1 33  1  0
  4 34  1  0
  7 35  1  0
 12 36  1  0
 15 37  1  0
 16 38  1  0
 18 39  1  0
 19 40  1  0
 24 41  1  0
 25 42  1  0
 27 43  1  0
 28 44  1  0
 29 45  1  0
M  END
$$$$
[H]c1c(C(=O)N([H])C2([H])C([H])([H])C([H])([H])N(C(=O)C([H])([H])N([H])C(=O)OC(C([H])([H])[H])(C([H])([H])[H])C([H])([H])[H])C([H])([H])C2([H])[H])nn([H])c1C(F)(F)F
     RDKit          3D

 53 54  0  0  0  0  0  0  0  0999 V2000
   -7.6243   -0.7550   -0.4924 C   0  0  0  0  0  0  0  0  0  0  0  0
   -6.4895    0.0431    0.2055 C   0  0  0  0  0  0  0  0  0  0  0  0
   -7.1138    0.9890    1.1417 C   0  0  0  0  0  0  0  0  0  0  0  0
   -5.7979   -1.0259    1.0446 C   0  0  0  0  0  0  0  0  0  0  0  0
   -5.6331    0.3280   -0.8855 O   0  0  0  0  0  0  0  0  0  0  0  0
   -4.2051    0.8929   -0.4674 C   0  0  0  0  0  0  0  0  0  0  0  0
   -4.3586    1.1737    0.6662 O   0  0  0  0  0  0  0  0  0  0  0  0
   -3.4906    0.7545   -1.6035 N   0  0  0  0  0  0  0  0  0  0  0  0
   -2.0521    0.9948   -1.7128 C   0  0  0  0  0  0  0  0  0  0  0  0
   -1.2793    0.9269   -0.3931 C   0  0  0  0  0  0  0  0  0  0  0  0
   -1.8412    1.2517    0.6360 O   0  0  0  0  0  0  0  0  0  0  0  0
   -0.0011    0.5067   -0.4442 N   0  0  0  0  0  0  0  0  0  0  0  0
    0.9436    1.1236    0.4893 C   0  0  0  0  0  0  0  0  0  0  0  0
    2.2964    0.5563    0.5045 C   0  0  0  0  0  0  0  0  0  0  0  0
    2.3126   -0.9513    0.1369 C   0  0  0  0  0  0  0  0  0  0  0  0
    1.7509   -1.0430   -1.2887 C   0  0  0  0  0  0  0  0  0  0  0  0
    0.2580   -0.6475   -1.2102 C   0  0  0  0  0  0  0  0  0  0  0  0
    3.5809   -1.4145    0.2282 N   0  0  0  0  0  0  0  0  0  0  0  0
    4.8956   -1.9074    0.3303 C   0  0  0  0  0  0  0  0  0  0  0  0
    5.1030   -2.9066    0.9836 O   0  0  0  0  0  0  0  0  0  0  0  0
    5.8874   -1.0852   -0.3420 C   0  0  0  0  0  0  0  0  0  0  0  0
    6.6970   -0.1496    0.3949 C   0  0  0  0  0  0  0  0  0  0  0  0
    7.5623    0.5072   -0.4466 C   0  0  0  0  0  0  0  0  0  0  0  0
    7.2912   -0.0323   -1.6679 N   0  0  0  0  0  0  0  0  0  0  0  0
    6.3251   -0.9410   -1.6082 N   0  0  0  0  0  0  0  0  0  0  0  0
    8.5079    1.5309    0.0393 C   0  0  0  0  0  0  0  0  0  0  0  0
    8.0119    2.7563   -0.3677 F   0  0  0  0  0  0  0  0  0  0  0  0
    8.6388    1.4996    1.4007 F   0  0  0  0  0  0  0  0  0  0  0  0
    9.7921    1.3148   -0.4919 F   0  0  0  0  0  0  0  0  0  0  0  0
   -8.0624   -0.1299   -1.2462 H   0  0  0  0  0  0  0  0  0  0  0  0
   -7.0222   -1.5852   -1.0221 H   0  0  0  0  0  0  0  0  0  0  0  0
   -8.2369   -1.1630    0.2653 H   0  0  0  0  0  0  0  0  0  0  0  0
   -7.6695    1.8457    0.6793 H   0  0  0  0  0  0  0  0  0  0  0  0
   -6.5282    1.2529    2.0406 H   0  0  0  0  0  0  0  0  0  0  0  0
   -7.9858    0.3743    1.6239 H   0  0  0  0  0  0  0  0  0  0  0  0
   -6.5248   -1.7305    1.3646 H   0  0  0  0  0  0  0  0  0  0  0  0
   -5.0624   -1.5724    0.3795 H   0  0  0  0  0  0  0  0  0  0  0  0
   -5.3084   -0.5778    1.9540 H   0  0  0  0  0  0  0  0  0  0  0  0
   -3.9551    0.4737   -2.5087 H   0  0  0  0  0  0  0  0  0  0  0  0
   -1.7732    1.9503   -2.2796 H   0  0  0  0  0  0  0  0  0  0  0  0
   -1.7006    0.1570   -2.3425 H   0  0  0  0  0  0  0  0  0  0  0  0
    0.4603    1.1654    1.4665 H   0  0  0  0  0  0  0  0  0  0  0  0
    0.9756    2.2165    0.1222 H   0  0  0  0  0  0  0  0  0  0  0  0
    2.7656    0.5807    1.4963 H   0  0  0  0  0  0  0  0  0  0  0  0
    2.9275    1.1107   -0.2403 H   0  0  0  0  0  0  0  0  0  0  0  0
    1.5282   -1.4575    0.8307 H   0  0  0  0  0  0  0  0  0  0  0  0
    1.8669   -2.1119   -1.6239 H   0  0  0  0  0  0  0  0  0  0  0  0
    2.2876   -0.3268   -1.8778 H   0  0  0  0  0  0  0  0  0  0  0  0
   -0.1738   -1.5308   -0.5188 H   0  0  0  0  0  0  0  0  0  0  0  0
   -0.2753   -0.7817   -2.1122 H   0  0  0  0  0  0  0  0  0  0  0  0
    3.0989   -2.6872    0.3354 H   0  0  0  0  0  0  0  0  0  0  0  0
    6.5980   -0.0665    1.4323 H   0  0  0  0  0  0  0  0  0  0  0  0
    7.8020    0.3032   -2.5276 H   0  0  0  0  0  0  0  0  0  0  0  0
  1  2  1  0
  2  3  1  0
  2  4  1  0
  2  5  1  0
  5  6  1  0
  6  7  2  0
  6  8  1  0
  8  9  1  0
  9 10  1  0
 10 11  2  0
 10 12  1  0
 12 13  1  0
 13 14  1  0
 14 15  1  0
 15 16  1  0
 16 17  1  0
 15 18  1  0
 18 19  1  0
 19 20  2  0
 19 21  1  0
 21 22  1  0
 22 23  2  0
 23 24  1  0
 24 25  1  0
 23 26  1  0
 26 27  1  0
 26 28  1  0
 26 29  1  0
 17 12  1  0
 25 21  2  0
  1 30  1  0
  1 31  1  0
  1 32  1  0
  3 33  1  0
  3 34  1  0
  3 35  1  0
  4 36  1  0
  4 37  1  0
  4 38  1  0
  8 39  1  0
  9 40  1  0
  9 41  1  0
 13 42  1  0
 13 43  1  0
 14 44  1  0
 14 45  1  0
 15 46  1  0
 16 47  1  0
 16 48  1  0
 17 49  1  0
 17 50  1  0
 18 51  1  0
 22 52  1  0
 24 53  1  0
M  END
$$$$
[H]c1c([H])c([H])c(O[C@]2([H])[C@]([H])(c3c([H])c([H])c([H])c([H])c3F)C([H])([H])N3C(=O)C([H])([H])C([H])([H])[C@@]32[H])c([H])c1[H]
     RDKit          3D

 41 44  0  0  0  0  0  0  0  0999 V2000
   -1.8285   -1.6110    2.0133 F   0  0  0  0  0  0  0  0  0  0  0  0
   -2.2181   -1.7705    0.7098 C   0  0  0  0  0  0  0  0  0  0  0  0
   -2.6986   -3.0086    0.3123 C   0  0  0  0  0  0  0  0  0  0  0  0
   -3.0926   -3.1890   -0.9741 C   0  0  0  0  0  0  0  0  0  0  0  0
   -3.0144   -2.1566   -1.8659 C   0  0  0  0  0  0  0  0  0  0  0  0
   -2.5263   -0.9080   -1.4520 C   0  0  0  0  0  0  0  0  0  0  0  0
   -2.1228   -0.7066   -0.1539 C   0  0  0  0  0  0  0  0  0  0  0  0
   -1.6182    0.5634    0.2937 C   0  0  2  0  0  0  0  0  0  0  0  0
   -1.5983    1.6598   -0.7246 C   0  0  0  0  0  0  0  0  0  0  0  0
   -0.7190    2.6498   -0.0998 N   0  0  0  0  0  0  0  0  0  0  0  0
   -0.0868    2.0726    1.0947 C   0  0  2  0  0  0  0  0  0  0  0  0
    1.2774    2.6426    1.0026 C   0  0  0  0  0  0  0  0  0  0  0  0
    0.9774    4.1222    0.7140 C   0  0  0  0  0  0  0  0  0  0  0  0
   -0.2142    3.9790   -0.1839 C   0  0  0  0  0  0  0  0  0  0  0  0
   -0.6559    4.9220   -0.8814 O   0  0  0  0  0  0  0  0  0  0  0  0
   -0.1691    0.5800    0.7594 C   0  0  2  0  0  0  0  0  0  0  0  0
    0.7222    0.1924   -0.2085 O   0  0  0  0  0  0  0  0  0  0  0  0
    1.7361   -0.7558   -0.1509 C   0  0  0  0  0  0  0  0  0  0  0  0
    1.9663   -1.4738    1.0013 C   0  0  0  0  0  0  0  0  0  0  0  0
    2.9956   -2.4147    1.0101 C   0  0  0  0  0  0  0  0  0  0  0  0
    3.7903   -2.6619   -0.0697 C   0  0  0  0  0  0  0  0  0  0  0  0
    3.5376   -1.9235   -1.2218 C   0  0  0  0  0  0  0  0  0  0  0  0
    2.5384   -1.0019   -1.2488 C   0  0  0  0  0  0  0  0  0  0  0  0
   -2.7580   -3.8195    1.0203 H   0  0  0  0  0  0  0  0  0  0  0  0
   -3.4800   -4.1625   -1.3227 H   0  0  0  0  0  0  0  0  0  0  0  0
   -3.3356   -2.3315   -2.8824 H   0  0  0  0  0  0  0  0  0  0  0  0
   -2.4861   -0.1388   -2.1808 H   0  0  0  0  0  0  0  0  0  0  0  0
   -2.2135    0.9466    1.1640 H   0  0  0  0  0  0  0  0  0  0  0  0
   -1.1924    1.3480   -1.7138 H   0  0  0  0  0  0  0  0  0  0  0  0
   -2.5826    2.1663   -0.8288 H   0  0  0  0  0  0  0  0  0  0  0  0
   -0.6452    2.2879    2.0038 H   0  0  0  0  0  0  0  0  0  0  0  0
    1.8774    2.5495    1.9307 H   0  0  0  0  0  0  0  0  0  0  0  0
    1.7777    2.2609    0.1131 H   0  0  0  0  0  0  0  0  0  0  0  0
    0.6393    4.6532    1.6120 H   0  0  0  0  0  0  0  0  0  0  0  0
    1.8286    4.5862    0.1986 H   0  0  0  0  0  0  0  0  0  0  0  0
   -0.0334    0.0661    1.7102 H   0  0  0  0  0  0  0  0  0  0  0  0
    1.3616   -1.3228    1.9067 H   0  0  0  0  0  0  0  0  0  0  0  0
    3.1481   -2.9601    1.9314 H   0  0  0  0  0  0  0  0  0  0  0  0
    4.5906   -3.3801   -0.0936 H   0  0  0  0  0  0  0  0  0  0  0  0
    4.1700   -2.1117   -2.1005 H   0  0  0  0  0  0  0  0  0  0  0  0
    2.3551   -0.4399   -2.1439 H   0  0  0  0  0  0  0  0  0  0  0  0
  1  2  1  0
  2  3  2  0
  3  4  1  0
  4  5  2  0
  5  6  1  0
  6  7  2  0
  7  8  1  0
  8  9  1  0
  9 10  1  0
 10 11  1  0
 11 12  1  0
 12 13  1  0
 13 14  1  0
 14 15  2  0
 11 16  1  0
 16 17  1  0
 17 18  1  0
 18 19  2  0
 19 20  1  0
 20 21  2  0
 21 22  1  0
 22 23  2  0
  7  2  1  0
 16  8  1  0
 23 18  1  0
 14 10  1  0
  3 24  1  0
  4 25  1  0
  5 26  1  0
  6 27  1  0
  8 28  1  1
  9 29  1  0
  9 30  1  0
 11 31  1  1
 12 32  1  0
 12 33  1  0
 13 34  1  0
 13 35  1  0
 16 36  1  1
 19 37  1  0
 20 38  1  0
 21 39  1  0
 22 40  1  0
 23 41  1  0
M  END
$$$$
[H]c1c([H])c([H])c(N2C([H])([H])C([H])([H])N(C([H])([H])C([H])([H])n3c(=O)c4c([H])c([H])c([H])c([H])c4n([H])c3=O)C([H])([H])C2([H])[H])c(OC([H])([H])C([H])([H])[H])c1[H]
     RDKit          3D

 55 58  0  0  0  0  0  0  0  0999 V2000
   -6.5548   -2.0500    1.2221 C   0  0  0  0  0  0  0  0  0  0  0  0
   -5.4416   -2.2374    0.2425 C   0  0  0  0  0  0  0  0  0  0  0  0
   -4.5481   -1.1683    0.1510 O   0  0  0  0  0  0  0  0  0  0  0  0
   -4.9240    0.0999   -0.2607 C   0  0  0  0  0  0  0  0  0  0  0  0
   -6.2093    0.4407   -0.6343 C   0  0  0  0  0  0  0  0  0  0  0  0
   -6.5433    1.7274   -1.0435 C   0  0  0  0  0  0  0  0  0  0  0  0
   -5.5298    2.6488   -1.0594 C   0  0  0  0  0  0  0  0  0  0  0  0
   -4.2361    2.3462   -0.6942 C   0  0  0  0  0  0  0  0  0  0  0  0
   -3.9138    1.0788   -0.2922 C   0  0  0  0  0  0  0  0  0  0  0  0
   -2.5801    0.7222    0.1005 N   0  0  0  0  0  0  0  0  0  0  0  0
   -1.9146   -0.3387   -0.6253 C   0  0  0  0  0  0  0  0  0  0  0  0
   -0.5327    0.1483   -1.0081 C   0  0  0  0  0  0  0  0  0  0  0  0
    0.1678    0.4982    0.1727 N   0  0  0  0  0  0  0  0  0  0  0  0
    1.5833    0.7034    0.0262 C   0  0  0  0  0  0  0  0  0  0  0  0
    2.2472   -0.6006   -0.2604 C   0  0  0  0  0  0  0  0  0  0  0  0
    3.6683   -0.5538   -0.4285 N   0  0  0  0  0  0  0  0  0  0  0  0
    4.2282   -0.3556   -1.6350 C   0  0  0  0  0  0  0  0  0  0  0  0
    3.4832   -0.2029   -2.6157 O   0  0  0  0  0  0  0  0  0  0  0  0
    5.5510   -0.3146   -1.8331 N   0  0  0  0  0  0  0  0  0  0  0  0
    6.4172   -0.4720   -0.8174 C   0  0  0  0  0  0  0  0  0  0  0  0
    7.7706   -0.4287   -1.0361 C   0  0  0  0  0  0  0  0  0  0  0  0
    8.6265   -0.5961    0.0324 C   0  0  0  0  0  0  0  0  0  0  0  0
    8.1223   -0.8026    1.2955 C   0  0  0  0  0  0  0  0  0  0  0  0
    6.7511   -0.8438    1.5005 C   0  0  0  0  0  0  0  0  0  0  0  0
    5.8924   -0.6778    0.4399 C   0  0  0  0  0  0  0  0  0  0  0  0
    4.5148   -0.7138    0.6049 C   0  0  0  0  0  0  0  0  0  0  0  0
    4.0144   -0.8991    1.7383 O   0  0  0  0  0  0  0  0  0  0  0  0
   -0.4087    1.5857    0.8955 C   0  0  0  0  0  0  0  0  0  0  0  0
   -1.8831    1.3708    1.1788 C   0  0  0  0  0  0  0  0  0  0  0  0
   -7.5407   -2.1548    0.7750 H   0  0  0  0  0  0  0  0  0  0  0  0
   -6.4581   -2.8269    2.0087 H   0  0  0  0  0  0  0  0  0  0  0  0
   -6.4779   -1.0352    1.6582 H   0  0  0  0  0  0  0  0  0  0  0  0
   -5.9038   -2.4974   -0.7347 H   0  0  0  0  0  0  0  0  0  0  0  0
   -4.8172   -3.1453    0.4944 H   0  0  0  0  0  0  0  0  0  0  0  0
   -7.0079   -0.2918   -0.6296 H   0  0  0  0  0  0  0  0  0  0  0  0
   -7.5470    1.9580   -1.3254 H   0  0  0  0  0  0  0  0  0  0  0  0
   -5.7482    3.6687   -1.3730 H   0  0  0  0  0  0  0  0  0  0  0  0
   -3.4465    3.1156   -0.7196 H   0  0  0  0  0  0  0  0  0  0  0  0
   -1.8138   -1.2601   -0.0166 H   0  0  0  0  0  0  0  0  0  0  0  0
   -2.4637   -0.5938   -1.5454 H   0  0  0  0  0  0  0  0  0  0  0  0
   -0.6323    1.0423   -1.6582 H   0  0  0  0  0  0  0  0  0  0  0  0
   -0.0675   -0.6396   -1.5880 H   0  0  0  0  0  0  0  0  0  0  0  0
    1.7131    1.4556   -0.7805 H   0  0  0  0  0  0  0  0  0  0  0  0
    2.0540    1.1413    0.9193 H   0  0  0  0  0  0  0  0  0  0  0  0
    1.7678   -1.2050   -1.0645 H   0  0  0  0  0  0  0  0  0  0  0  0
    2.0738   -1.2319    0.6674 H   0  0  0  0  0  0  0  0  0  0  0  0
    5.9660   -0.1596   -2.7769 H   0  0  0  0  0  0  0  0  0  0  0  0
    8.1431   -0.2640   -2.0442 H   0  0  0  0  0  0  0  0  0  0  0  0
    9.6933   -0.5564   -0.1749 H   0  0  0  0  0  0  0  0  0  0  0  0
    8.8053   -0.9319    2.1274 H   0  0  0  0  0  0  0  0  0  0  0  0
    6.3165   -1.0027    2.4710 H   0  0  0  0  0  0  0  0  0  0  0  0
    0.1067    1.6370    1.8971 H   0  0  0  0  0  0  0  0  0  0  0  0
   -0.2191    2.5226    0.3285 H   0  0  0  0  0  0  0  0  0  0  0  0
   -2.3449    2.3592    1.3586 H   0  0  0  0  0  0  0  0  0  0  0  0
   -1.9692    0.7812    2.1015 H   0  0  0  0  0  0  0  0  0  0  0  0
  1  2  1  0
  2  3  1  0
  3  4  1  0
  4  5  2  0
  5  6  1  0
  6  7  2  0
  7  8  1  0
  8  9  2  0
  9 10  1  0
 10 11  1  0
 11 12  1  0
 12 13  1  0
 13 14  1  0
 14 15  1  0
 15 16  1  0
 16 17  1  0
 17 18  2  0
 17 19  1  0
 19 20  1  0
 20 21  2  0
 21 22  1  0
 22 23  2  0
 23 24  1  0
 24 25  2  0
 25 26  1  0
 26 27  2  0
 13 28  1  0
 28 29  1  0
  9  4  1  0
 29 10  1  0
 26 16  1  0
 25 20  1  0
  1 30  1  0
  1 31  1  0
  1 32  1  0
  2 33  1  0
  2 34  1  0
  5 35  1  0
  6 36  1  0
  7 37  1  0
  8 38  1  0
 11 39  1  0
 11 40  1  0
 12 41  1  0
 12 42  1  0
 14 43  1  0
 14 44  1  0
 15 45  1  0
 15 46  1  0
 19 47  1  0
 21 48  1  0
 22 49  1  0
 23 50  1  0
 24 51  1  0
 28 52  1  0
 28 53  1  0
 29 54  1  0
 29 55  1  0
M  END
$$$$
[H]OC(C#Cc1nc([H])c(OC([H])([H])[C@@]2([H])C([H])([H])N([H])C([H])([H])C2([H])[H])c2c1nc(-c1nonc1N([H])[H])n2C([H])([H])C([H])([H])[H])(C([H])([H])[H])C([H])([H])[H]
     RDKit          3D

 55 58  0  0  0  0  0  0  0  0999 V2000
    2.0526    2.5287    2.0491 C   0  0  0  0  0  0  0  0  0  0  0  0
    1.7341    2.4274    0.5979 C   0  0  0  0  0  0  0  0  0  0  0  0
    0.4565    1.7478    0.3347 N   0  0  0  0  0  0  0  0  0  0  0  0
   -0.7304    2.3692    0.2210 C   0  0  0  0  0  0  0  0  0  0  0  0
   -1.6628    1.4080   -0.0402 N   0  0  0  0  0  0  0  0  0  0  0  0
   -1.0668    0.2072   -0.0866 C   0  0  0  0  0  0  0  0  0  0  0  0
   -1.5856   -1.0719   -0.3123 C   0  0  0  0  0  0  0  0  0  0  0  0
   -0.7341   -2.0746   -0.2867 N   0  0  0  0  0  0  0  0  0  0  0  0
    0.5739   -1.9286   -0.0594 C   0  0  0  0  0  0  0  0  0  0  0  0
    1.1738   -0.6778    0.1754 C   0  0  0  0  0  0  0  0  0  0  0  0
    2.4346   -0.4831    0.4087 O   0  0  0  0  0  0  0  0  0  0  0  0
    3.7053   -0.7012    0.5862 C   0  0  0  0  0  0  0  0  0  0  0  0
    4.5419   -1.1894   -0.5436 C   0  0  2  0  0  0  0  0  0  0  0  0
    4.1409   -2.4921   -1.1017 C   0  0  0  0  0  0  0  0  0  0  0  0
    4.6436   -3.4303    0.0171 C   0  0  0  0  0  0  0  0  0  0  0  0
    5.9973   -2.9345    0.1666 N   0  0  0  0  0  0  0  0  0  0  0  0
    5.9772   -1.4997   -0.0208 C   0  0  0  0  0  0  0  0  0  0  0  0
    0.2744    0.4087    0.1501 C   0  0  0  0  0  0  0  0  0  0  0  0
   -2.9836   -1.1761   -0.5490 C   0  0  0  0  0  0  0  0  0  0  0  0
   -4.1592   -1.2852   -0.7493 C   0  0  0  0  0  0  0  0  0  0  0  0
   -5.5891   -1.4436   -0.9968 C   0  0  0  0  0  0  0  0  0  0  0  0
   -6.2729   -2.2468    0.0883 C   0  0  0  0  0  0  0  0  0  0  0  0
   -6.1995   -0.0628   -1.0048 C   0  0  0  0  0  0  0  0  0  0  0  0
   -5.7475   -2.0218   -2.2530 O   0  0  0  0  0  0  0  0  0  0  0  0
   -0.9990    3.7921    0.3594 C   0  0  0  0  0  0  0  0  0  0  0  0
   -0.2428    4.8514    0.6081 N   0  0  0  0  0  0  0  0  0  0  0  0
   -0.9140    5.9503    0.6444 O   0  0  0  0  0  0  0  0  0  0  0  0
   -2.1694    5.6438    0.4147 N   0  0  0  0  0  0  0  0  0  0  0  0
   -2.2893    4.3316    0.2311 C   0  0  0  0  0  0  0  0  0  0  0  0
   -3.4760    3.6173   -0.0396 N   0  0  0  0  0  0  0  0  0  0  0  0
    2.7694    1.7494    2.3904 H   0  0  0  0  0  0  0  0  0  0  0  0
    2.5566    3.5086    2.2307 H   0  0  0  0  0  0  0  0  0  0  0  0
    1.1584    2.4291    2.7098 H   0  0  0  0  0  0  0  0  0  0  0  0
    2.5757    1.9544    0.0607 H   0  0  0  0  0  0  0  0  0  0  0  0
    1.7116    3.4678    0.1381 H   0  0  0  0  0  0  0  0  0  0  0  0
    1.2386   -2.7872   -0.0325 H   0  0  0  0  0  0  0  0  0  0  0  0
    3.9563   -1.3257    1.5322 H   0  0  0  0  0  0  0  0  0  0  0  0
    4.2262    0.3016    0.8939 H   0  0  0  0  0  0  0  0  0  0  0  0
    4.6853   -0.4108   -1.3357 H   0  0  0  0  0  0  0  0  0  0  0  0
    4.8584   -2.6952   -1.9715 H   0  0  0  0  0  0  0  0  0  0  0  0
    3.1299   -2.6481   -1.3949 H   0  0  0  0  0  0  0  0  0  0  0  0
    4.0278   -3.2862    0.9124 H   0  0  0  0  0  0  0  0  0  0  0  0
    4.6389   -4.4552   -0.3821 H   0  0  0  0  0  0  0  0  0  0  0  0
    6.5547   -3.3445   -0.6219 H   0  0  0  0  0  0  0  0  0  0  0  0
    6.1585   -0.9393    0.9022 H   0  0  0  0  0  0  0  0  0  0  0  0
    6.7137   -1.1851   -0.7875 H   0  0  0  0  0  0  0  0  0  0  0  0
   -7.0559   -2.9022   -0.3231 H   0  0  0  0  0  0  0  0  0  0  0  0
   -6.6566   -1.5925    0.9072 H   0  0  0  0  0  0  0  0  0  0  0  0
   -5.5022   -2.8982    0.5480 H   0  0  0  0  0  0  0  0  0  0  0  0
   -5.7088    0.5721   -0.2492 H   0  0  0  0  0  0  0  0  0  0  0  0
   -6.1870    0.3913   -2.0177 H   0  0  0  0  0  0  0  0  0  0  0  0
   -7.2653   -0.1737   -0.7082 H   0  0  0  0  0  0  0  0  0  0  0  0
   -5.6159   -2.9970   -2.1437 H   0  0  0  0  0  0  0  0  0  0  0  0
   -4.2538    3.6385    0.6434 H   0  0  0  0  0  0  0  0  0  0  0  0
   -3.5986    3.0645   -0.9099 H   0  0  0  0  0  0  0  0  0  0  0  0
  1  2  1  0
  2  3  1  0
  3  4  1  0
  4  5  2  0
  5  6  1  0
  6  7  2  0
  7  8  1  0
  8  9  2  0
  9 10  1  0
 10 11  1  0
 11 12  1  0
 12 13  1  0
 13 14  1  0
 14 15  1  0
 15 16  1  0
 16 17  1  0
 10 18  2  0
  7 19  1  0
 19 20  3  0
 20 21  1  0
 21 22  1  0
 21 23  1  0
 21 24  1  0
  4 25  1  0
 25 26  2  0
 26 27  1  0
 27 28  1  0
 28 29  2  0
 29 30  1  0
 18  3  1  0
 29 25  1  0
 18  6  1  0
 17 13  1  0
  1 31  1  0
  1 32  1  0
  1 33  1  0
  2 34  1  0
  2 35  1  0
  9 36  1  0
 12 37  1  0
 12 38  1  0
 13 39  1  6
 14 40  1  0
 14 41  1  0
 15 42  1  0
 15 43  1  0
 16 44  1  0
 17 45  1  0
 17 46  1  0
 22 47  1  0
 22 48  1  0
 22 49  1  0
 23 50  1  0
 23 51  1  0
 23 52  1  0
 24 53  1  0
 30 54  1  0
 30 55  1  0
M  END
$$$$
[H]c1c([H])c([H])c(-c2nc3c(N([H])[H])nc(N([H])[H])nc3c([H])c2[H])c([H])c1[H]
     RDKit          3D

 29 31  0  0  0  0  0  0  0  0999 V2000
    5.6097   -0.1412   -0.2276 N   0  0  0  0  0  0  0  0  0  0  0  0
    4.2001   -0.2470   -0.0824 C   0  0  0  0  0  0  0  0  0  0  0  0
    3.5959   -1.2087    0.6111 N   0  0  0  0  0  0  0  0  0  0  0  0
    2.2690   -1.3265    0.7603 C   0  0  0  0  0  0  0  0  0  0  0  0
    1.6701   -2.3836    1.5191 N   0  0  0  0  0  0  0  0  0  0  0  0
    1.4718   -0.3695    0.1421 C   0  0  0  0  0  0  0  0  0  0  0  0
    0.1482   -0.4152    0.2414 N   0  0  0  0  0  0  0  0  0  0  0  0
   -0.6878    0.4911   -0.3398 C   0  0  0  0  0  0  0  0  0  0  0  0
   -0.0830    1.4866   -1.0566 C   0  0  0  0  0  0  0  0  0  0  0  0
    1.2896    1.5754   -1.1882 C   0  0  0  0  0  0  0  0  0  0  0  0
    2.0858    0.6315   -0.5789 C   0  0  0  0  0  0  0  0  0  0  0  0
    3.4209    0.6827   -0.6827 N   0  0  0  0  0  0  0  0  0  0  0  0
   -2.1259    0.3740   -0.1853 C   0  0  0  0  0  0  0  0  0  0  0  0
   -2.6531   -0.6816    0.5688 C   0  0  0  0  0  0  0  0  0  0  0  0
   -4.0168   -0.8080    0.7259 C   0  0  0  0  0  0  0  0  0  0  0  0
   -4.8719    0.1184    0.1318 C   0  0  0  0  0  0  0  0  0  0  0  0
   -4.3728    1.1609   -0.6119 C   0  0  0  0  0  0  0  0  0  0  0  0
   -2.9856    1.2602   -0.7515 C   0  0  0  0  0  0  0  0  0  0  0  0
    6.2672    0.0606    0.5563 H   0  0  0  0  0  0  0  0  0  0  0  0
    6.0207   -0.2728   -1.1773 H   0  0  0  0  0  0  0  0  0  0  0  0
    1.6369   -3.3501    1.0799 H   0  0  0  0  0  0  0  0  0  0  0  0
    1.2728   -2.2587    2.4605 H   0  0  0  0  0  0  0  0  0  0  0  0
   -0.6951    2.2366   -1.5416 H   0  0  0  0  0  0  0  0  0  0  0  0
    1.7050    2.3920   -1.7719 H   0  0  0  0  0  0  0  0  0  0  0  0
   -2.0201   -1.4132    1.0402 H   0  0  0  0  0  0  0  0  0  0  0  0
   -4.4834   -1.5930    1.2905 H   0  0  0  0  0  0  0  0  0  0  0  0
   -5.9538    0.0360    0.2441 H   0  0  0  0  0  0  0  0  0  0  0  0
   -5.0510    1.8667   -1.0631 H   0  0  0  0  0  0  0  0  0  0  0  0
   -2.6634    2.0964   -1.3440 H   0  0  0  0  0  0  0  0  0  0  0  0
  1  2  1  0
  2  3  2  0
  3  4  1  0
  4  5  1  0
  4  6  2  0
  6  7  1  0
  7  8  2  0
  8  9  1  0
  9 10  2  0
 10 11  1  0
 11 12  2  0
  8 13  1  0
 13 14  2  0
 14 15  1  0
 15 16  2  0
 16 17  1  0
 17 18  2  0
 12  2  1  0
 18 13  1  0
 11  6  1  0
  1 19  1  0
  1 20  1  0
  5 21  1  0
  5 22  1  0
  9 23  1  0
 10 24  1  0
 14 25  1  0
 15 26  1  0
 16 27  1  0
 17 28  1  0
 18 29  1  0
M  END
$$$$
[H]c1c([H])c(-c2nsc(N([H])C(=O)C([H])([H])C([H])([H])C([H])([H])[H])c2C(=O)N([H])[H])c([H])c([H])c1OC([H])([H])[H]
     RDKit          3D

 39 40  0  0  0  0  0  0  0  0999 V2000
    6.4564    0.7905    1.3280 C   0  0  0  0  0  0  0  0  0  0  0  0
    6.3884   -0.4350    0.4527 C   0  0  0  0  0  0  0  0  0  0  0  0
    5.2149   -0.4248   -0.4697 C   0  0  0  0  0  0  0  0  0  0  0  0
    3.9254   -0.3677    0.2136 C   0  0  0  0  0  0  0  0  0  0  0  0
    3.8942   -0.3327    1.4709 O   0  0  0  0  0  0  0  0  0  0  0  0
    2.7023   -0.3519   -0.5604 N   0  0  0  0  0  0  0  0  0  0  0  0
    1.4450   -0.2963    0.1015 C   0  0  0  0  0  0  0  0  0  0  0  0
    1.2852   -0.2421    1.8279 S   0  0  0  0  0  0  0  0  0  0  0  0
   -0.3739   -0.1884    1.8971 N   0  0  0  0  0  0  0  0  0  0  0  0
   -0.7884   -0.2111    0.6050 C   0  0  0  0  0  0  0  0  0  0  0  0
    0.1422   -0.2702   -0.3437 C   0  0  0  0  0  0  0  0  0  0  0  0
   -0.1428   -0.3552   -1.7787 C   0  0  0  0  0  0  0  0  0  0  0  0
   -1.4537   -0.4099   -2.3429 N   0  0  0  0  0  0  0  0  0  0  0  0
    0.8159   -0.3902   -2.6022 O   0  0  0  0  0  0  0  0  0  0  0  0
   -2.2574   -0.1647    0.4646 C   0  0  0  0  0  0  0  0  0  0  0  0
   -3.0391   -1.1859    0.9845 C   0  0  0  0  0  0  0  0  0  0  0  0
   -4.4144   -1.1635    0.9694 C   0  0  0  0  0  0  0  0  0  0  0  0
   -5.0805   -0.0888    0.4182 C   0  0  0  0  0  0  0  0  0  0  0  0
   -6.4846   -0.0388    0.3885 O   0  0  0  0  0  0  0  0  0  0  0  0
   -7.0784    1.0995   -0.1950 C   0  0  0  0  0  0  0  0  0  0  0  0
   -4.3154    0.9328   -0.1017 C   0  0  0  0  0  0  0  0  0  0  0  0
   -2.9404    0.8994   -0.0807 C   0  0  0  0  0  0  0  0  0  0  0  0
    7.4952    1.1687    1.3804 H   0  0  0  0  0  0  0  0  0  0  0  0
    5.7777    1.5563    0.9045 H   0  0  0  0  0  0  0  0  0  0  0  0
    6.1577    0.5562    2.3893 H   0  0  0  0  0  0  0  0  0  0  0  0
    7.3107   -0.4820   -0.1678 H   0  0  0  0  0  0  0  0  0  0  0  0
    6.2926   -1.3255    1.1156 H   0  0  0  0  0  0  0  0  0  0  0  0
    5.3182    0.4874   -1.1213 H   0  0  0  0  0  0  0  0  0  0  0  0
    5.2944   -1.3188   -1.1270 H   0  0  0  0  0  0  0  0  0  0  0  0
    2.7595   -0.3803   -1.5770 H   0  0  0  0  0  0  0  0  0  0  0  0
   -1.8076    0.3867   -2.9410 H   0  0  0  0  0  0  0  0  0  0  0  0
   -2.0510   -1.2491   -2.1593 H   0  0  0  0  0  0  0  0  0  0  0  0
   -2.4873   -2.0306    1.4178 H   0  0  0  0  0  0  0  0  0  0  0  0
   -4.9598   -1.9939    1.3924 H   0  0  0  0  0  0  0  0  0  0  0  0
   -6.7073    1.2614   -1.2496 H   0  0  0  0  0  0  0  0  0  0  0  0
   -6.8625    2.0188    0.4013 H   0  0  0  0  0  0  0  0  0  0  0  0
   -8.1655    1.0193   -0.2728 H   0  0  0  0  0  0  0  0  0  0  0  0
   -4.8676    1.7767   -0.5345 H   0  0  0  0  0  0  0  0  0  0  0  0
   -2.3983    1.7434   -0.4976 H   0  0  0  0  0  0  0  0  0  0  0  0
  1  2  1  0
  2  3  1  0
  3  4  1  0
  4  5  2  0
  4  6  1  0
  6  7  1  0
  7  8  1  0
  8  9  1  0
  9 10  2  0
 10 11  1  0
 11 12  1  0
 12 13  1  0
 12 14  2  0
 10 15  1  0
 15 16  2  0
 16 17  1  0
 17 18  2  0
 18 19  1  0
 19 20  1  0
 18 21  1  0
 21 22  2  0
 11  7  2  0
 22 15  1  0
  1 23  1  0
  1 24  1  0
  1 25  1  0
  2 26  1  0
  2 27  1  0
  3 28  1  0
  3 29  1  0
  6 30  1  0
 13 31  1  0
 13 32  1  0
 16 33  1  0
 17 34  1  0
 20 35  1  0
 20 36  1  0
 20 37  1  0
 21 38  1  0
 22 39  1  0
M  END
$$$$
[H]OB(O[H])[C@@]([H])(N([H])C(=O)[C@@]([H])(N([H])C(=O)[C@@]([H])(N([H])C(=O)C([H])([H])[H])C([H])([H])C([H])([H])C([H])([H])N=C(N([H])[H])N([H])[H])C([H])(C([H])([H])[H])C([H])([H])[H])C([H])([H])C([H])([H])C([H])([H])[H]
     RDKit          3D

 64 63  0  0  0  0  0  0  0  0999 V2000
   -5.2341    3.0325   -0.6057 C   0  0  0  0  0  0  0  0  0  0  0  0
   -5.8015    2.4233    0.6420 C   0  0  0  0  0  0  0  0  0  0  0  0
   -5.0228    1.1796    0.9711 C   0  0  0  0  0  0  0  0  0  0  0  0
   -3.5650    1.4428    1.2132 C   0  0  2  0  0  0  0  0  0  0  0  0
   -2.9526    0.1402    1.5193 N   0  0  0  0  0  0  0  0  0  0  0  0
   -1.8775   -0.4054    0.8093 C   0  0  0  0  0  0  0  0  0  0  0  0
   -1.4634    0.3785   -0.1607 O   0  0  0  0  0  0  0  0  0  0  0  0
   -1.1842   -1.6804    1.0004 C   0  0  1  0  0  0  0  0  0  0  0  0
    0.2212   -1.4834    0.6665 N   0  0  0  0  0  0  0  0  0  0  0  0
    0.8662   -2.0207   -0.4600 C   0  0  0  0  0  0  0  0  0  0  0  0
    0.2278   -2.7218   -1.2681 O   0  0  0  0  0  0  0  0  0  0  0  0
    2.2941   -1.7566   -0.6878 C   0  0  2  0  0  0  0  0  0  0  0  0
    2.4979   -0.2660   -0.8290 C   0  0  0  0  0  0  0  0  0  0  0  0
    4.0028   -0.0809   -1.0565 C   0  0  0  0  0  0  0  0  0  0  0  0
    4.2673    1.3838   -1.1960 C   0  0  0  0  0  0  0  0  0  0  0  0
    3.5003    1.8721   -2.3457 N   0  0  0  0  0  0  0  0  0  0  0  0
    4.0972    2.5744   -3.2709 C   0  0  0  0  0  0  0  0  0  0  0  0
    3.3076    3.0216   -4.3617 N   0  0  0  0  0  0  0  0  0  0  0  0
    5.4973    2.8842   -3.1889 N   0  0  0  0  0  0  0  0  0  0  0  0
    2.7487   -2.3747   -1.9330 N   0  0  0  0  0  0  0  0  0  0  0  0
    3.7891   -3.3281   -1.8612 C   0  0  0  0  0  0  0  0  0  0  0  0
    4.2706   -3.9663   -3.1087 C   0  0  0  0  0  0  0  0  0  0  0  0
    4.3395   -3.6693   -0.7688 O   0  0  0  0  0  0  0  0  0  0  0  0
   -1.3598   -2.3980    2.2783 C   0  0  0  0  0  0  0  0  0  0  0  0
   -2.7587   -2.8330    2.5928 C   0  0  0  0  0  0  0  0  0  0  0  0
   -0.7386   -1.6232    3.4326 C   0  0  0  0  0  0  0  0  0  0  0  0
   -3.3861    2.4642    2.4045 B   0  0  0  0  0  0  0  0  0  0  0  0
   -3.6897    2.0746    3.7840 O   0  0  0  0  0  0  0  0  0  0  0  0
   -2.5376    3.6487    2.2211 O   0  0  0  0  0  0  0  0  0  0  0  0
   -4.2368    3.4515   -0.4393 H   0  0  0  0  0  0  0  0  0  0  0  0
   -5.8919    3.8134   -1.0413 H   0  0  0  0  0  0  0  0  0  0  0  0
   -5.1396    2.2160   -1.3543 H   0  0  0  0  0  0  0  0  0  0  0  0
   -6.8598    2.1268    0.4602 H   0  0  0  0  0  0  0  0  0  0  0  0
   -5.7649    3.1649    1.4442 H   0  0  0  0  0  0  0  0  0  0  0  0
   -5.4372    0.6221    1.8311 H   0  0  0  0  0  0  0  0  0  0  0  0
   -5.0666    0.4816    0.0828 H   0  0  0  0  0  0  0  0  0  0  0  0
   -3.0315    1.8177    0.3250 H   0  0  0  0  0  0  0  0  0  0  0  0
   -3.3767   -0.3430    2.3179 H   0  0  0  0  0  0  0  0  0  0  0  0
   -1.5498   -2.4000    0.1738 H   0  0  0  0  0  0  0  0  0  0  0  0
    0.7954   -0.8872    1.3313 H   0  0  0  0  0  0  0  0  0  0  0  0
    2.8652   -2.1508    0.1797 H   0  0  0  0  0  0  0  0  0  0  0  0
    1.9415    0.1489   -1.6889 H   0  0  0  0  0  0  0  0  0  0  0  0
    2.1857    0.2931    0.0714 H   0  0  0  0  0  0  0  0  0  0  0  0
    4.2066   -0.6042   -2.0211 H   0  0  0  0  0  0  0  0  0  0  0  0
    4.5197   -0.5525   -0.2013 H   0  0  0  0  0  0  0  0  0  0  0  0
    3.9525    1.8941   -0.2718 H   0  0  0  0  0  0  0  0  0  0  0  0
    5.3551    1.5748   -1.3670 H   0  0  0  0  0  0  0  0  0  0  0  0
    3.5724    3.9101   -4.8224 H   0  0  0  0  0  0  0  0  0  0  0  0
    2.4936    2.4651   -4.6775 H   0  0  0  0  0  0  0  0  0  0  0  0
    6.2058    2.1226   -3.1418 H   0  0  0  0  0  0  0  0  0  0  0  0
    5.7998    3.8774   -3.1770 H   0  0  0  0  0  0  0  0  0  0  0  0
    2.3152   -2.1150   -2.8312 H   0  0  0  0  0  0  0  0  0  0  0  0
    4.5706   -5.0085   -2.8521 H   0  0  0  0  0  0  0  0  0  0  0  0
    5.1322   -3.3783   -3.5182 H   0  0  0  0  0  0  0  0  0  0  0  0
    3.4383   -3.9482   -3.8437 H   0  0  0  0  0  0  0  0  0  0  0  0
   -0.7528   -3.3456    2.2188 H   0  0  0  0  0  0  0  0  0  0  0  0
   -2.8368   -3.9581    2.6881 H   0  0  0  0  0  0  0  0  0  0  0  0
   -3.1855   -2.3754    3.4959 H   0  0  0  0  0  0  0  0  0  0  0  0
   -3.4000   -2.6122    1.6891 H   0  0  0  0  0  0  0  0  0  0  0  0
   -0.4366   -0.6321    3.0322 H   0  0  0  0  0  0  0  0  0  0  0  0
   -1.5076   -1.5422    4.2202 H   0  0  0  0  0  0  0  0  0  0  0  0
    0.1385   -2.1395    3.8659 H   0  0  0  0  0  0  0  0  0  0  0  0
   -2.8579    2.1634    4.3392 H   0  0  0  0  0  0  0  0  0  0  0  0
   -2.5121    3.9366    1.2697 H   0  0  0  0  0  0  0  0  0  0  0  0
  1  2  1  0
  2  3  1  0
  3  4  1  0
  4  5  1  0
  5  6  1  0
  6  7  2  0
  6  8  1  0
  8  9  1  0
  9 10  1  0
 10 11  2  0
 10 12  1  0
 12 13  1  0
 13 14  1  0
 14 15  1  0
 15 16  1  0
 16 17  2  3
 17 18  1  0
 17 19  1  0
 12 20  1  0
 20 21  1  0
 21 22  1  0
 21 23  2  0
  8 24  1  0
 24 25  1  0
 24 26  1  0
  4 27  1  0
 27 28  1  0
 27 29  1  0
  1 30  1  0
  1 31  1  0
  1 32  1  0
  2 33  1  0
  2 34  1  0
  3 35  1  0
  3 36  1  0
  4 37  1  6
  5 38  1  0
  8 39  1  6
  9 40  1  0
 12 41  1  1
 13 42  1  0
 13 43  1  0
 14 44  1  0
 14 45  1  0
 15 46  1  0
 15 47  1  0
 18 48  1  0
 18 49  1  0
 19 50  1  0
 19 51  1  0
 20 52  1  0
 22 53  1  0
 22 54  1  0
 22 55  1  0
 24 56  1  0
 25 57  1  0
 25 58  1  0
 25 59  1  0
 26 60  1  0
 26 61  1  0
 26 62  1  0
 28 63  1  0
 29 64  1  0
M  END
$$$$
[H]c1c([H])c([H])c2c(C(=O)N3C([H])([H])C([H])([H])C([H])([H])[C@]3([H])C([H])([H])N(C(=O)[C@@]([H])(N([H])[H])C([H])([H])[H])C([H])([H])[H])c([H])c([H])c([H])c2c1[H]
     RDKit          3D

 50 52  0  0  0  0  0  0  0  0999 V2000
    5.4926   -1.2053    2.0371 C   0  0  0  0  0  0  0  0  0  0  0  0
    4.9384   -0.9255    0.6362 C   0  0  2  0  0  0  0  0  0  0  0  0
    5.8304   -0.0293   -0.0046 N   0  0  0  0  0  0  0  0  0  0  0  0
    3.5367   -0.5287    0.7277 C   0  0  0  0  0  0  0  0  0  0  0  0
    2.7709   -1.3804    1.3165 O   0  0  0  0  0  0  0  0  0  0  0  0
    2.9150    0.6333    0.2710 N   0  0  0  0  0  0  0  0  0  0  0  0
    3.6850    1.6742   -0.3865 C   0  0  0  0  0  0  0  0  0  0  0  0
    1.4671    0.8670    0.4066 C   0  0  0  0  0  0  0  0  0  0  0  0
    0.7864    0.3920   -0.8007 C   0  0  1  0  0  0  0  0  0  0  0  0
    0.9241   -1.0591   -1.1495 C   0  0  0  0  0  0  0  0  0  0  0  0
    0.0094   -1.1065   -2.3919 C   0  0  0  0  0  0  0  0  0  0  0  0
   -1.0590   -0.0616   -2.0669 C   0  0  0  0  0  0  0  0  0  0  0  0
   -0.6440    0.5572   -0.8238 N   0  0  0  0  0  0  0  0  0  0  0  0
   -1.5278    1.1668    0.1031 C   0  0  0  0  0  0  0  0  0  0  0  0
   -1.0279    1.6676    1.1471 O   0  0  0  0  0  0  0  0  0  0  0  0
   -2.9633    1.2130   -0.1421 C   0  0  0  0  0  0  0  0  0  0  0  0
   -3.5710    2.2526   -0.8152 C   0  0  0  0  0  0  0  0  0  0  0  0
   -4.9228    2.2776   -1.0357 C   0  0  0  0  0  0  0  0  0  0  0  0
   -5.6840    1.2209   -0.5623 C   0  0  0  0  0  0  0  0  0  0  0  0
   -5.0813    0.1737    0.1143 C   0  0  0  0  0  0  0  0  0  0  0  0
   -5.8776   -0.8687    0.5743 C   0  0  0  0  0  0  0  0  0  0  0  0
   -5.2995   -1.9219    1.2504 C   0  0  0  0  0  0  0  0  0  0  0  0
   -3.9355   -1.9176    1.4565 C   0  0  0  0  0  0  0  0  0  0  0  0
   -3.1217   -0.9112    1.0191 C   0  0  0  0  0  0  0  0  0  0  0  0
   -3.7124    0.1365    0.3442 C   0  0  0  0  0  0  0  0  0  0  0  0
    5.4049   -2.2630    2.3130 H   0  0  0  0  0  0  0  0  0  0  0  0
    4.9647   -0.6104    2.8083 H   0  0  0  0  0  0  0  0  0  0  0  0
    6.5690   -0.9295    2.0916 H   0  0  0  0  0  0  0  0  0  0  0  0
    5.0376   -1.9270    0.1141 H   0  0  0  0  0  0  0  0  0  0  0  0
    6.1478   -0.3816   -0.9351 H   0  0  0  0  0  0  0  0  0  0  0  0
    6.5916    0.3181    0.5888 H   0  0  0  0  0  0  0  0  0  0  0  0
    4.0664    1.2440   -1.3344 H   0  0  0  0  0  0  0  0  0  0  0  0
    3.0079    2.5178   -0.6968 H   0  0  0  0  0  0  0  0  0  0  0  0
    4.4674    2.1063    0.2629 H   0  0  0  0  0  0  0  0  0  0  0  0
    1.3631    1.9474    0.6172 H   0  0  0  0  0  0  0  0  0  0  0  0
    1.1909    0.2935    1.3328 H   0  0  0  0  0  0  0  0  0  0  0  0
    1.1630    0.9497   -1.7123 H   0  0  0  0  0  0  0  0  0  0  0  0
    0.5101   -1.7602   -0.4112 H   0  0  0  0  0  0  0  0  0  0  0  0
    1.9447   -1.3733   -1.4341 H   0  0  0  0  0  0  0  0  0  0  0  0
    0.6532   -0.7655   -3.2288 H   0  0  0  0  0  0  0  0  0  0  0  0
   -0.4046   -2.1013   -2.5449 H   0  0  0  0  0  0  0  0  0  0  0  0
   -2.0584   -0.5270   -1.9950 H   0  0  0  0  0  0  0  0  0  0  0  0
   -1.0082    0.7135   -2.8563 H   0  0  0  0  0  0  0  0  0  0  0  0
   -2.9541    3.0572   -1.1700 H   0  0  0  0  0  0  0  0  0  0  0  0
   -5.3767    3.1111   -1.5702 H   0  0  0  0  0  0  0  0  0  0  0  0
   -6.7514    1.2475   -0.7402 H   0  0  0  0  0  0  0  0  0  0  0  0
   -6.9522   -0.8511    0.4003 H   0  0  0  0  0  0  0  0  0  0  0  0
   -5.9507   -2.7189    1.5957 H   0  0  0  0  0  0  0  0  0  0  0  0
   -3.5030   -2.7509    1.9876 H   0  0  0  0  0  0  0  0  0  0  0  0
   -2.0509   -0.8632    1.1560 H   0  0  0  0  0  0  0  0  0  0  0  0
  1  2  1  0
  2  3  1  0
  2  4  1  0
  4  5  2  0
  4  6  1  0
  6  7  1  0
  6  8  1  0
  8  9  1  0
  9 10  1  0
 10 11  1  0
 11 12  1  0
 12 13  1  0
 13 14  1  0
 14 15  2  0
 14 16  1  0
 16 17  2  0
 17 18  1  0
 18 19  2  0
 19 20  1  0
 20 21  2  0
 21 22  1  0
 22 23  2  0
 23 24  1  0
 24 25  2  0
 13  9  1  0
 25 16  1  0
 25 20  1  0
  1 26  1  0
  1 27  1  0
  1 28  1  0
  2 29  1  6
  3 30  1  0
  3 31  1  0
  7 32  1  0
  7 33  1  0
  7 34  1  0
  8 35  1  0
  8 36  1  0
  9 37  1  6
 10 38  1  0
 10 39  1  0
 11 40  1  0
 11 41  1  0
 12 42  1  0
 12 43  1  0
 17 44  1  0
 18 45  1  0
 19 46  1  0
 21 47  1  0
 22 48  1  0
 23 49  1  0
 24 50  1  0
M  END
$$$$
[H]c1c([H])c2c(c([H])c1Cl)C(=NN([H])c1c([H])c([H])c(S(=O)(=O)N([H])[H])c([H])c1[H])C(=O)N2[H]
     RDKit          3D

 34 36  0  0  0  0  0  0  0  0999 V2000
    6.8042    0.2886    0.0362 N   0  0  0  0  0  0  0  0  0  0  0  0
    5.6309   -0.6935   -0.8075 S   0  0  0  0  0  0  0  0  0  0  0  0
    5.8801   -2.1277   -0.5217 O   0  0  0  0  0  0  0  0  0  0  0  0
    5.8675   -0.4364   -2.2840 O   0  0  0  0  0  0  0  0  0  0  0  0
    3.9945   -0.1923   -0.3663 C   0  0  0  0  0  0  0  0  0  0  0  0
    3.3499   -0.7292    0.7233 C   0  0  0  0  0  0  0  0  0  0  0  0
    2.0848   -0.3137    1.0413 C   0  0  0  0  0  0  0  0  0  0  0  0
    1.3923    0.6357    0.3217 C   0  0  0  0  0  0  0  0  0  0  0  0
    0.0662    1.0370    0.7463 N   0  0  0  0  0  0  0  0  0  0  0  0
   -1.0898    0.5020    0.5786 N   0  0  0  0  0  0  0  0  0  0  0  0
   -2.0202   -0.2567    0.5477 C   0  0  0  0  0  0  0  0  0  0  0  0
   -2.1636   -1.6620    0.9486 C   0  0  0  0  0  0  0  0  0  0  0  0
   -1.2572   -2.3920    1.4172 O   0  0  0  0  0  0  0  0  0  0  0  0
   -3.5056   -2.0118    0.7026 N   0  0  0  0  0  0  0  0  0  0  0  0
   -4.2438   -0.9111    0.1628 C   0  0  0  0  0  0  0  0  0  0  0  0
   -5.5791   -0.8200   -0.2150 C   0  0  0  0  0  0  0  0  0  0  0  0
   -6.0556    0.3555   -0.7052 C   0  0  0  0  0  0  0  0  0  0  0  0
   -5.1938    1.4469   -0.8189 C   0  0  0  0  0  0  0  0  0  0  0  0
   -5.7965    2.9416   -1.4406 Cl  0  0  0  0  0  0  0  0  0  0  0  0
   -3.8740    1.3286   -0.4357 C   0  0  0  0  0  0  0  0  0  0  0  0
   -3.3759    0.1274    0.0681 C   0  0  0  0  0  0  0  0  0  0  0  0
    2.0265    1.1763   -0.7679 C   0  0  0  0  0  0  0  0  0  0  0  0
    3.3181    0.7605   -1.1025 C   0  0  0  0  0  0  0  0  0  0  0  0
    6.3637    1.2180    0.1338 H   0  0  0  0  0  0  0  0  0  0  0  0
    6.8787   -0.1282    0.9928 H   0  0  0  0  0  0  0  0  0  0  0  0
    3.8761   -1.4789    1.3034 H   0  0  0  0  0  0  0  0  0  0  0  0
    1.5510   -0.7323    1.9089 H   0  0  0  0  0  0  0  0  0  0  0  0
    0.1280    1.9672    1.3033 H   0  0  0  0  0  0  0  0  0  0  0  0
   -3.9189   -2.9664    0.8942 H   0  0  0  0  0  0  0  0  0  0  0  0
   -6.1987   -1.6825   -0.1103 H   0  0  0  0  0  0  0  0  0  0  0  0
   -7.0979    0.4773   -1.0161 H   0  0  0  0  0  0  0  0  0  0  0  0
   -3.1924    2.1753   -0.5220 H   0  0  0  0  0  0  0  0  0  0  0  0
    1.5181    1.9257   -1.3666 H   0  0  0  0  0  0  0  0  0  0  0  0
    3.8323    1.1713   -1.9501 H   0  0  0  0  0  0  0  0  0  0  0  0
  1  2  1  0
  2  3  2  0
  2  4  2  0
  2  5  1  0
  5  6  2  0
  6  7  1  0
  7  8  2  0
  8  9  1  0
  9 10  1  0
 10 11  2  3
 11 12  1  0
 12 13  2  0
 12 14  1  0
 14 15  1  0
 15 16  2  0
 16 17  1  0
 17 18  2  0
 18 19  1  0
 18 20  1  0
 20 21  2  0
  8 22  1  0
 22 23  2  0
 23  5  1  0
 21 11  1  0
 21 15  1  0
  1 24  1  0
  1 25  1  0
  6 26  1  0
  7 27  1  0
  9 28  1  0
 14 29  1  0
 16 30  1  0
 17 31  1  0
 20 32  1  0
 22 33  1  0
 23 34  1  0
M  END
$$$$
[H]c1c([H])c([C@@]2([H])N(C([H])([H])[H])C([H])([H])[C@@]3([H])C([H])([H])N([H])[C@@]3([H])C2([H])[H])c([H])c([H])c1Cl
     RDKit          3D

 33 35  0  0  0  0  0  0  0  0999 V2000
   -0.0470   -2.1791   -0.4089 C   0  0  0  0  0  0  0  0  0  0  0  0
    0.6103   -1.2461    0.4944 N   0  0  0  0  0  0  0  0  0  0  0  0
    1.9304   -1.0583   -0.0095 C   0  0  0  0  0  0  0  0  0  0  0  0
    2.7221   -0.0074    0.7122 C   0  0  1  0  0  0  0  0  0  0  0  0
    3.4599    0.8812   -0.2873 C   0  0  0  0  0  0  0  0  0  0  0  0
    2.9494    2.0791    0.3602 N   0  0  0  0  0  0  0  0  0  0  0  0
    1.9353    1.2461    0.9618 C   0  0  1  0  0  0  0  0  0  0  0  0
    0.6541    1.1310    0.1431 C   0  0  0  0  0  0  0  0  0  0  0  0
   -0.0998   -0.0338    0.7059 C   0  0  1  0  0  0  0  0  0  0  0  0
   -1.4902   -0.0211    0.2975 C   0  0  0  0  0  0  0  0  0  0  0  0
   -1.9283    0.9383   -0.5762 C   0  0  0  0  0  0  0  0  0  0  0  0
   -3.2450    1.0236   -0.9990 C   0  0  0  0  0  0  0  0  0  0  0  0
   -4.1588    0.1155   -0.5314 C   0  0  0  0  0  0  0  0  0  0  0  0
   -5.8173    0.2372   -1.0752 Cl  0  0  0  0  0  0  0  0  0  0  0  0
   -3.7396   -0.8608    0.3500 C   0  0  0  0  0  0  0  0  0  0  0  0
   -2.4274   -0.9333    0.7618 C   0  0  0  0  0  0  0  0  0  0  0  0
    0.7082   -2.7370   -1.0426 H   0  0  0  0  0  0  0  0  0  0  0  0
   -0.5231   -2.9818    0.1914 H   0  0  0  0  0  0  0  0  0  0  0  0
   -0.7091   -1.6936   -1.1341 H   0  0  0  0  0  0  0  0  0  0  0  0
    1.9003   -0.8589   -1.1072 H   0  0  0  0  0  0  0  0  0  0  0  0
    2.4853   -2.0204    0.1033 H   0  0  0  0  0  0  0  0  0  0  0  0
    3.3614   -0.3777    1.5115 H   0  0  0  0  0  0  0  0  0  0  0  0
    4.5447    0.8196   -0.1693 H   0  0  0  0  0  0  0  0  0  0  0  0
    3.0596    0.8298   -1.3172 H   0  0  0  0  0  0  0  0  0  0  0  0
    2.5946    2.8059   -0.2831 H   0  0  0  0  0  0  0  0  0  0  0  0
    1.7605    1.4247    2.0233 H   0  0  0  0  0  0  0  0  0  0  0  0
    0.9388    1.0154   -0.9061 H   0  0  0  0  0  0  0  0  0  0  0  0
    0.1062    2.0957    0.2719 H   0  0  0  0  0  0  0  0  0  0  0  0
   -0.1248    0.1178    1.8431 H   0  0  0  0  0  0  0  0  0  0  0  0
   -1.2836    1.7127   -1.0253 H   0  0  0  0  0  0  0  0  0  0  0  0
   -3.5413    1.8085   -1.6965 H   0  0  0  0  0  0  0  0  0  0  0  0
   -4.4895   -1.5601    0.6973 H   0  0  0  0  0  0  0  0  0  0  0  0
   -2.0959   -1.7127    1.4670 H   0  0  0  0  0  0  0  0  0  0  0  0
  1  2  1  0
  2  3  1  0
  3  4  1  0
  4  5  1  0
  5  6  1  0
  6  7  1  0
  7  8  1  0
  8  9  1  0
  9 10  1  0
 10 11  2  0
 11 12  1  0
 12 13  2  0
 13 14  1  0
 13 15  1  0
 15 16  2  0
  9  2  1  0
 16 10  1  0
  7  4  1  0
  1 17  1  0
  1 18  1  0
  1 19  1  0
  3 20  1  0
  3 21  1  0
  4 22  1  1
  5 23  1  0
  5 24  1  0
  6 25  1  0
  7 26  1  1
  8 27  1  0
  8 28  1  0
  9 29  1  1
 11 30  1  0
 12 31  1  0
 15 32  1  0
 16 33  1  0
M  END
$$$$
[H]c1c([H])c(C([H])([H])[C@@]([H])(C(=O)N2C([H])([H])C([H])([H])C([H])(C([H])([H])C([H])([H])N=C(N([H])[H])N([H])[H])C([H])([H])C2([H])[H])N([H])S(=O)(=O)c2c([H])c([H])c3c([H])c([H])c([H])c([H])c3c2[H])c([H])c([H])c1Cl
     RDKit          3D

 69 72  0  0  0  0  0  0  0  0999 V2000
    9.1717   -0.3449   -0.7843 N   0  0  0  0  0  0  0  0  0  0  0  0
    7.8429   -0.7834   -0.5770 C   0  0  0  0  0  0  0  0  0  0  0  0
    7.5121   -1.7644    0.3870 N   0  0  0  0  0  0  0  0  0  0  0  0
    6.9167   -0.2660   -1.2940 N   0  0  0  0  0  0  0  0  0  0  0  0
    5.5417   -0.7060   -1.0938 C   0  0  0  0  0  0  0  0  0  0  0  0
    4.7027    0.5249   -0.9931 C   0  0  0  0  0  0  0  0  0  0  0  0
    3.2588    0.1528   -0.7702 C   0  0  0  0  0  0  0  0  0  0  0  0
    2.4622    1.4481   -0.6733 C   0  0  0  0  0  0  0  0  0  0  0  0
    1.0230    1.1470   -0.9639 C   0  0  0  0  0  0  0  0  0  0  0  0
    0.6802   -0.1892   -0.5864 N   0  0  0  0  0  0  0  0  0  0  0  0
    1.3518   -1.2548   -1.3767 C   0  0  0  0  0  0  0  0  0  0  0  0
    2.6824   -0.7297   -1.8337 C   0  0  0  0  0  0  0  0  0  0  0  0
   -0.2350   -0.5982    0.3990 C   0  0  0  0  0  0  0  0  0  0  0  0
   -0.3911   -1.8529    0.5673 O   0  0  0  0  0  0  0  0  0  0  0  0
   -1.0180    0.3160    1.2301 C   0  0  2  0  0  0  0  0  0  0  0  0
   -0.1100    1.0249    2.1945 C   0  0  0  0  0  0  0  0  0  0  0  0
   -0.9085    1.9632    3.0686 C   0  0  0  0  0  0  0  0  0  0  0  0
   -1.4107    1.6266    4.2883 C   0  0  0  0  0  0  0  0  0  0  0  0
   -2.1462    2.5236    5.0508 C   0  0  0  0  0  0  0  0  0  0  0  0
   -2.3953    3.7984    4.5946 C   0  0  0  0  0  0  0  0  0  0  0  0
   -3.3250    4.9285    5.5612 Cl  0  0  0  0  0  0  0  0  0  0  0  0
   -1.8918    4.1538    3.3592 C   0  0  0  0  0  0  0  0  0  0  0  0
   -1.1583    3.2440    2.6094 C   0  0  0  0  0  0  0  0  0  0  0  0
   -2.0157   -0.4651    1.8671 N   0  0  0  0  0  0  0  0  0  0  0  0
   -3.6183   -0.2733    1.6109 S   0  0  0  0  0  0  0  0  0  0  0  0
   -4.2146    1.0426    2.0567 O   0  0  0  0  0  0  0  0  0  0  0  0
   -4.3434   -1.2990    2.4701 O   0  0  0  0  0  0  0  0  0  0  0  0
   -4.2044   -0.5353   -0.0096 C   0  0  0  0  0  0  0  0  0  0  0  0
   -4.3263    0.4451   -0.9505 C   0  0  0  0  0  0  0  0  0  0  0  0
   -4.7890    0.2200   -2.2374 C   0  0  0  0  0  0  0  0  0  0  0  0
   -5.1384   -1.0524   -2.5708 C   0  0  0  0  0  0  0  0  0  0  0  0
   -5.6019   -1.2770   -3.8621 C   0  0  0  0  0  0  0  0  0  0  0  0
   -5.9711   -2.5316   -4.2684 C   0  0  0  0  0  0  0  0  0  0  0  0
   -5.8719   -3.5779   -3.3589 C   0  0  0  0  0  0  0  0  0  0  0  0
   -5.4092   -3.3332   -2.0814 C   0  0  0  0  0  0  0  0  0  0  0  0
   -5.0354   -2.0853   -1.6571 C   0  0  0  0  0  0  0  0  0  0  0  0
   -4.5669   -1.8132   -0.3798 C   0  0  0  0  0  0  0  0  0  0  0  0
    9.7615   -0.9146   -1.4289 H   0  0  0  0  0  0  0  0  0  0  0  0
    9.6054    0.4857   -0.3550 H   0  0  0  0  0  0  0  0  0  0  0  0
    7.0863   -1.5451    1.3102 H   0  0  0  0  0  0  0  0  0  0  0  0
    7.6964   -2.7776    0.1843 H   0  0  0  0  0  0  0  0  0  0  0  0
    5.4280   -1.3360   -0.1910 H   0  0  0  0  0  0  0  0  0  0  0  0
    5.2890   -1.3046   -1.9972 H   0  0  0  0  0  0  0  0  0  0  0  0
    5.0156    1.1990   -0.1823 H   0  0  0  0  0  0  0  0  0  0  0  0
    4.7535    1.1271   -1.9340 H   0  0  0  0  0  0  0  0  0  0  0  0
    3.2094   -0.4099    0.1931 H   0  0  0  0  0  0  0  0  0  0  0  0
    2.5569    1.7769    0.3775 H   0  0  0  0  0  0  0  0  0  0  0  0
    2.8815    2.2186   -1.3603 H   0  0  0  0  0  0  0  0  0  0  0  0
    0.9294    1.2785   -2.0970 H   0  0  0  0  0  0  0  0  0  0  0  0
    0.3131    1.9153   -0.5809 H   0  0  0  0  0  0  0  0  0  0  0  0
    0.6916   -1.5622   -2.2120 H   0  0  0  0  0  0  0  0  0  0  0  0
    1.5297   -2.1149   -0.6809 H   0  0  0  0  0  0  0  0  0  0  0  0
    3.3165   -1.6179   -2.0356 H   0  0  0  0  0  0  0  0  0  0  0  0
    2.5831   -0.1799   -2.8048 H   0  0  0  0  0  0  0  0  0  0  0  0
   -1.4440    1.0809    0.5400 H   0  0  0  0  0  0  0  0  0  0  0  0
    0.6282    1.6858    1.7320 H   0  0  0  0  0  0  0  0  0  0  0  0
    0.4430    0.3401    2.8596 H   0  0  0  0  0  0  0  0  0  0  0  0
   -1.2364    0.6482    4.6831 H   0  0  0  0  0  0  0  0  0  0  0  0
   -2.5460    2.2513    6.0243 H   0  0  0  0  0  0  0  0  0  0  0  0
   -2.0752    5.1469    2.9833 H   0  0  0  0  0  0  0  0  0  0  0  0
   -0.7696    3.5499    1.6325 H   0  0  0  0  0  0  0  0  0  0  0  0
   -1.7512   -0.6987    2.8096 H   0  0  0  0  0  0  0  0  0  0  0  0
   -4.0527    1.4454   -0.6920 H   0  0  0  0  0  0  0  0  0  0  0  0
   -4.8776    1.0125   -2.9681 H   0  0  0  0  0  0  0  0  0  0  0  0
   -5.6805   -0.4533   -4.5801 H   0  0  0  0  0  0  0  0  0  0  0  0
   -6.3324   -2.7146   -5.2694 H   0  0  0  0  0  0  0  0  0  0  0  0
   -6.1635   -4.5552   -3.6889 H   0  0  0  0  0  0  0  0  0  0  0  0
   -5.3315   -4.1402   -1.3755 H   0  0  0  0  0  0  0  0  0  0  0  0
   -4.5075   -2.6640    0.2941 H   0  0  0  0  0  0  0  0  0  0  0  0
  1  2  1  0
  2  3  1  0
  2  4  2  3
  4  5  1  0
  5  6  1  0
  6  7  1  0
  7  8  1  0
  8  9  1  0
  9 10  1  0
 10 11  1  0
 11 12  1  0
 10 13  1  0
 13 14  2  0
 13 15  1  0
 15 16  1  0
 16 17  1  0
 17 18  2  0
 18 19  1  0
 19 20  2  0
 20 21  1  0
 20 22  1  0
 22 23  2  0
 15 24  1  0
 24 25  1  0
 25 26  2  0
 25 27  2  0
 25 28  1  0
 28 29  2  0
 29 30  1  0
 30 31  2  0
 31 32  1  0
 32 33  2  0
 33 34  1  0
 34 35  2  0
 35 36  1  0
 36 37  2  0
 12  7  1  0
 23 17  1  0
 37 28  1  0
 36 31  1  0
  1 38  1  0
  1 39  1  0
  3 40  1  0
  3 41  1  0
  5 42  1  0
  5 43  1  0
  6 44  1  0
  6 45  1  0
  7 46  1  0
  8 47  1  0
  8 48  1  0
  9 49  1  0
  9 50  1  0
 11 51  1  0
 11 52  1  0
 12 53  1  0
 12 54  1  0
 15 55  1  6
 16 56  1  0
 16 57  1  0
 18 58  1  0
 19 59  1  0
 22 60  1  0
 23 61  1  0
 24 62  1  0
 29 63  1  0
 30 64  1  0
 32 65  1  0
 33 66  1  0
 34 67  1  0
 35 68  1  0
 37 69  1  0
M  END
$$$$
[H]OS(=O)(=O)c1c([H])c([H])c2c(c1[H])/C(=C(\[H])c1c([H])c3c([H])c(C(=O)N([H])[H])c([H])c([H])c3n1[H])C(=O)N2[H]
     RDKit          3D

 40 43  0  0  0  0  0  0  0  0999 V2000
   -6.8387    2.3884    0.1884 N   0  0  0  0  0  0  0  0  0  0  0  0
   -6.7141    1.0121   -0.0818 C   0  0  0  0  0  0  0  0  0  0  0  0
   -7.6917    0.2549   -0.2238 O   0  0  0  0  0  0  0  0  0  0  0  0
   -5.3653    0.4244   -0.2054 C   0  0  0  0  0  0  0  0  0  0  0  0
   -5.2433   -0.9328   -0.4732 C   0  0  0  0  0  0  0  0  0  0  0  0
   -4.0144   -1.5370   -0.5992 C   0  0  0  0  0  0  0  0  0  0  0  0
   -2.8922   -0.7150   -0.4440 C   0  0  0  0  0  0  0  0  0  0  0  0
   -1.6050   -1.0399   -0.5157 N   0  0  0  0  0  0  0  0  0  0  0  0
   -0.8620    0.0354   -0.3076 C   0  0  0  0  0  0  0  0  0  0  0  0
    0.5797    0.1619   -0.2700 C   0  0  0  0  0  0  0  0  0  0  0  0
    1.3119   -0.5191    0.5833 C   0  0  0  0  0  0  0  0  0  0  0  0
    0.9116   -1.4661    1.6047 C   0  0  0  0  0  0  0  0  0  0  0  0
   -0.2635   -1.8087    1.8977 O   0  0  0  0  0  0  0  0  0  0  0  0
    2.1197   -1.9298    2.2147 N   0  0  0  0  0  0  0  0  0  0  0  0
    3.2421   -1.3195    1.6260 C   0  0  0  0  0  0  0  0  0  0  0  0
    4.6143   -1.4044    1.8294 C   0  0  0  0  0  0  0  0  0  0  0  0
    5.4702   -0.6521    1.0621 C   0  0  0  0  0  0  0  0  0  0  0  0
    5.0402    0.2050    0.0762 C   0  0  0  0  0  0  0  0  0  0  0  0
    3.6838    0.2874   -0.1231 C   0  0  0  0  0  0  0  0  0  0  0  0
    2.8034   -0.4693    0.6470 C   0  0  0  0  0  0  0  0  0  0  0  0
    6.1787    1.1467   -0.8791 S   0  0  0  0  0  0  0  0  0  0  0  0
    6.6620    0.3289   -2.2511 O   0  0  0  0  0  0  0  0  0  0  0  0
    7.3695    1.4356    0.0134 O   0  0  0  0  0  0  0  0  0  0  0  0
    5.5659    2.4705   -1.2131 O   0  0  0  0  0  0  0  0  0  0  0  0
   -1.7222    1.0897   -0.0954 C   0  0  0  0  0  0  0  0  0  0  0  0
   -3.0019    0.6174   -0.1812 C   0  0  0  0  0  0  0  0  0  0  0  0
   -4.2580    1.2267   -0.0540 C   0  0  0  0  0  0  0  0  0  0  0  0
   -6.8959    3.0625   -0.5956 H   0  0  0  0  0  0  0  0  0  0  0  0
   -6.8747    2.7434    1.1564 H   0  0  0  0  0  0  0  0  0  0  0  0
   -6.1383   -1.5451   -0.5884 H   0  0  0  0  0  0  0  0  0  0  0  0
   -3.8945   -2.5927   -0.8076 H   0  0  0  0  0  0  0  0  0  0  0  0
   -1.2160   -2.0210   -0.7263 H   0  0  0  0  0  0  0  0  0  0  0  0
    1.1073    0.8362   -0.9587 H   0  0  0  0  0  0  0  0  0  0  0  0
    2.1354   -2.6218    2.9840 H   0  0  0  0  0  0  0  0  0  0  0  0
    4.9795   -2.0597    2.5861 H   0  0  0  0  0  0  0  0  0  0  0  0
    6.5462   -0.7179    1.2207 H   0  0  0  0  0  0  0  0  0  0  0  0
    3.3134    0.9519   -0.8905 H   0  0  0  0  0  0  0  0  0  0  0  0
    7.6362    0.2641   -2.2442 H   0  0  0  0  0  0  0  0  0  0  0  0
   -1.4678    2.1377    0.1093 H   0  0  0  0  0  0  0  0  0  0  0  0
   -4.3115    2.2712    0.1519 H   0  0  0  0  0  0  0  0  0  0  0  0
  1  2  1  0
  2  3  2  0
  2  4  1  0
  4  5  2  0
  5  6  1  0
  6  7  2  0
  7  8  1  0
  8  9  1  0
  9 10  1  0
 10 11  2  0
 11 12  1  0
 12 13  2  0
 12 14  1  0
 14 15  1  0
 15 16  2  0
 16 17  1  0
 17 18  2  0
 18 19  1  0
 19 20  2  0
 18 21  1  0
 21 22  1  0
 21 23  2  0
 21 24  2  0
  9 25  2  0
 25 26  1  0
 26 27  2  0
 27  4  1  0
 26  7  1  0
 20 11  1  0
 20 15  1  0
  1 28  1  0
  1 29  1  0
  5 30  1  0
  6 31  1  0
  8 32  1  0
 10 33  1  0
 14 34  1  0
 16 35  1  0
 17 36  1  0
 19 37  1  0
 22 38  1  0
 25 39  1  0
 27 40  1  0
M  END
$$$$
[H]c1c([H])c([H])c(C([H])([H])N(C(=O)N([H])C([H])([H])C([H])([H])n2c(C([H])(C([H])([H])[H])C([H])([H])[H])nc3c([H])c([H])c([H])c([H])c32)C([H])([H])[H])c([H])c1[H]
     RDKit          3D

 52 54  0  0  0  0  0  0  0  0999 V2000
   -2.2502   -0.6141   -2.6484 C   0  0  0  0  0  0  0  0  0  0  0  0
   -2.8778    0.6265   -2.1697 C   0  0  0  0  0  0  0  0  0  0  0  0
   -1.8581    1.7586   -2.2737 C   0  0  0  0  0  0  0  0  0  0  0  0
   -3.4440    0.6420   -0.8261 C   0  0  0  0  0  0  0  0  0  0  0  0
   -4.6876    1.1641   -0.5534 N   0  0  0  0  0  0  0  0  0  0  0  0
   -4.9334    1.0039    0.7515 C   0  0  0  0  0  0  0  0  0  0  0  0
   -6.0290    1.3472    1.5437 C   0  0  0  0  0  0  0  0  0  0  0  0
   -6.0115    1.0552    2.8908 C   0  0  0  0  0  0  0  0  0  0  0  0
   -4.9072    0.4209    3.4601 C   0  0  0  0  0  0  0  0  0  0  0  0
   -3.8213    0.0785    2.6851 C   0  0  0  0  0  0  0  0  0  0  0  0
   -3.8549    0.3774    1.3412 C   0  0  0  0  0  0  0  0  0  0  0  0
   -2.9619    0.1792    0.3085 N   0  0  0  0  0  0  0  0  0  0  0  0
   -1.6980   -0.4429    0.5806 C   0  0  0  0  0  0  0  0  0  0  0  0
   -0.6325    0.5369    1.0714 C   0  0  0  0  0  0  0  0  0  0  0  0
    0.6272   -0.0682    1.3486 N   0  0  0  0  0  0  0  0  0  0  0  0
    1.4249   -0.7455    0.3925 C   0  0  0  0  0  0  0  0  0  0  0  0
    1.1110   -0.8873   -0.8185 O   0  0  0  0  0  0  0  0  0  0  0  0
    2.6777   -1.3302    0.7524 N   0  0  0  0  0  0  0  0  0  0  0  0
    3.1196   -1.2158    2.1259 C   0  0  0  0  0  0  0  0  0  0  0  0
    3.5289   -2.0305   -0.1800 C   0  0  0  0  0  0  0  0  0  0  0  0
    4.4676   -1.0489   -0.8022 C   0  0  0  0  0  0  0  0  0  0  0  0
    4.4465    0.2911   -0.4734 C   0  0  0  0  0  0  0  0  0  0  0  0
    5.3284    1.1628   -1.0697 C   0  0  0  0  0  0  0  0  0  0  0  0
    6.2616    0.7605   -2.0067 C   0  0  0  0  0  0  0  0  0  0  0  0
    6.2872   -0.5777   -2.3392 C   0  0  0  0  0  0  0  0  0  0  0  0
    5.4009   -1.4505   -1.7392 C   0  0  0  0  0  0  0  0  0  0  0  0
   -2.5170   -0.7950   -3.7093 H   0  0  0  0  0  0  0  0  0  0  0  0
   -1.1382   -0.6039   -2.6317 H   0  0  0  0  0  0  0  0  0  0  0  0
   -2.6652   -1.5140   -2.1042 H   0  0  0  0  0  0  0  0  0  0  0  0
   -3.6509    0.9223   -2.9492 H   0  0  0  0  0  0  0  0  0  0  0  0
   -0.8691    1.2753   -2.0216 H   0  0  0  0  0  0  0  0  0  0  0  0
   -2.0295    2.4878   -1.4469 H   0  0  0  0  0  0  0  0  0  0  0  0
   -1.8291    2.2145   -3.2614 H   0  0  0  0  0  0  0  0  0  0  0  0
   -6.8973    1.8386    1.1306 H   0  0  0  0  0  0  0  0  0  0  0  0
   -6.8248    1.2918    3.5652 H   0  0  0  0  0  0  0  0  0  0  0  0
   -4.8598    0.1778    4.5091 H   0  0  0  0  0  0  0  0  0  0  0  0
   -2.9455   -0.4116    3.0752 H   0  0  0  0  0  0  0  0  0  0  0  0
   -1.2269   -0.9573   -0.2717 H   0  0  0  0  0  0  0  0  0  0  0  0
   -1.8381   -1.2366    1.3595 H   0  0  0  0  0  0  0  0  0  0  0  0
   -1.0622    0.8942    2.0661 H   0  0  0  0  0  0  0  0  0  0  0  0
   -0.4607    1.3762    0.4006 H   0  0  0  0  0  0  0  0  0  0  0  0
    1.0186   -0.0229    2.3292 H   0  0  0  0  0  0  0  0  0  0  0  0
    4.1538   -1.5729    2.2537 H   0  0  0  0  0  0  0  0  0  0  0  0
    3.0606   -0.1449    2.4051 H   0  0  0  0  0  0  0  0  0  0  0  0
    2.4919   -1.8467    2.8104 H   0  0  0  0  0  0  0  0  0  0  0  0
    4.0542   -2.8932    0.2652 H   0  0  0  0  0  0  0  0  0  0  0  0
    2.8919   -2.4050   -1.0328 H   0  0  0  0  0  0  0  0  0  0  0  0
    3.7415    0.6627    0.2502 H   0  0  0  0  0  0  0  0  0  0  0  0
    5.3313    2.2248   -0.8269 H   0  0  0  0  0  0  0  0  0  0  0  0
    6.9444    1.4784   -2.4584 H   0  0  0  0  0  0  0  0  0  0  0  0
    6.9934   -0.9345   -3.0604 H   0  0  0  0  0  0  0  0  0  0  0  0
    5.4189   -2.4988   -1.9977 H   0  0  0  0  0  0  0  0  0  0  0  0
  1  2  1  0
  2  3  1  0
  2  4  1  0
  4  5  2  0
  5  6  1  0
  6  7  2  0
  7  8  1  0
  8  9  2  0
  9 10  1  0
 10 11  2  0
 11 12  1  0
 12 13  1  0
 13 14  1  0
 14 15  1  0
 15 16  1  0
 16 17  2  0
 16 18  1  0
 18 19  1  0
 18 20  1  0
 20 21  1  0
 21 22  2  0
 22 23  1  0
 23 24  2  0
 24 25  1  0
 25 26  2  0
 12  4  1  0
 26 21  1  0
 11  6  1  0
  1 27  1  0
  1 28  1  0
  1 29  1  0
  2 30  1  0
  3 31  1  0
  3 32  1  0
  3 33  1  0
  7 34  1  0
  8 35  1  0
  9 36  1  0
 10 37  1  0
 13 38  1  0
 13 39  1  0
 14 40  1  0
 14 41  1  0
 15 42  1  0
 19 43  1  0
 19 44  1  0
 19 45  1  0
 20 46  1  0
 20 47  1  0
 22 48  1  0
 23 49  1  0
 24 50  1  0
 25 51  1  0
 26 52  1  0
M  END
$$$$
[H]c1sc([H])c(C(=O)N([H])c2c([H])c([H])c3nc(-c4c(C([H])([H])[H])c(-c5c([H])c([H])c(F)c([H])c5[H])nn4C([H])([H])[H])sc3c2[H])c1[H]
     RDKit          3D

 48 52  0  0  0  0  0  0  0  0999 V2000
   -3.1946    0.9304   -1.1066 C   0  0  0  0  0  0  0  0  0  0  0  0
   -3.2750    0.0395    0.0967 C   0  0  0  0  0  0  0  0  0  0  0  0
   -4.4507   -0.3705    0.7173 C   0  0  0  0  0  0  0  0  0  0  0  0
   -4.0706   -1.1521    1.7315 N   0  0  0  0  0  0  0  0  0  0  0  0
   -2.7313   -1.2432    1.7673 N   0  0  0  0  0  0  0  0  0  0  0  0
   -2.0187   -2.0215    2.7561 C   0  0  0  0  0  0  0  0  0  0  0  0
   -2.2167   -0.5171    0.7696 C   0  0  0  0  0  0  0  0  0  0  0  0
   -0.7945   -0.3462    0.4633 C   0  0  0  0  0  0  0  0  0  0  0  0
   -0.1962    0.3510   -0.4715 N   0  0  0  0  0  0  0  0  0  0  0  0
    1.1009    0.3701   -0.5693 C   0  0  0  0  0  0  0  0  0  0  0  0
    1.8451    1.0829   -1.5325 C   0  0  0  0  0  0  0  0  0  0  0  0
    3.1939    1.0119   -1.5163 C   0  0  0  0  0  0  0  0  0  0  0  0
    3.9440    0.2680   -0.5969 C   0  0  0  0  0  0  0  0  0  0  0  0
    5.3346    0.2520   -0.6762 N   0  0  0  0  0  0  0  0  0  0  0  0
    6.2721   -0.2511    0.2519 C   0  0  0  0  0  0  0  0  0  0  0  0
    5.8850   -0.7633    1.3174 O   0  0  0  0  0  0  0  0  0  0  0  0
    7.7374   -0.1683   -0.0451 C   0  0  0  0  0  0  0  0  0  0  0  0
    8.2362    0.0500   -1.2695 C   0  0  0  0  0  0  0  0  0  0  0  0
    9.5943    0.1109   -1.4014 C   0  0  0  0  0  0  0  0  0  0  0  0
   10.1464   -0.1384    0.1892 S   0  0  0  0  0  0  0  0  0  0  0  0
    8.6437   -0.3127    0.9771 C   0  0  0  0  0  0  0  0  0  0  0  0
    3.2207   -0.4152    0.3261 C   0  0  0  0  0  0  0  0  0  0  0  0
    1.8127   -0.3633    0.3384 C   0  0  0  0  0  0  0  0  0  0  0  0
    0.5651   -1.0428    1.2869 S   0  0  0  0  0  0  0  0  0  0  0  0
   -5.7882    0.0228    0.2781 C   0  0  0  0  0  0  0  0  0  0  0  0
   -6.7954   -0.9228    0.1595 C   0  0  0  0  0  0  0  0  0  0  0  0
   -8.0568   -0.5673   -0.2413 C   0  0  0  0  0  0  0  0  0  0  0  0
   -8.3905    0.7358   -0.5456 C   0  0  0  0  0  0  0  0  0  0  0  0
   -9.6409    1.0780   -0.9413 F   0  0  0  0  0  0  0  0  0  0  0  0
   -7.3767    1.6674   -0.4229 C   0  0  0  0  0  0  0  0  0  0  0  0
   -6.1075    1.3277   -0.0225 C   0  0  0  0  0  0  0  0  0  0  0  0
   -2.9248    1.9563   -0.8041 H   0  0  0  0  0  0  0  0  0  0  0  0
   -4.1281    0.8704   -1.7045 H   0  0  0  0  0  0  0  0  0  0  0  0
   -2.3705    0.5762   -1.7901 H   0  0  0  0  0  0  0  0  0  0  0  0
   -1.2836   -1.3289    3.2605 H   0  0  0  0  0  0  0  0  0  0  0  0
   -1.3889   -2.7872    2.2595 H   0  0  0  0  0  0  0  0  0  0  0  0
   -2.6936   -2.4220    3.5153 H   0  0  0  0  0  0  0  0  0  0  0  0
    1.3689    1.6906   -2.2912 H   0  0  0  0  0  0  0  0  0  0  0  0
    3.7610    1.5639   -2.2602 H   0  0  0  0  0  0  0  0  0  0  0  0
    5.7698    0.6808   -1.5666 H   0  0  0  0  0  0  0  0  0  0  0  0
    7.6018    0.1790   -2.1718 H   0  0  0  0  0  0  0  0  0  0  0  0
   10.1693    0.2821   -2.3295 H   0  0  0  0  0  0  0  0  0  0  0  0
    8.4289   -0.4969    2.0491 H   0  0  0  0  0  0  0  0  0  0  0  0
    3.6444   -1.0254    1.0780 H   0  0  0  0  0  0  0  0  0  0  0  0
   -6.5692   -1.9558    0.3903 H   0  0  0  0  0  0  0  0  0  0  0  0
   -8.8458   -1.3159   -0.3329 H   0  0  0  0  0  0  0  0  0  0  0  0
   -7.5980    2.7196   -0.6555 H   0  0  0  0  0  0  0  0  0  0  0  0
   -5.3696    2.1109    0.0496 H   0  0  0  0  0  0  0  0  0  0  0  0
  1  2  1  0
  2  3  1  0
  3  4  2  0
  4  5  1  0
  5  6  1  0
  5  7  1  0
  7  8  1  0
  8  9  2  0
  9 10  1  0
 10 11  2  0
 11 12  1  0
 12 13  2  0
 13 14  1  0
 14 15  1  0
 15 16  2  0
 15 17  1  0
 17 18  1  0
 18 19  2  0
 19 20  1  0
 20 21  1  0
 13 22  1  0
 22 23  2  0
 23 24  1  0
  3 25  1  0
 25 26  2  0
 26 27  1  0
 27 28  2  0
 28 29  1  0
 28 30  1  0
 30 31  2  0
  7  2  2  0
 24  8  1  0
 31 25  1  0
 23 10  1  0
 21 17  2  0
  1 32  1  0
  1 33  1  0
  1 34  1  0
  6 35  1  0
  6 36  1  0
  6 37  1  0
 11 38  1  0
 12 39  1  0
 14 40  1  0
 18 41  1  0
 19 42  1  0
 21 43  1  0
 22 44  1  0
 26 45  1  0
 27 46  1  0
 30 47  1  0
 31 48  1  0
M  END
$$$$
[H]Cl.[H]Cl.[H]c1c(OC([H])([H])[H])c([H])c2oc(=O)c([H])c(C([H])([H])C([H])([H])C([H])([H])C([H])([H])C([H])([H])C([H])([H])[H])c2c1[H]
     RDKit          3D

 43 42  0  0  0  0  0  0  0  0999 V2000
    0.6866    0.0000    0.0000 Cl  0  0  0  0  0  0  0  0  0  0  0  0
    0.6866    0.0000    0.0000 Cl  0  0  0  0  0  0  0  0  0  0  0  0
   -4.9512   -2.0205    0.2448 C   0  0  0  0  0  0  0  0  0  0  0  0
   -3.6989   -1.3323   -0.3078 C   0  0  0  0  0  0  0  0  0  0  0  0
   -4.0081    0.1277   -0.4825 C   0  0  0  0  0  0  0  0  0  0  0  0
   -2.8685    0.9262   -1.0193 C   0  0  0  0  0  0  0  0  0  0  0  0
   -1.6500    0.8734   -0.1132 C   0  0  0  0  0  0  0  0  0  0  0  0
   -0.5863    1.7074   -0.7575 C   0  0  0  0  0  0  0  0  0  0  0  0
    0.6839    1.7718   -0.0173 C   0  0  0  0  0  0  0  0  0  0  0  0
    0.9839    2.8839    0.7405 C   0  0  0  0  0  0  0  0  0  0  0  0
    2.1734    2.8886    1.4225 C   0  0  0  0  0  0  0  0  0  0  0  0
    2.4439    3.9186    2.1202 O   0  0  0  0  0  0  0  0  0  0  0  0
    3.0185    1.8892    1.3782 O   0  0  0  0  0  0  0  0  0  0  0  0
    2.7638    0.7999    0.6577 C   0  0  0  0  0  0  0  0  0  0  0  0
    3.6859   -0.2430    0.6329 C   0  0  0  0  0  0  0  0  0  0  0  0
    3.4710   -1.3897   -0.0970 C   0  0  0  0  0  0  0  0  0  0  0  0
    4.3894   -2.4298   -0.1222 O   0  0  0  0  0  0  0  0  0  0  0  0
    5.5753   -2.2810    0.6347 C   0  0  0  0  0  0  0  0  0  0  0  0
    2.2893   -1.4464   -0.8030 C   0  0  0  0  0  0  0  0  0  0  0  0
    1.3667   -0.4165   -0.7851 C   0  0  0  0  0  0  0  0  0  0  0  0
    1.5851    0.7332   -0.0507 C   0  0  0  0  0  0  0  0  0  0  0  0
   -0.6866    0.0000    0.0000 H   0  0  0  0  0  0  0  0  0  0  0  0
   -0.6866    0.0000    0.0000 H   0  0  0  0  0  0  0  0  0  0  0  0
   -4.7605   -3.1049    0.3585 H   0  0  0  0  0  0  0  0  0  0  0  0
   -5.2658   -1.5406    1.1941 H   0  0  0  0  0  0  0  0  0  0  0  0
   -5.7878   -1.8164   -0.4779 H   0  0  0  0  0  0  0  0  0  0  0  0
   -3.4308   -1.8220   -1.2492 H   0  0  0  0  0  0  0  0  0  0  0  0
   -2.9059   -1.4948    0.4457 H   0  0  0  0  0  0  0  0  0  0  0  0
   -4.2869    0.5230    0.5172 H   0  0  0  0  0  0  0  0  0  0  0  0
   -4.8979    0.2558   -1.1287 H   0  0  0  0  0  0  0  0  0  0  0  0
   -3.1983    2.0016   -1.0122 H   0  0  0  0  0  0  0  0  0  0  0  0
   -2.6005    0.6850   -2.0572 H   0  0  0  0  0  0  0  0  0  0  0  0
   -1.3872   -0.1703    0.0837 H   0  0  0  0  0  0  0  0  0  0  0  0
   -1.9529    1.3120    0.8651 H   0  0  0  0  0  0  0  0  0  0  0  0
   -0.9450    2.7584   -0.8952 H   0  0  0  0  0  0  0  0  0  0  0  0
   -0.3775    1.2950   -1.7629 H   0  0  0  0  0  0  0  0  0  0  0  0
    0.2842    3.7386    0.7913 H   0  0  0  0  0  0  0  0  0  0  0  0
    4.6021   -0.1419    1.2105 H   0  0  0  0  0  0  0  0  0  0  0  0
    6.2849   -3.1136    0.4434 H   0  0  0  0  0  0  0  0  0  0  0  0
    6.0734   -1.3054    0.3770 H   0  0  0  0  0  0  0  0  0  0  0  0
    5.3434   -2.2087    1.7301 H   0  0  0  0  0  0  0  0  0  0  0  0
    2.0961   -2.3361   -1.3847 H   0  0  0  0  0  0  0  0  0  0  0  0
    0.4457   -0.4758   -1.3500 H   0  0  0  0  0  0  0  0  0  0  0  0
  3  4  1  0
  4  5  1  0
  5  6  1  0
  6  7  1  0
  7  8  1  0
  8  9  1  0
  9 10  2  0
 10 11  1  0
 11 12  2  0
 11 13  1  0
 13 14  1  0
 14 15  2  0
 15 16  1  0
 16 17  1  0
 17 18  1  0
 16 19  2  0
 19 20  1  0
 20 21  2  0
 21  9  1  0
 21 14  1  0
  1 22  1  0
  2 23  1  0
  3 24  1  0
  3 25  1  0
  3 26  1  0
  4 27  1  0
  4 28  1  0
  5 29  1  0
  5 30  1  0
  6 31  1  0
  6 32  1  0
  7 33  1  0
  7 34  1  0
  8 35  1  0
  8 36  1  0
 10 37  1  0
 15 38  1  0
 18 39  1  0
 18 40  1  0
 18 41  1  0
 19 42  1  0
 20 43  1  0
M  END
$$$$
[H]c1sc([H])c(-c2c([H])c([H])c(C([H])([H])N3c4c([H])c([H])c(C(=O)N5C([H])([H])C([H])([H])C([H])([H])[C@@]5([H])C([H])([H])[H])c([H])c4C(=O)C([H])(C([H])([H])n4nnn(-c5c([H])c([H])c([H])c([H])c5[H])c4=O)C3([H])[H])c([H])c2[H])c1[H]
     RDKit          3D

 76 82  0  0  0  0  0  0  0  0999 V2000
   -4.6185   -4.4302    2.0585 C   0  0  0  0  0  0  0  0  0  0  0  0
   -4.4884   -4.1824    0.5563 C   0  0  2  0  0  0  0  0  0  0  0  0
   -5.4678   -5.1861   -0.0914 C   0  0  0  0  0  0  0  0  0  0  0  0
   -4.5741   -6.2619   -0.6510 C   0  0  0  0  0  0  0  0  0  0  0  0
   -3.2327   -6.0380    0.0025 C   0  0  0  0  0  0  0  0  0  0  0  0
   -3.2314   -4.5583    0.0621 N   0  0  0  0  0  0  0  0  0  0  0  0
   -2.0813   -3.8371   -0.2986 C   0  0  0  0  0  0  0  0  0  0  0  0
   -1.0764   -4.5390   -0.7945 O   0  0  0  0  0  0  0  0  0  0  0  0
   -1.7964   -2.4366   -0.2227 C   0  0  0  0  0  0  0  0  0  0  0  0
   -2.5453   -1.4911    0.4220 C   0  0  0  0  0  0  0  0  0  0  0  0
   -2.2602   -0.1289    0.4294 C   0  0  0  0  0  0  0  0  0  0  0  0
   -1.1618    0.3331   -0.2432 C   0  0  0  0  0  0  0  0  0  0  0  0
   -0.8554    1.7280   -0.2430 N   0  0  0  0  0  0  0  0  0  0  0  0
   -1.6312    2.5805    0.6331 C   0  0  0  0  0  0  0  0  0  0  0  0
   -1.2446    3.9911    0.5846 C   0  0  0  0  0  0  0  0  0  0  0  0
   -1.7625    4.8864   -0.3393 C   0  0  0  0  0  0  0  0  0  0  0  0
   -1.3332    6.1836   -0.2956 C   0  0  0  0  0  0  0  0  0  0  0  0
   -0.4152    6.6489    0.6154 C   0  0  0  0  0  0  0  0  0  0  0  0
    0.0971    5.7620    1.5299 C   0  0  0  0  0  0  0  0  0  0  0  0
   -0.3181    4.4474    1.5087 C   0  0  0  0  0  0  0  0  0  0  0  0
    0.0185    8.0813    0.6178 C   0  0  0  0  0  0  0  0  0  0  0  0
   -0.7999    9.0893    0.2512 C   0  0  0  0  0  0  0  0  0  0  0  0
   -0.2897   10.3577    0.2961 C   0  0  0  0  0  0  0  0  0  0  0  0
    1.3019   10.1142    0.8428 S   0  0  0  0  0  0  0  0  0  0  0  0
    1.2895    8.4200    1.0027 C   0  0  0  0  0  0  0  0  0  0  0  0
    0.1730    2.2685   -1.0726 C   0  0  0  0  0  0  0  0  0  0  0  0
    1.2918    1.3016   -1.3889 C   0  0  0  0  0  0  0  0  0  0  0  0
    2.3538    1.2928   -0.3424 C   0  0  0  0  0  0  0  0  0  0  0  0
    3.4499    0.3832   -0.5926 N   0  0  0  0  0  0  0  0  0  0  0  0
    4.5488    0.6756   -1.3102 N   0  0  0  0  0  0  0  0  0  0  0  0
    5.3327   -0.3846   -1.3430 N   0  0  0  0  0  0  0  0  0  0  0  0
    4.7915   -1.3827   -0.6670 N   0  0  0  0  0  0  0  0  0  0  0  0
    3.6278   -0.8923   -0.2089 C   0  0  0  0  0  0  0  0  0  0  0  0
    2.8323   -1.5682    0.4877 O   0  0  0  0  0  0  0  0  0  0  0  0
    5.3739   -2.6697   -0.5026 C   0  0  0  0  0  0  0  0  0  0  0  0
    6.4446   -2.8846    0.3551 C   0  0  0  0  0  0  0  0  0  0  0  0
    7.0162   -4.1329    0.5195 C   0  0  0  0  0  0  0  0  0  0  0  0
    6.5356   -5.2252   -0.1732 C   0  0  0  0  0  0  0  0  0  0  0  0
    5.4720   -5.0123   -1.0252 C   0  0  0  0  0  0  0  0  0  0  0  0
    4.9004   -3.7673   -1.1906 C   0  0  0  0  0  0  0  0  0  0  0  0
    0.7813   -0.0708   -1.6136 C   0  0  0  0  0  0  0  0  0  0  0  0
    1.3662   -0.8104   -2.4410 O   0  0  0  0  0  0  0  0  0  0  0  0
   -0.3796   -0.5898   -0.9055 C   0  0  0  0  0  0  0  0  0  0  0  0
   -0.6774   -1.9355   -0.9025 C   0  0  0  0  0  0  0  0  0  0  0  0
   -5.2124   -3.6082    2.5077 H   0  0  0  0  0  0  0  0  0  0  0  0
   -5.1497   -5.3726    2.2856 H   0  0  0  0  0  0  0  0  0  0  0  0
   -3.6130   -4.3889    2.5462 H   0  0  0  0  0  0  0  0  0  0  0  0
   -4.8516   -3.1575    0.2971 H   0  0  0  0  0  0  0  0  0  0  0  0
   -6.1813   -5.5728    0.6388 H   0  0  0  0  0  0  0  0  0  0  0  0
   -5.9654   -4.6372   -0.9284 H   0  0  0  0  0  0  0  0  0  0  0  0
   -4.4248   -6.0819   -1.7459 H   0  0  0  0  0  0  0  0  0  0  0  0
   -4.9544   -7.2905   -0.4523 H   0  0  0  0  0  0  0  0  0  0  0  0
   -3.3056   -6.4344    1.0363 H   0  0  0  0  0  0  0  0  0  0  0  0
   -2.3983   -6.4407   -0.5655 H   0  0  0  0  0  0  0  0  0  0  0  0
   -3.4009   -1.7622    0.9986 H   0  0  0  0  0  0  0  0  0  0  0  0
   -2.8900    0.5800    0.9582 H   0  0  0  0  0  0  0  0  0  0  0  0
   -2.7182    2.5325    0.4149 H   0  0  0  0  0  0  0  0  0  0  0  0
   -1.4945    2.2044    1.6667 H   0  0  0  0  0  0  0  0  0  0  0  0
   -2.4804    4.4937   -1.0413 H   0  0  0  0  0  0  0  0  0  0  0  0
   -1.7283    6.8768   -1.0041 H   0  0  0  0  0  0  0  0  0  0  0  0
    0.8337    6.0981    2.2740 H   0  0  0  0  0  0  0  0  0  0  0  0
    0.1044    3.7720    2.2432 H   0  0  0  0  0  0  0  0  0  0  0  0
   -1.8563    8.9201   -0.0799 H   0  0  0  0  0  0  0  0  0  0  0  0
   -0.8266   11.2899    0.0294 H   0  0  0  0  0  0  0  0  0  0  0  0
    2.0922    7.7284    1.3336 H   0  0  0  0  0  0  0  0  0  0  0  0
   -0.2524    2.6363   -2.0519 H   0  0  0  0  0  0  0  0  0  0  0  0
    0.6510    3.1621   -0.6224 H   0  0  0  0  0  0  0  0  0  0  0  0
    1.7535    1.6404   -2.3388 H   0  0  0  0  0  0  0  0  0  0  0  0
    2.7688    2.3189   -0.1486 H   0  0  0  0  0  0  0  0  0  0  0  0
    1.9409    0.9875    0.6626 H   0  0  0  0  0  0  0  0  0  0  0  0
    6.8135   -2.0342    0.8898 H   0  0  0  0  0  0  0  0  0  0  0  0
    7.8629   -4.2966    1.1991 H   0  0  0  0  0  0  0  0  0  0  0  0
    6.9863   -6.2025   -0.0416 H   0  0  0  0  0  0  0  0  0  0  0  0
    5.0993   -5.8610   -1.5628 H   0  0  0  0  0  0  0  0  0  0  0  0
    4.0601   -3.6243   -1.8700 H   0  0  0  0  0  0  0  0  0  0  0  0
   -0.0203   -2.6048   -1.4448 H   0  0  0  0  0  0  0  0  0  0  0  0
  1  2  1  0
  2  3  1  0
  3  4  1  0
  4  5  1  0
  5  6  1  0
  6  7  1  0
  7  8  2  0
  7  9  1  0
  9 10  2  0
 10 11  1  0
 11 12  2  0
 12 13  1  0
 13 14  1  0
 14 15  1  0
 15 16  2  0
 16 17  1  0
 17 18  2  0
 18 19  1  0
 19 20  2  0
 18 21  1  0
 21 22  1  0
 22 23  2  0
 23 24  1  0
 24 25  1  0
 13 26  1  0
 26 27  1  0
 27 28  1  0
 28 29  1  0
 29 30  1  0
 30 31  2  0
 31 32  1  0
 32 33  1  0
 33 34  2  0
 32 35  1  0
 35 36  2  0
 36 37  1  0
 37 38  2  0
 38 39  1  0
 39 40  2  0
 27 41  1  0
 41 42  2  0
 41 43  1  0
 43 44  2  0
  6  2  1  0
 44  9  1  0
 43 12  1  0
 20 15  1  0
 25 21  2  0
 33 29  1  0
 40 35  1  0
  1 45  1  0
  1 46  1  0
  1 47  1  0
  2 48  1  1
  3 49  1  0
  3 50  1  0
  4 51  1  0
  4 52  1  0
  5 53  1  0
  5 54  1  0
 10 55  1  0
 11 56  1  0
 14 57  1  0
 14 58  1  0
 16 59  1  0
 17 60  1  0
 19 61  1  0
 20 62  1  0
 22 63  1  0
 23 64  1  0
 25 65  1  0
 26 66  1  0
 26 67  1  0
 27 68  1  0
 28 69  1  0
 28 70  1  0
 36 71  1  0
 37 72  1  0
 38 73  1  0
 39 74  1  0
 40 75  1  0
 44 76  1  0
M  END
$$$$
[H]N([H])c1nc2c(c(N([H])[H])c1C(=O)N([H])[C@@]1([H])C([H])([H])[C@@]3([H])N(C([H])([H])C([H])([H])[H])[C@]([H])(C([H])([H])C3([H])[H])C1([H])[H])OC([H])([H])O2
     RDKit          3D

 47 50  0  0  0  0  0  0  0  0999 V2000
    4.5014    0.9897    2.0934 C   0  0  0  0  0  0  0  0  0  0  0  0
    4.3419   -0.1037    1.0551 C   0  0  0  0  0  0  0  0  0  0  0  0
    2.9840   -0.0349    0.5619 N   0  0  0  0  0  0  0  0  0  0  0  0
    2.8437    1.1978   -0.1913 C   0  0  1  0  0  0  0  0  0  0  0  0
    3.5407    0.9069   -1.5173 C   0  0  0  0  0  0  0  0  0  0  0  0
    3.6758   -0.5991   -1.5671 C   0  0  0  0  0  0  0  0  0  0  0  0
    2.7715   -1.0382   -0.4333 C   0  0  2  0  0  0  0  0  0  0  0  0
    1.3676   -1.0643   -0.9840 C   0  0  0  0  0  0  0  0  0  0  0  0
    0.7853    0.2774   -1.2127 C   0  0  2  0  0  0  0  0  0  0  0  0
    1.3405    1.3873   -0.4051 C   0  0  0  0  0  0  0  0  0  0  0  0
   -0.6656    0.2262   -1.0608 N   0  0  0  0  0  0  0  0  0  0  0  0
   -1.2698   -0.1417    0.1278 C   0  0  0  0  0  0  0  0  0  0  0  0
   -0.4479   -0.4323    1.0844 O   0  0  0  0  0  0  0  0  0  0  0  0
   -2.6586   -0.2528    0.4706 C   0  0  0  0  0  0  0  0  0  0  0  0
   -2.9824   -0.6524    1.7856 C   0  0  0  0  0  0  0  0  0  0  0  0
   -1.9148   -0.9128    2.6827 N   0  0  0  0  0  0  0  0  0  0  0  0
   -4.2612   -0.7788    2.1710 N   0  0  0  0  0  0  0  0  0  0  0  0
   -5.2694   -0.5282    1.3162 C   0  0  0  0  0  0  0  0  0  0  0  0
   -6.6638   -0.5716    1.4250 O   0  0  0  0  0  0  0  0  0  0  0  0
   -7.2170   -0.6074    0.1244 C   0  0  0  0  0  0  0  0  0  0  0  0
   -6.2241    0.0547   -0.6374 O   0  0  0  0  0  0  0  0  0  0  0  0
   -5.0096   -0.1368    0.0273 C   0  0  0  0  0  0  0  0  0  0  0  0
   -3.6810    0.0077   -0.4176 C   0  0  0  0  0  0  0  0  0  0  0  0
   -3.4895    0.4155   -1.7640 N   0  0  0  0  0  0  0  0  0  0  0  0
    3.5644    1.1397    2.6700 H   0  0  0  0  0  0  0  0  0  0  0  0
    5.3061    0.7190    2.7986 H   0  0  0  0  0  0  0  0  0  0  0  0
    4.8138    1.9589    1.6293 H   0  0  0  0  0  0  0  0  0  0  0  0
    5.0993    0.0797    0.2677 H   0  0  0  0  0  0  0  0  0  0  0  0
    4.5337   -1.0680    1.5530 H   0  0  0  0  0  0  0  0  0  0  0  0
    3.2565    2.0713    0.3107 H   0  0  0  0  0  0  0  0  0  0  0  0
    4.5392    1.3825   -1.4818 H   0  0  0  0  0  0  0  0  0  0  0  0
    2.9095    1.2835   -2.3293 H   0  0  0  0  0  0  0  0  0  0  0  0
    3.2462   -0.9699   -2.5028 H   0  0  0  0  0  0  0  0  0  0  0  0
    4.7121   -0.9503   -1.4481 H   0  0  0  0  0  0  0  0  0  0  0  0
    3.0237   -2.0278   -0.0374 H   0  0  0  0  0  0  0  0  0  0  0  0
    1.4852   -1.5355   -2.0166 H   0  0  0  0  0  0  0  0  0  0  0  0
    0.7341   -1.7862   -0.4489 H   0  0  0  0  0  0  0  0  0  0  0  0
    0.9454    0.6018   -2.3030 H   0  0  0  0  0  0  0  0  0  0  0  0
    0.8815    1.4538    0.5814 H   0  0  0  0  0  0  0  0  0  0  0  0
    1.1551    2.3602   -0.9357 H   0  0  0  0  0  0  0  0  0  0  0  0
   -1.2544    0.4862   -1.9091 H   0  0  0  0  0  0  0  0  0  0  0  0
   -1.5360   -1.8986    2.7302 H   0  0  0  0  0  0  0  0  0  0  0  0
   -1.4801   -0.1933    3.3005 H   0  0  0  0  0  0  0  0  0  0  0  0
   -7.2888   -1.6760   -0.1611 H   0  0  0  0  0  0  0  0  0  0  0  0
   -8.1960   -0.0893    0.0700 H   0  0  0  0  0  0  0  0  0  0  0  0
   -3.4441    1.4112   -2.0093 H   0  0  0  0  0  0  0  0  0  0  0  0
   -3.4039   -0.3610   -2.4715 H   0  0  0  0  0  0  0  0  0  0  0  0
  1  2  1  0
  2  3  1  0
  3  4  1  0
  4  5  1  0
  5  6  1  0
  6  7  1  0
  7  8  1  0
  8  9  1  0
  9 10  1  0
  9 11  1  0
 11 12  1  0
 12 13  2  0
 12 14  1  0
 14 15  2  0
 15 16  1  0
 15 17  1  0
 17 18  2  0
 18 19  1  0
 19 20  1  0
 20 21  1  0
 21 22  1  0
 22 23  2  0
 23 24  1  0
  7  3  1  0
 23 14  1  0
 10  4  1  0
 22 18  1  0
  1 25  1  0
  1 26  1  0
  1 27  1  0
  2 28  1  0
  2 29  1  0
  4 30  1  1
  5 31  1  0
  5 32  1  0
  6 33  1  0
  6 34  1  0
  7 35  1  1
  8 36  1  0
  8 37  1  0
  9 38  1  6
 10 39  1  0
 10 40  1  0
 11 41  1  0
 16 42  1  0
 16 43  1  0
 20 44  1  0
 20 45  1  0
 24 46  1  0
 24 47  1  0
M  END
$$$$
