[H]O[C@@]1(C#Cc2c([H])c3c(c([H])c2F)C2([H])C([H])([H])C([H])(c4c-3nc(C(=O)N([H])[H])n4C([H])([H])[H])C2([H])[H])C(=O)N(C([H])([H])[H])C([H])([H])C1([H])[H]
     RDKit          3D

 51 55  0  0  0  0  0  0  0  0999 V2000
    6.1211    3.1005    1.1064 C   0  0  0  0  0  0  0  0  0  0  0  0
    5.6654    1.8093    0.6350 N   0  0  0  0  0  0  0  0  0  0  0  0
    6.0772    1.1522   -0.5851 C   0  0  0  0  0  0  0  0  0  0  0  0
    5.5111   -0.2290   -0.5130 C   0  0  0  0  0  0  0  0  0  0  0  0
    4.7798   -0.3582    0.7926 C   0  0  2  0  0  0  0  0  0  0  0  0
    5.4377   -1.1793    1.7007 O   0  0  0  0  0  0  0  0  0  0  0  0
    3.3795   -0.7940    0.5874 C   0  0  0  0  0  0  0  0  0  0  0  0
    2.2417   -1.1645    0.4322 C   0  0  0  0  0  0  0  0  0  0  0  0
    0.8811   -1.6251    0.2642 C   0  0  0  0  0  0  0  0  0  0  0  0
   -0.1383   -0.6971    0.2201 C   0  0  0  0  0  0  0  0  0  0  0  0
   -1.4188   -1.1226    0.0624 C   0  0  0  0  0  0  0  0  0  0  0  0
   -2.4105   -0.0264    0.0321 C   0  0  0  0  0  0  0  0  0  0  0  0
   -2.1393    1.2803    0.1464 N   0  0  0  0  0  0  0  0  0  0  0  0
   -3.2950    1.9638    0.0722 C   0  0  0  0  0  0  0  0  0  0  0  0
   -3.4729    3.4265    0.1497 C   0  0  0  0  0  0  0  0  0  0  0  0
   -2.3792    4.3007    0.3232 N   0  0  0  0  0  0  0  0  0  0  0  0
   -4.6220    3.9257    0.0608 O   0  0  0  0  0  0  0  0  0  0  0  0
   -4.2998    1.0714   -0.0903 N   0  0  0  0  0  0  0  0  0  0  0  0
   -5.7223    1.3787   -0.2156 C   0  0  0  0  0  0  0  0  0  0  0  0
   -3.7940   -0.1504   -0.1188 C   0  0  0  0  0  0  0  0  0  0  0  0
   -4.5250   -1.4596   -0.2816 C   0  0  0  0  0  0  0  0  0  0  0  0
   -3.8117   -2.3305   -1.3260 C   0  0  0  0  0  0  0  0  0  0  0  0
   -3.0620   -3.0941   -0.2316 C   0  0  0  0  0  0  0  0  0  0  0  0
   -4.0283   -2.4734    0.7548 C   0  0  0  0  0  0  0  0  0  0  0  0
   -1.6924   -2.4848   -0.0529 C   0  0  0  0  0  0  0  0  0  0  0  0
   -0.6947   -3.4081   -0.0107 C   0  0  0  0  0  0  0  0  0  0  0  0
    0.5989   -2.9707    0.1491 C   0  0  0  0  0  0  0  0  0  0  0  0
    1.5954   -3.8855    0.1917 F   0  0  0  0  0  0  0  0  0  0  0  0
    4.7272    1.0079    1.3401 C   0  0  0  0  0  0  0  0  0  0  0  0
    3.9828    1.4257    2.2790 O   0  0  0  0  0  0  0  0  0  0  0  0
    6.7266    2.9159    2.0297 H   0  0  0  0  0  0  0  0  0  0  0  0
    6.7684    3.6153    0.3835 H   0  0  0  0  0  0  0  0  0  0  0  0
    5.2526    3.7253    1.3968 H   0  0  0  0  0  0  0  0  0  0  0  0
    5.6719    1.6793   -1.4733 H   0  0  0  0  0  0  0  0  0  0  0  0
    7.2001    1.1542   -0.6170 H   0  0  0  0  0  0  0  0  0  0  0  0
    6.3571   -0.9690   -0.5897 H   0  0  0  0  0  0  0  0  0  0  0  0
    4.8494   -0.4677   -1.3930 H   0  0  0  0  0  0  0  0  0  0  0  0
    5.4099   -2.0999    1.3161 H   0  0  0  0  0  0  0  0  0  0  0  0
    0.0908    0.3348    0.3097 H   0  0  0  0  0  0  0  0  0  0  0  0
   -2.3660    4.9471    1.1258 H   0  0  0  0  0  0  0  0  0  0  0  0
   -1.6022    4.2864   -0.3534 H   0  0  0  0  0  0  0  0  0  0  0  0
   -6.3377    0.4676   -0.1513 H   0  0  0  0  0  0  0  0  0  0  0  0
   -6.0535    2.0148    0.6422 H   0  0  0  0  0  0  0  0  0  0  0  0
   -5.8466    1.8991   -1.1853 H   0  0  0  0  0  0  0  0  0  0  0  0
   -5.5966   -1.3927   -0.4027 H   0  0  0  0  0  0  0  0  0  0  0  0
   -3.1167   -1.7195   -1.9089 H   0  0  0  0  0  0  0  0  0  0  0  0
   -4.4990   -2.9613   -1.9062 H   0  0  0  0  0  0  0  0  0  0  0  0
   -3.0554   -4.1715   -0.3175 H   0  0  0  0  0  0  0  0  0  0  0  0
   -4.8340   -3.1998    0.9763 H   0  0  0  0  0  0  0  0  0  0  0  0
   -3.5471   -1.9988    1.6338 H   0  0  0  0  0  0  0  0  0  0  0  0
   -0.9651   -4.4494   -0.1051 H   0  0  0  0  0  0  0  0  0  0  0  0
  1  2  1  0
  2  3  1  0
  3  4  1  0
  4  5  1  0
  5  6  1  0
  5  7  1  6
  7  8  3  0
  8  9  1  0
  9 10  1  0
 10 11  2  0
 11 12  1  0
 12 13  1  0
 13 14  2  0
 14 15  1  0
 15 16  1  0
 15 17  2  0
 14 18  1  0
 18 19  1  0
 18 20  1  0
 20 21  1  0
 21 22  1  0
 22 23  1  0
 23 24  1  0
 23 25  1  0
 25 26  2  0
 26 27  1  0
 27 28  1  0
  5 29  1  0
 29 30  2  0
 29  2  1  0
 27  9  2  0
 25 11  1  0
 20 12  2  0
 24 21  1  0
  1 31  1  0
  1 32  1  0
  1 33  1  0
  3 34  1  0
  3 35  1  0
  4 36  1  0
  4 37  1  0
  6 38  1  0
 10 39  1  0
 16 40  1  0
 16 41  1  0
 19 42  1  0
 19 43  1  0
 19 44  1  0
 21 45  1  0
 22 46  1  0
 22 47  1  0
 23 48  1  0
 24 49  1  0
 24 50  1  0
 26 51  1  0
M  END
$$$$
[H]O[C@]1(C#Cc2c([H])c([H])c([H])c(-c3nc(C(=O)N([H])[H])n4c([H])c([H])c([H])c([H])c34)c2[H])C(=O)N(C([H])([H])[H])C([H])([H])C1([H])[H]
     RDKit          3D

 46 49  0  0  0  0  0  0  0  0999 V2000
    7.2002    2.0717   -0.5711 C   0  0  0  0  0  0  0  0  0  0  0  0
    6.1335    1.1039   -0.7526 N   0  0  0  0  0  0  0  0  0  0  0  0
    6.2688   -0.1626   -1.4529 C   0  0  0  0  0  0  0  0  0  0  0  0
    4.9451   -0.8412   -1.3002 C   0  0  0  0  0  0  0  0  0  0  0  0
    3.9746    0.3060   -1.0885 C   0  0  1  0  0  0  0  0  0  0  0  0
    3.5469    0.8664   -2.2728 O   0  0  0  0  0  0  0  0  0  0  0  0
    2.8134   -0.1274   -0.2969 C   0  0  0  0  0  0  0  0  0  0  0  0
    1.8598   -0.5052    0.3521 C   0  0  0  0  0  0  0  0  0  0  0  0
    0.7322   -0.9756    1.1109 C   0  0  0  0  0  0  0  0  0  0  0  0
    0.8665   -1.6659    2.2973 C   0  0  0  0  0  0  0  0  0  0  0  0
   -0.2142   -2.1155    3.0224 C   0  0  0  0  0  0  0  0  0  0  0  0
   -1.4815   -1.8789    2.5662 C   0  0  0  0  0  0  0  0  0  0  0  0
   -1.6827   -1.1964    1.3904 C   0  0  0  0  0  0  0  0  0  0  0  0
   -0.5790   -0.7608    0.6897 C   0  0  0  0  0  0  0  0  0  0  0  0
   -3.0377   -0.9441    0.8824 C   0  0  0  0  0  0  0  0  0  0  0  0
   -4.0404   -1.8019    0.7732 N   0  0  0  0  0  0  0  0  0  0  0  0
   -5.1420   -1.1758    0.2612 C   0  0  0  0  0  0  0  0  0  0  0  0
   -6.4177   -1.8309    0.0130 C   0  0  0  0  0  0  0  0  0  0  0  0
   -7.5692   -1.2081   -0.5147 N   0  0  0  0  0  0  0  0  0  0  0  0
   -6.5446   -3.0739    0.2828 O   0  0  0  0  0  0  0  0  0  0  0  0
   -4.7985    0.0965    0.0543 N   0  0  0  0  0  0  0  0  0  0  0  0
   -5.4730    1.1560   -0.4253 C   0  0  0  0  0  0  0  0  0  0  0  0
   -4.9191    2.4109   -0.5567 C   0  0  0  0  0  0  0  0  0  0  0  0
   -3.6099    2.5843   -0.1767 C   0  0  0  0  0  0  0  0  0  0  0  0
   -2.8808    1.5060    0.3251 C   0  0  0  0  0  0  0  0  0  0  0  0
   -3.4929    0.2729    0.4318 C   0  0  0  0  0  0  0  0  0  0  0  0
    4.7921    1.2393   -0.2766 C   0  0  0  0  0  0  0  0  0  0  0  0
    4.4602    2.0139    0.6450 O   0  0  0  0  0  0  0  0  0  0  0  0
    7.2785    2.7495   -1.4702 H   0  0  0  0  0  0  0  0  0  0  0  0
    7.1077    2.6445    0.3670 H   0  0  0  0  0  0  0  0  0  0  0  0
    8.1746    1.5336   -0.5273 H   0  0  0  0  0  0  0  0  0  0  0  0
    6.5540   -0.0218   -2.5218 H   0  0  0  0  0  0  0  0  0  0  0  0
    7.0901   -0.7136   -0.9080 H   0  0  0  0  0  0  0  0  0  0  0  0
    4.9562   -1.4200   -0.3463 H   0  0  0  0  0  0  0  0  0  0  0  0
    4.6757   -1.4639   -2.1638 H   0  0  0  0  0  0  0  0  0  0  0  0
    2.5746    0.7324   -2.3853 H   0  0  0  0  0  0  0  0  0  0  0  0
    1.8785   -1.8457    2.6464 H   0  0  0  0  0  0  0  0  0  0  0  0
   -0.1023   -2.6576    3.9542 H   0  0  0  0  0  0  0  0  0  0  0  0
   -2.3682   -2.2162    3.1069 H   0  0  0  0  0  0  0  0  0  0  0  0
   -0.6709   -0.2216   -0.2501 H   0  0  0  0  0  0  0  0  0  0  0  0
   -8.3880   -1.0197    0.0738 H   0  0  0  0  0  0  0  0  0  0  0  0
   -7.5533   -0.9483   -1.5235 H   0  0  0  0  0  0  0  0  0  0  0  0
   -6.4993    1.0649   -0.7342 H   0  0  0  0  0  0  0  0  0  0  0  0
   -5.4569    3.2694   -0.9426 H   0  0  0  0  0  0  0  0  0  0  0  0
   -3.1104    3.5440   -0.2524 H   0  0  0  0  0  0  0  0  0  0  0  0
   -1.8506    1.6265    0.6332 H   0  0  0  0  0  0  0  0  0  0  0  0
  1  2  1  0
  2  3  1  0
  3  4  1  0
  4  5  1  0
  5  6  1  0
  5  7  1  1
  7  8  3  0
  8  9  1  0
  9 10  2  0
 10 11  1  0
 11 12  2  0
 12 13  1  0
 13 14  2  0
 13 15  1  0
 15 16  1  0
 16 17  2  0
 17 18  1  0
 18 19  1  0
 18 20  2  0
 17 21  1  0
 21 22  1  0
 22 23  2  0
 23 24  1  0
 24 25  2  0
 25 26  1  0
  5 27  1  0
 27 28  2  0
 27  2  1  0
 14  9  1  0
 26 15  2  0
 26 21  1  0
  1 29  1  0
  1 30  1  0
  1 31  1  0
  3 32  1  0
  3 33  1  0
  4 34  1  0
  4 35  1  0
  6 36  1  0
 10 37  1  0
 11 38  1  0
 12 39  1  0
 14 40  1  0
 19 41  1  0
 19 42  1  0
 22 43  1  0
 23 44  1  0
 24 45  1  0
 25 46  1  0
M  END
$$$$
[H]O[C@@]1([H])c2c([H])c(C(=O)N([H])[H])nn2-c2c([H])c(C#C[C@@](O[H])(c3noc(C([H])([H])[H])c3[H])C([H])([H])[H])c([H])c([H])c2OC1([H])[H]
     RDKit          3D

 47 50  0  0  0  0  0  0  0  0999 V2000
    6.4929    3.4105    0.5874 C   0  0  0  0  0  0  0  0  0  0  0  0
    5.5889    2.3612    0.0576 C   0  0  0  0  0  0  0  0  0  0  0  0
    5.5588    1.0519    0.4567 C   0  0  0  0  0  0  0  0  0  0  0  0
    4.5714    0.4737   -0.3239 C   0  0  0  0  0  0  0  0  0  0  0  0
    4.0824    1.4260   -1.1103 N   0  0  0  0  0  0  0  0  0  0  0  0
    4.6867    2.5471   -0.8798 O   0  0  0  0  0  0  0  0  0  0  0  0
    4.2014   -0.9297   -0.2458 C   0  0  2  0  0  0  0  0  0  0  0  0
    4.9154   -1.6368    0.9168 C   0  0  0  0  0  0  0  0  0  0  0  0
    4.6643   -1.6552   -1.3848 O   0  0  0  0  0  0  0  0  0  0  0  0
    2.7613   -1.0819   -0.1084 C   0  0  0  0  0  0  0  0  0  0  0  0
    1.5865   -1.2719   -0.0040 C   0  0  0  0  0  0  0  0  0  0  0  0
    0.1861   -1.5769    0.1063 C   0  0  0  0  0  0  0  0  0  0  0  0
   -0.2125   -2.9050    0.3518 C   0  0  0  0  0  0  0  0  0  0  0  0
   -1.5409   -3.2806    0.4277 C   0  0  0  0  0  0  0  0  0  0  0  0
   -2.5079   -2.3557    0.2613 C   0  0  0  0  0  0  0  0  0  0  0  0
   -3.8162   -2.8065    0.3425 O   0  0  0  0  0  0  0  0  0  0  0  0
   -5.0061   -2.3499   -0.2647 C   0  0  0  0  0  0  0  0  0  0  0  0
   -4.8175   -1.3395   -1.3650 C   0  0  1  0  0  0  0  0  0  0  0  0
   -6.0911   -1.0012   -1.8311 O   0  0  0  0  0  0  0  0  0  0  0  0
   -4.1853   -0.0671   -0.8708 C   0  0  0  0  0  0  0  0  0  0  0  0
   -4.7345    1.1863   -0.9569 C   0  0  0  0  0  0  0  0  0  0  0  0
   -3.7862    2.0140   -0.3264 C   0  0  0  0  0  0  0  0  0  0  0  0
   -2.7355    1.2969    0.1031 N   0  0  0  0  0  0  0  0  0  0  0  0
   -2.9866    0.0628   -0.2286 N   0  0  0  0  0  0  0  0  0  0  0  0
   -2.1169   -1.0421    0.0185 C   0  0  0  0  0  0  0  0  0  0  0  0
   -0.7901   -0.6412   -0.0596 C   0  0  0  0  0  0  0  0  0  0  0  0
   -4.0517    3.4536   -0.2556 C   0  0  0  0  0  0  0  0  0  0  0  0
   -3.8848    4.1177    0.9965 N   0  0  0  0  0  0  0  0  0  0  0  0
   -4.4348    4.0848   -1.2620 O   0  0  0  0  0  0  0  0  0  0  0  0
    7.2480    2.9414    1.2601 H   0  0  0  0  0  0  0  0  0  0  0  0
    7.0925    3.8196   -0.2663 H   0  0  0  0  0  0  0  0  0  0  0  0
    5.9288    4.2379    1.0273 H   0  0  0  0  0  0  0  0  0  0  0  0
    6.1826    0.5726    1.2264 H   0  0  0  0  0  0  0  0  0  0  0  0
    4.3954   -2.5980    1.0639 H   0  0  0  0  0  0  0  0  0  0  0  0
    5.9364   -1.8329    0.5898 H   0  0  0  0  0  0  0  0  0  0  0  0
    4.9424   -1.0183    1.8261 H   0  0  0  0  0  0  0  0  0  0  0  0
    3.9498   -2.3163   -1.5621 H   0  0  0  0  0  0  0  0  0  0  0  0
    0.5935   -3.6231    0.4878 H   0  0  0  0  0  0  0  0  0  0  0  0
   -1.7977   -4.3092    0.6157 H   0  0  0  0  0  0  0  0  0  0  0  0
   -5.6287   -1.8731    0.5235 H   0  0  0  0  0  0  0  0  0  0  0  0
   -5.4913   -3.2498   -0.7099 H   0  0  0  0  0  0  0  0  0  0  0  0
   -4.2138   -1.8022   -2.1854 H   0  0  0  0  0  0  0  0  0  0  0  0
   -6.7065   -1.0634   -1.0417 H   0  0  0  0  0  0  0  0  0  0  0  0
   -5.6769    1.4565   -1.3998 H   0  0  0  0  0  0  0  0  0  0  0  0
   -0.5417    0.4061   -0.2419 H   0  0  0  0  0  0  0  0  0  0  0  0
   -4.6808    3.9861    1.7148 H   0  0  0  0  0  0  0  0  0  0  0  0
   -3.1299    4.7211    1.3369 H   0  0  0  0  0  0  0  0  0  0  0  0
  1  2  1  0
  2  3  2  0
  3  4  1  0
  4  5  2  0
  5  6  1  0
  4  7  1  0
  7  8  1  0
  7  9  1  0
  7 10  1  1
 10 11  3  0
 11 12  1  0
 12 13  2  0
 13 14  1  0
 14 15  2  0
 15 16  1  0
 16 17  1  0
 17 18  1  0
 18 19  1  0
 18 20  1  0
 20 21  2  0
 21 22  1  0
 22 23  2  0
 23 24  1  0
 24 25  1  0
 25 26  2  0
 22 27  1  0
 27 28  1  0
 27 29  2  0
  6  2  1  0
 26 12  1  0
 25 15  1  0
 24 20  1  0
  1 30  1  0
  1 31  1  0
  1 32  1  0
  3 33  1  0
  8 34  1  0
  8 35  1  0
  8 36  1  0
  9 37  1  0
 13 38  1  0
 14 39  1  0
 17 40  1  0
 17 41  1  0
 18 42  1  6
 19 43  1  0
 21 44  1  0
 26 45  1  0
 28 46  1  0
 28 47  1  0
M  END
$$$$
[H]OC([H])([H])[C@]1(C([H])([H])[H])c2c([H])c(-c3nc(N([H])c4c([H])c(C(=O)N([H])C([H])([H])[H])c([H])c([H])c4C([H])([H])[H])nc([H])c3[H])c([H])c(C#N)c2N([H])C1([H])[H]
     RDKit          3D

 56 59  0  0  0  0  0  0  0  0999 V2000
    7.0084    1.3515   -3.3242 C   0  0  0  0  0  0  0  0  0  0  0  0
    6.2228    0.7215   -2.2650 N   0  0  0  0  0  0  0  0  0  0  0  0
    6.8418    0.1688   -1.1297 C   0  0  0  0  0  0  0  0  0  0  0  0
    8.1058    0.2320   -1.0523 O   0  0  0  0  0  0  0  0  0  0  0  0
    6.0550   -0.4558   -0.0788 C   0  0  0  0  0  0  0  0  0  0  0  0
    6.6992   -1.1674    0.9396 C   0  0  0  0  0  0  0  0  0  0  0  0
    6.0091   -1.7614    1.9405 C   0  0  0  0  0  0  0  0  0  0  0  0
    4.6395   -1.6700    1.9677 C   0  0  0  0  0  0  0  0  0  0  0  0
    3.8677   -2.3230    3.0694 C   0  0  0  0  0  0  0  0  0  0  0  0
    3.9143   -0.9755    0.9855 C   0  0  0  0  0  0  0  0  0  0  0  0
    2.5454   -0.9267    1.0791 N   0  0  0  0  0  0  0  0  0  0  0  0
    1.5964   -0.3107    0.2410 C   0  0  0  0  0  0  0  0  0  0  0  0
    1.8852    0.3778   -0.8628 N   0  0  0  0  0  0  0  0  0  0  0  0
    1.0000    0.9635   -1.6620 C   0  0  0  0  0  0  0  0  0  0  0  0
   -0.3584    0.8601   -1.3337 C   0  0  0  0  0  0  0  0  0  0  0  0
   -0.7057    0.1584   -0.2022 C   0  0  0  0  0  0  0  0  0  0  0  0
    0.2697   -0.3901    0.5282 N   0  0  0  0  0  0  0  0  0  0  0  0
   -2.1160    0.0211    0.1852 C   0  0  0  0  0  0  0  0  0  0  0  0
   -3.1501    0.5618   -0.5264 C   0  0  0  0  0  0  0  0  0  0  0  0
   -4.4908    0.4291   -0.1547 C   0  0  0  0  0  0  0  0  0  0  0  0
   -4.7835   -0.2825    0.9854 C   0  0  0  0  0  0  0  0  0  0  0  0
   -6.1985   -0.2895    1.1551 N   0  0  0  0  0  0  0  0  0  0  0  0
   -6.8006    0.0070   -0.1275 C   0  0  0  0  0  0  0  0  0  0  0  0
   -5.7560    0.9105   -0.7307 C   0  0  1  0  0  0  0  0  0  0  0  0
   -6.0083    2.3050   -0.2073 C   0  0  0  0  0  0  0  0  0  0  0  0
   -5.7651    0.8645   -2.2400 C   0  0  0  0  0  0  0  0  0  0  0  0
   -7.0196    1.3474   -2.6468 O   0  0  0  0  0  0  0  0  0  0  0  0
   -3.7475   -0.8501    1.7388 C   0  0  0  0  0  0  0  0  0  0  0  0
   -2.4416   -0.6870    1.3246 C   0  0  0  0  0  0  0  0  0  0  0  0
   -4.0653   -1.5984    2.9397 C   0  0  0  0  0  0  0  0  0  0  0  0
   -4.3305   -2.1995    3.8941 N   0  0  0  0  0  0  0  0  0  0  0  0
    4.6804   -0.3901   -0.0112 C   0  0  0  0  0  0  0  0  0  0  0  0
    8.0477    1.5313   -2.9874 H   0  0  0  0  0  0  0  0  0  0  0  0
    7.0329    0.7643   -4.2448 H   0  0  0  0  0  0  0  0  0  0  0  0
    6.5764    2.3449   -3.5683 H   0  0  0  0  0  0  0  0  0  0  0  0
    5.2059    0.7136   -2.4156 H   0  0  0  0  0  0  0  0  0  0  0  0
    7.7809   -1.2215    0.8904 H   0  0  0  0  0  0  0  0  0  0  0  0
    6.5147   -2.3050    2.7169 H   0  0  0  0  0  0  0  0  0  0  0  0
    3.2784   -1.5684    3.6181 H   0  0  0  0  0  0  0  0  0  0  0  0
    4.5672   -2.8908    3.6806 H   0  0  0  0  0  0  0  0  0  0  0  0
    3.1772   -3.0459    2.5757 H   0  0  0  0  0  0  0  0  0  0  0  0
    2.1070   -1.4370    1.9252 H   0  0  0  0  0  0  0  0  0  0  0  0
    1.3307    1.5019   -2.5381 H   0  0  0  0  0  0  0  0  0  0  0  0
   -1.0786    1.3318   -1.9764 H   0  0  0  0  0  0  0  0  0  0  0  0
   -2.9784    1.1216   -1.4166 H   0  0  0  0  0  0  0  0  0  0  0  0
   -6.6896   -0.4737    2.0369 H   0  0  0  0  0  0  0  0  0  0  0  0
   -6.8578   -0.9567   -0.6819 H   0  0  0  0  0  0  0  0  0  0  0  0
   -7.7889    0.4908   -0.0425 H   0  0  0  0  0  0  0  0  0  0  0  0
   -6.6234    2.2892    0.7242 H   0  0  0  0  0  0  0  0  0  0  0  0
   -5.0612    2.8239    0.0576 H   0  0  0  0  0  0  0  0  0  0  0  0
   -6.5175    2.9296   -0.9650 H   0  0  0  0  0  0  0  0  0  0  0  0
   -4.9839    1.5155   -2.6309 H   0  0  0  0  0  0  0  0  0  0  0  0
   -5.6975   -0.1768   -2.5759 H   0  0  0  0  0  0  0  0  0  0  0  0
   -7.5408    0.6582   -3.1277 H   0  0  0  0  0  0  0  0  0  0  0  0
   -1.6195   -1.1138    1.8858 H   0  0  0  0  0  0  0  0  0  0  0  0
    4.2148    0.1703   -0.8121 H   0  0  0  0  0  0  0  0  0  0  0  0
  1  2  1  0
  2  3  1  0
  3  4  2  0
  3  5  1  0
  5  6  2  0
  6  7  1  0
  7  8  2  0
  8  9  1  0
  8 10  1  0
 10 11  1  0
 11 12  1  0
 12 13  2  0
 13 14  1  0
 14 15  2  0
 15 16  1  0
 16 17  2  0
 16 18  1  0
 18 19  2  0
 19 20  1  0
 20 21  2  0
 21 22  1  0
 22 23  1  0
 23 24  1  0
 24 25  1  6
 24 26  1  0
 26 27  1  0
 21 28  1  0
 28 29  2  0
 28 30  1  0
 30 31  3  0
 10 32  2  0
 32  5  1  0
 17 12  1  0
 29 18  1  0
 24 20  1  0
  1 33  1  0
  1 34  1  0
  1 35  1  0
  2 36  1  0
  6 37  1  0
  7 38  1  0
  9 39  1  0
  9 40  1  0
  9 41  1  0
 11 42  1  0
 14 43  1  0
 15 44  1  0
 19 45  1  0
 22 46  1  0
 23 47  1  0
 23 48  1  0
 25 49  1  0
 25 50  1  0
 25 51  1  0
 26 52  1  0
 26 53  1  0
 27 54  1  0
 29 55  1  0
 32 56  1  0
M  END
$$$$
[H]O[C@@]1(C#Cc2c([H])c3c(c([H])c2F)C2([H])C([H])([H])C([H])(n4c-3nc(C(=O)N([H])[H])c4[C@@]([H])(O[H])c3c([H])c([H])nn3C([H])([H])[H])C2([H])[H])C(=O)N(C([H])([H])[H])C([H])([H])C1([H])[H]
     RDKit          3D

 62 67  0  0  0  0  0  0  0  0999 V2000
    7.2502    1.0560    3.3459 C   0  0  0  0  0  0  0  0  0  0  0  0
    6.7227    0.9789    1.9763 N   0  0  0  0  0  0  0  0  0  0  0  0
    7.2192    1.7596    0.8796 C   0  0  0  0  0  0  0  0  0  0  0  0
    6.6207    1.1723   -0.3556 C   0  0  0  0  0  0  0  0  0  0  0  0
    5.9419   -0.0917    0.0668 C   0  0  2  0  0  0  0  0  0  0  0  0
    6.7467   -1.2090   -0.0741 O   0  0  0  0  0  0  0  0  0  0  0  0
    4.6358   -0.2720   -0.5788 C   0  0  0  0  0  0  0  0  0  0  0  0
    3.5549   -0.4306   -1.0925 C   0  0  0  0  0  0  0  0  0  0  0  0
    2.2423   -0.6216   -1.6878 C   0  0  0  0  0  0  0  0  0  0  0  0
    1.1310   -0.6284   -0.8502 C   0  0  0  0  0  0  0  0  0  0  0  0
   -0.1169   -0.8073   -1.3928 C   0  0  0  0  0  0  0  0  0  0  0  0
   -1.2063   -0.7763   -0.3760 C   0  0  0  0  0  0  0  0  0  0  0  0
   -1.0292   -0.5981    0.9073 N   0  0  0  0  0  0  0  0  0  0  0  0
   -2.2477   -0.5921    1.5523 C   0  0  0  0  0  0  0  0  0  0  0  0
   -2.3464   -0.4590    3.0050 C   0  0  0  0  0  0  0  0  0  0  0  0
   -1.1629   -0.0594    3.7117 N   0  0  0  0  0  0  0  0  0  0  0  0
   -3.3342   -0.6476    3.7240 O   0  0  0  0  0  0  0  0  0  0  0  0
   -3.1796   -0.7752    0.5590 C   0  0  0  0  0  0  0  0  0  0  0  0
   -4.6448   -0.7843    0.6708 C   0  0  1  0  0  0  0  0  0  0  0  0
   -5.1592   -1.2800    1.8426 O   0  0  0  0  0  0  0  0  0  0  0  0
   -5.3399    0.4803    0.2481 C   0  0  0  0  0  0  0  0  0  0  0  0
   -5.8796    0.7509   -1.0011 C   0  0  0  0  0  0  0  0  0  0  0  0
   -6.4413    1.9966   -1.0291 C   0  0  0  0  0  0  0  0  0  0  0  0
   -6.2536    2.4972    0.1929 N   0  0  0  0  0  0  0  0  0  0  0  0
   -5.5967    1.5910    0.9544 N   0  0  0  0  0  0  0  0  0  0  0  0
   -5.2717    1.8618    2.3390 C   0  0  0  0  0  0  0  0  0  0  0  0
   -2.5207   -0.8920   -0.6095 N   0  0  0  0  0  0  0  0  0  0  0  0
   -3.1019   -1.1860   -1.9376 C   0  0  0  0  0  0  0  0  0  0  0  0
   -2.2376   -2.2738   -2.6401 C   0  0  0  0  0  0  0  0  0  0  0  0
   -1.5315   -1.1933   -3.4724 C   0  0  0  0  0  0  0  0  0  0  0  0
   -2.5949   -0.2364   -2.9870 C   0  0  0  0  0  0  0  0  0  0  0  0
   -0.2133   -0.9741   -2.7572 C   0  0  0  0  0  0  0  0  0  0  0  0
    0.8642   -0.9702   -3.5946 C   0  0  0  0  0  0  0  0  0  0  0  0
    2.1164   -0.7905   -3.0498 C   0  0  0  0  0  0  0  0  0  0  0  0
    3.1859   -0.7859   -3.8743 F   0  0  0  0  0  0  0  0  0  0  0  0
    5.6665    0.1495    1.5083 C   0  0  0  0  0  0  0  0  0  0  0  0
    4.7182   -0.2697    2.2007 O   0  0  0  0  0  0  0  0  0  0  0  0
    7.3663    2.0969    3.6837 H   0  0  0  0  0  0  0  0  0  0  0  0
    6.6017    0.4746    4.0469 H   0  0  0  0  0  0  0  0  0  0  0  0
    8.2603    0.5803    3.3995 H   0  0  0  0  0  0  0  0  0  0  0  0
    8.3140    1.7928    0.8234 H   0  0  0  0  0  0  0  0  0  0  0  0
    6.8200    2.7940    0.9941 H   0  0  0  0  0  0  0  0  0  0  0  0
    7.3884    0.9106   -1.1380 H   0  0  0  0  0  0  0  0  0  0  0  0
    5.9262    1.8810   -0.8829 H   0  0  0  0  0  0  0  0  0  0  0  0
    6.7342   -1.7123    0.7747 H   0  0  0  0  0  0  0  0  0  0  0  0
    1.2636   -0.4940    0.2079 H   0  0  0  0  0  0  0  0  0  0  0  0
   -0.2831   -0.5878    3.6265 H   0  0  0  0  0  0  0  0  0  0  0  0
   -1.2297    0.7782    4.3084 H   0  0  0  0  0  0  0  0  0  0  0  0
   -4.9902   -1.5450   -0.1098 H   0  0  0  0  0  0  0  0  0  0  0  0
   -6.0918   -1.0906    2.0024 H   0  0  0  0  0  0  0  0  0  0  0  0
   -5.8866    0.0960   -1.8444 H   0  0  0  0  0  0  0  0  0  0  0  0
   -6.9416    2.5112   -1.8415 H   0  0  0  0  0  0  0  0  0  0  0  0
   -5.5962    1.0201    3.0188 H   0  0  0  0  0  0  0  0  0  0  0  0
   -4.1957    2.0884    2.4803 H   0  0  0  0  0  0  0  0  0  0  0  0
   -5.8389    2.7381    2.7061 H   0  0  0  0  0  0  0  0  0  0  0  0
   -4.1442   -1.4723   -1.9277 H   0  0  0  0  0  0  0  0  0  0  0  0
   -2.8110   -2.9182   -3.3041 H   0  0  0  0  0  0  0  0  0  0  0  0
   -1.5944   -2.8171   -1.9522 H   0  0  0  0  0  0  0  0  0  0  0  0
   -1.4621   -1.3825   -4.5340 H   0  0  0  0  0  0  0  0  0  0  0  0
   -2.1952    0.6788   -2.4895 H   0  0  0  0  0  0  0  0  0  0  0  0
   -3.3469   -0.0044   -3.7733 H   0  0  0  0  0  0  0  0  0  0  0  0
    0.7264   -1.1064   -4.6632 H   0  0  0  0  0  0  0  0  0  0  0  0
  1  2  1  0
  2  3  1  0
  3  4  1  0
  4  5  1  0
  5  6  1  0
  5  7  1  6
  7  8  3  0
  8  9  1  0
  9 10  1  0
 10 11  2  0
 11 12  1  0
 12 13  2  0
 13 14  1  0
 14 15  1  0
 15 16  1  0
 15 17  2  0
 14 18  2  0
 18 19  1  0
 19 20  1  0
 19 21  1  0
 21 22  2  0
 22 23  1  0
 23 24  2  0
 24 25  1  0
 25 26  1  0
 18 27  1  0
 27 28  1  0
 28 29  1  0
 29 30  1  0
 30 31  1  0
 30 32  1  0
 32 33  2  0
 33 34  1  0
 34 35  1  0
  5 36  1  0
 36 37  2  0
 36  2  1  0
 34  9  2  0
 32 11  1  0
 27 12  1  0
 31 28  1  0
 25 21  1  0
  1 38  1  0
  1 39  1  0
  1 40  1  0
  3 41  1  0
  3 42  1  0
  4 43  1  0
  4 44  1  0
  6 45  1  0
 10 46  1  0
 16 47  1  0
 16 48  1  0
 19 49  1  6
 20 50  1  0
 22 51  1  0
 23 52  1  0
 26 53  1  0
 26 54  1  0
 26 55  1  0
 28 56  1  0
 29 57  1  0
 29 58  1  0
 30 59  1  0
 31 60  1  0
 31 61  1  0
 33 62  1  0
M  END
$$$$
[H]O[C@@](C#Cc1c([H])c2c(c([H])c1F)C1([H])C([H])([H])C([H])(n3c-2nc(C(=O)N([H])[H])c3[H])C1([H])[H])(c1noc(C([H])([H])[H])c1[H])C([H])([H])[H]
     RDKit          3D

 49 53  0  0  0  0  0  0  0  0999 V2000
   -7.6738   -1.2508    0.4843 C   0  0  0  0  0  0  0  0  0  0  0  0
   -6.6747   -0.2766   -0.0509 C   0  0  0  0  0  0  0  0  0  0  0  0
   -5.7861    0.4253    0.7237 C   0  0  0  0  0  0  0  0  0  0  0  0
   -5.0172    1.2423   -0.1048 C   0  0  0  0  0  0  0  0  0  0  0  0
   -5.4952    0.9735   -1.3328 N   0  0  0  0  0  0  0  0  0  0  0  0
   -6.4513    0.0955   -1.2807 O   0  0  0  0  0  0  0  0  0  0  0  0
   -3.9329    2.1591    0.2601 C   0  0  1  0  0  0  0  0  0  0  0  0
   -4.0216    3.5468   -0.2313 C   0  0  0  0  0  0  0  0  0  0  0  0
   -3.9409    2.2546    1.6946 O   0  0  0  0  0  0  0  0  0  0  0  0
   -2.6527    1.5118   -0.1573 C   0  0  0  0  0  0  0  0  0  0  0  0
   -1.6559    0.8982   -0.4591 C   0  0  0  0  0  0  0  0  0  0  0  0
   -0.5019    0.0791   -0.7450 C   0  0  0  0  0  0  0  0  0  0  0  0
    0.7892    0.4181   -0.4022 C   0  0  0  0  0  0  0  0  0  0  0  0
    1.8556   -0.4365   -0.5244 C   0  0  0  0  0  0  0  0  0  0  0  0
    3.1647    0.0868   -0.1063 C   0  0  0  0  0  0  0  0  0  0  0  0
    3.5159    1.3584    0.0975 N   0  0  0  0  0  0  0  0  0  0  0  0
    4.8430    1.4167    0.4198 C   0  0  0  0  0  0  0  0  0  0  0  0
    5.2649    0.0809    0.4005 C   0  0  0  0  0  0  0  0  0  0  0  0
    4.2473   -0.7067    0.0797 N   0  0  0  0  0  0  0  0  0  0  0  0
    4.3508   -2.1437   -0.0513 C   0  0  0  0  0  0  0  0  0  0  0  0
    3.1356   -2.9024    0.3913 C   0  0  0  0  0  0  0  0  0  0  0  0
    2.5366   -2.8434   -1.0673 C   0  0  0  0  0  0  0  0  0  0  0  0
    3.9311   -2.5253   -1.5007 C   0  0  0  0  0  0  0  0  0  0  0  0
    1.5735   -1.7100   -1.0318 C   0  0  0  0  0  0  0  0  0  0  0  0
    0.3038   -2.1006   -1.4016 C   0  0  0  0  0  0  0  0  0  0  0  0
   -0.7065   -1.1966   -1.2459 C   0  0  0  0  0  0  0  0  0  0  0  0
   -1.9917   -1.5258   -1.5921 F   0  0  0  0  0  0  0  0  0  0  0  0
    5.6454    2.5910    0.7367 C   0  0  0  0  0  0  0  0  0  0  0  0
    7.0503    2.4793    0.8283 N   0  0  0  0  0  0  0  0  0  0  0  0
    5.1107    3.6931    0.9270 O   0  0  0  0  0  0  0  0  0  0  0  0
   -8.1751   -1.7408   -0.3674 H   0  0  0  0  0  0  0  0  0  0  0  0
   -8.3935   -0.6709    1.1199 H   0  0  0  0  0  0  0  0  0  0  0  0
   -7.1290   -2.0326    1.0565 H   0  0  0  0  0  0  0  0  0  0  0  0
   -5.6804    0.3716    1.8086 H   0  0  0  0  0  0  0  0  0  0  0  0
   -4.9714    3.9966    0.1377 H   0  0  0  0  0  0  0  0  0  0  0  0
   -3.2012    4.1264    0.2832 H   0  0  0  0  0  0  0  0  0  0  0  0
   -3.9226    3.6199   -1.3229 H   0  0  0  0  0  0  0  0  0  0  0  0
   -3.5723    1.3637    1.9933 H   0  0  0  0  0  0  0  0  0  0  0  0
    0.9773    1.4243   -0.0028 H   0  0  0  0  0  0  0  0  0  0  0  0
    6.2672   -0.2594    0.6011 H   0  0  0  0  0  0  0  0  0  0  0  0
    5.3392   -2.5252    0.2582 H   0  0  0  0  0  0  0  0  0  0  0  0
    2.4571   -2.3913    1.1020 H   0  0  0  0  0  0  0  0  0  0  0  0
    3.2798   -3.9549    0.7087 H   0  0  0  0  0  0  0  0  0  0  0  0
    2.0951   -3.8140   -1.3530 H   0  0  0  0  0  0  0  0  0  0  0  0
    4.5293   -3.3787   -1.9160 H   0  0  0  0  0  0  0  0  0  0  0  0
    3.9667   -1.6064   -2.1459 H   0  0  0  0  0  0  0  0  0  0  0  0
    0.1055   -3.0951   -1.7964 H   0  0  0  0  0  0  0  0  0  0  0  0
    7.5589    1.5439    0.9019 H   0  0  0  0  0  0  0  0  0  0  0  0
    7.6532    3.3306    0.8335 H   0  0  0  0  0  0  0  0  0  0  0  0
  1  2  1  0
  2  3  2  0
  3  4  1  0
  4  5  2  0
  5  6  1  0
  4  7  1  0
  7  8  1  0
  7  9  1  0
  7 10  1  1
 10 11  3  0
 11 12  1  0
 12 13  1  0
 13 14  2  0
 14 15  1  0
 15 16  2  0
 16 17  1  0
 17 18  2  0
 18 19  1  0
 19 20  1  0
 20 21  1  0
 21 22  1  0
 22 23  1  0
 22 24  1  0
 24 25  2  0
 25 26  1  0
 26 27  1  0
 17 28  1  0
 28 29  1  0
 28 30  2  0
  6  2  1  0
 26 12  2  0
 24 14  1  0
 19 15  1  0
 23 20  1  0
  1 31  1  0
  1 32  1  0
  1 33  1  0
  3 34  1  0
  8 35  1  0
  8 36  1  0
  8 37  1  0
  9 38  1  0
 13 39  1  0
 18 40  1  0
 20 41  1  0
 21 42  1  0
 21 43  1  0
 22 44  1  0
 23 45  1  0
 23 46  1  0
 25 47  1  0
 29 48  1  0
 29 49  1  0
M  END
$$$$
[H]O[C@]1(C#Cc2c([H])c([H])c3c(c2[H])-c2nc(C(=O)N([H])[H])sc2[C@@]([H])(C([H])([H])[H])C([H])([H])O3)C(=O)N(C([H])([H])[H])C([H])([H])C1([H])[H]
     RDKit          3D

 47 50  0  0  0  0  0  0  0  0999 V2000
   -5.3226   -1.2409   -1.6263 C   0  0  0  0  0  0  0  0  0  0  0  0
   -5.0673   -1.2774   -0.1422 C   0  0  1  0  0  0  0  0  0  0  0  0
   -4.5920   -2.6465    0.2714 C   0  0  0  0  0  0  0  0  0  0  0  0
   -3.4311   -3.0572   -0.4193 O   0  0  0  0  0  0  0  0  0  0  0  0
   -2.1658   -2.4972   -0.3080 C   0  0  0  0  0  0  0  0  0  0  0  0
   -1.1487   -3.3895   -0.6152 C   0  0  0  0  0  0  0  0  0  0  0  0
    0.1523   -2.9487   -0.5408 C   0  0  0  0  0  0  0  0  0  0  0  0
    0.4967   -1.6703   -0.1780 C   0  0  0  0  0  0  0  0  0  0  0  0
   -0.5306   -0.7896    0.1262 C   0  0  0  0  0  0  0  0  0  0  0  0
   -1.8518   -1.2069    0.0596 C   0  0  0  0  0  0  0  0  0  0  0  0
   -2.7821   -0.0957    0.4271 C   0  0  0  0  0  0  0  0  0  0  0  0
   -2.3128    1.0237    0.8743 N   0  0  0  0  0  0  0  0  0  0  0  0
   -3.1255    2.0157    1.2028 C   0  0  0  0  0  0  0  0  0  0  0  0
   -4.6715    1.3156    0.8540 S   0  0  0  0  0  0  0  0  0  0  0  0
   -4.1446   -0.2084    0.3096 C   0  0  0  0  0  0  0  0  0  0  0  0
   -2.8226    3.3450    1.7198 C   0  0  0  0  0  0  0  0  0  0  0  0
   -3.8810    4.2250    1.9928 N   0  0  0  0  0  0  0  0  0  0  0  0
   -1.6474    3.6811    1.9109 O   0  0  0  0  0  0  0  0  0  0  0  0
    1.8512   -1.2022   -0.0978 C   0  0  0  0  0  0  0  0  0  0  0  0
    2.9626   -0.7979   -0.0235 C   0  0  0  0  0  0  0  0  0  0  0  0
    4.3257   -0.2766    0.0769 C   0  0  2  0  0  0  0  0  0  0  0  0
    5.2841   -1.2749   -0.0217 O   0  0  0  0  0  0  0  0  0  0  0  0
    4.4794    0.5331    1.3301 C   0  0  0  0  0  0  0  0  0  0  0  0
    5.4175    1.6752    1.0029 C   0  0  0  0  0  0  0  0  0  0  0  0
    5.5559    1.6232   -0.4456 N   0  0  0  0  0  0  0  0  0  0  0  0
    6.5410    2.4125   -1.1767 C   0  0  0  0  0  0  0  0  0  0  0  0
    4.6100    0.7140   -0.9939 C   0  0  0  0  0  0  0  0  0  0  0  0
    4.1310    0.7693   -2.1597 O   0  0  0  0  0  0  0  0  0  0  0  0
   -4.3919   -0.9634   -2.1353 H   0  0  0  0  0  0  0  0  0  0  0  0
   -5.7251   -2.2304   -1.9172 H   0  0  0  0  0  0  0  0  0  0  0  0
   -6.0925   -0.4363   -1.7959 H   0  0  0  0  0  0  0  0  0  0  0  0
   -6.0393   -1.1073    0.3609 H   0  0  0  0  0  0  0  0  0  0  0  0
   -5.4381   -3.3436    0.0784 H   0  0  0  0  0  0  0  0  0  0  0  0
   -4.4258   -2.6610    1.3560 H   0  0  0  0  0  0  0  0  0  0  0  0
   -1.3907   -4.3840   -0.8986 H   0  0  0  0  0  0  0  0  0  0  0  0
    0.9830   -3.6199   -0.7747 H   0  0  0  0  0  0  0  0  0  0  0  0
   -0.3425    0.2271    0.4183 H   0  0  0  0  0  0  0  0  0  0  0  0
   -3.8454    4.9237    2.7406 H   0  0  0  0  0  0  0  0  0  0  0  0
   -4.7442    4.1658    1.4080 H   0  0  0  0  0  0  0  0  0  0  0  0
    4.9562   -2.1078   -0.3964 H   0  0  0  0  0  0  0  0  0  0  0  0
    4.9233   -0.1297    2.1130 H   0  0  0  0  0  0  0  0  0  0  0  0
    3.5034    0.9319    1.6989 H   0  0  0  0  0  0  0  0  0  0  0  0
    4.9100    2.6478    1.2271 H   0  0  0  0  0  0  0  0  0  0  0  0
    6.3850    1.5949    1.5262 H   0  0  0  0  0  0  0  0  0  0  0  0
    6.3011    3.4779   -1.1965 H   0  0  0  0  0  0  0  0  0  0  0  0
    6.6420    2.0696   -2.2235 H   0  0  0  0  0  0  0  0  0  0  0  0
    7.5211    2.1913   -0.6865 H   0  0  0  0  0  0  0  0  0  0  0  0
  1  2  1  0
  2  3  1  0
  3  4  1  0
  4  5  1  0
  5  6  2  0
  6  7  1  0
  7  8  2  0
  8  9  1  0
  9 10  2  0
 10 11  1  0
 11 12  1  0
 12 13  2  0
 13 14  1  0
 14 15  1  0
 13 16  1  0
 16 17  1  0
 16 18  2  0
  8 19  1  0
 19 20  3  0
 21 20  1  6
 21 22  1  0
 21 23  1  0
 23 24  1  0
 24 25  1  0
 25 26  1  0
 25 27  1  0
 27 28  2  0
 15  2  1  0
 27 21  1  0
 10  5  1  0
 15 11  2  0
  1 29  1  0
  1 30  1  0
  1 31  1  0
  2 32  1  1
  3 33  1  0
  3 34  1  0
  6 35  1  0
  7 36  1  0
  9 37  1  0
 17 38  1  0
 17 39  1  0
 22 40  1  0
 23 41  1  0
 23 42  1  0
 24 43  1  0
 24 44  1  0
 26 45  1  0
 26 46  1  0
 26 47  1  0
M  END
$$$$
[H]c1nc(N([H])c2nc([H])c(C3([H])C([H])([H])C([H])([H])N(C([H])([H])[H])C([H])([H])C3([H])[H])c([H])c2[H])nc(-c2c([H])c(F)c3c(c2[H])C2(C(C([H])([H])[H])=N3)C([H])([H])C([H])([H])C([H])([H])C2([H])[H])c1F
     RDKit          3D

 66 71  0  0  0  0  0  0  0  0999 V2000
   10.3576    1.2891    0.3525 C   0  0  0  0  0  0  0  0  0  0  0  0
    9.1124    0.6867   -0.0888 N   0  0  0  0  0  0  0  0  0  0  0  0
    8.0868    1.7118   -0.0853 C   0  0  0  0  0  0  0  0  0  0  0  0
    6.8956    1.1627   -0.8393 C   0  0  0  0  0  0  0  0  0  0  0  0
    6.7388   -0.3210   -0.6057 C   0  0  0  0  0  0  0  0  0  0  0  0
    7.2971   -0.7493    0.7283 C   0  0  0  0  0  0  0  0  0  0  0  0
    8.7650   -0.4094    0.7627 C   0  0  0  0  0  0  0  0  0  0  0  0
    5.2996   -0.6521   -0.7311 C   0  0  0  0  0  0  0  0  0  0  0  0
    4.8351   -1.5258   -1.6932 C   0  0  0  0  0  0  0  0  0  0  0  0
    3.4973   -1.8365   -1.8132 C   0  0  0  0  0  0  0  0  0  0  0  0
    2.5507   -1.2681   -0.9508 C   0  0  0  0  0  0  0  0  0  0  0  0
    1.1760   -1.5909   -1.0784 N   0  0  0  0  0  0  0  0  0  0  0  0
    0.2357   -1.0137   -0.2066 C   0  0  0  0  0  0  0  0  0  0  0  0
    0.6246   -0.1596    0.7459 N   0  0  0  0  0  0  0  0  0  0  0  0
   -0.2449    0.4109    1.5963 C   0  0  0  0  0  0  0  0  0  0  0  0
   -1.5807    0.1015    1.4778 C   0  0  0  0  0  0  0  0  0  0  0  0
   -2.5206    0.6388    2.3059 F   0  0  0  0  0  0  0  0  0  0  0  0
   -1.9765   -0.7698    0.5055 C   0  0  0  0  0  0  0  0  0  0  0  0
   -1.0656   -1.3110   -0.3174 N   0  0  0  0  0  0  0  0  0  0  0  0
   -3.3630   -1.1797    0.2800 C   0  0  0  0  0  0  0  0  0  0  0  0
   -4.3282   -0.2071    0.2694 C   0  0  0  0  0  0  0  0  0  0  0  0
   -5.6809   -0.4978    0.0645 C   0  0  0  0  0  0  0  0  0  0  0  0
   -5.9952   -1.8269   -0.1283 C   0  0  0  0  0  0  0  0  0  0  0  0
   -7.3932   -1.8935   -0.3132 N   0  0  0  0  0  0  0  0  0  0  0  0
   -7.9462   -0.7385   -0.2504 C   0  0  0  0  0  0  0  0  0  0  0  0
   -9.3897   -0.4398   -0.3990 C   0  0  0  0  0  0  0  0  0  0  0  0
   -6.9182    0.3112    0.0007 C   0  0  0  0  0  0  0  0  0  0  0  0
   -7.2288    1.0102    1.3002 C   0  0  0  0  0  0  0  0  0  0  0  0
   -7.9230    2.2976    0.9272 C   0  0  0  0  0  0  0  0  0  0  0  0
   -7.6310    2.5623   -0.5135 C   0  0  0  0  0  0  0  0  0  0  0  0
   -6.8926    1.3634   -1.0598 C   0  0  0  0  0  0  0  0  0  0  0  0
   -5.0299   -2.8082   -0.1188 C   0  0  0  0  0  0  0  0  0  0  0  0
   -5.3702   -4.1250   -0.3135 F   0  0  0  0  0  0  0  0  0  0  0  0
   -3.7132   -2.4895    0.0848 C   0  0  0  0  0  0  0  0  0  0  0  0
    3.0380   -0.4259   -0.0310 N   0  0  0  0  0  0  0  0  0  0  0  0
    4.3370   -0.1070    0.1063 C   0  0  0  0  0  0  0  0  0  0  0  0
   11.2438    0.8083   -0.1036 H   0  0  0  0  0  0  0  0  0  0  0  0
   10.3398    2.3515    0.0257 H   0  0  0  0  0  0  0  0  0  0  0  0
   10.4131    1.3033    1.4654 H   0  0  0  0  0  0  0  0  0  0  0  0
    8.4579    2.6079   -0.6179 H   0  0  0  0  0  0  0  0  0  0  0  0
    7.7662    1.9164    0.9459 H   0  0  0  0  0  0  0  0  0  0  0  0
    6.9740    1.3588   -1.9286 H   0  0  0  0  0  0  0  0  0  0  0  0
    5.9785    1.6759   -0.4846 H   0  0  0  0  0  0  0  0  0  0  0  0
    7.2831   -0.8819   -1.3828 H   0  0  0  0  0  0  0  0  0  0  0  0
    6.8210   -0.2688    1.5853 H   0  0  0  0  0  0  0  0  0  0  0  0
    7.2077   -1.8540    0.7815 H   0  0  0  0  0  0  0  0  0  0  0  0
    9.3899   -1.2883    0.4283 H   0  0  0  0  0  0  0  0  0  0  0  0
    9.1077   -0.1855    1.7918 H   0  0  0  0  0  0  0  0  0  0  0  0
    5.5643   -1.9692   -2.3641 H   0  0  0  0  0  0  0  0  0  0  0  0
    3.1179   -2.5258   -2.5698 H   0  0  0  0  0  0  0  0  0  0  0  0
    0.8375   -2.2550   -1.8123 H   0  0  0  0  0  0  0  0  0  0  0  0
    0.0407    1.1029    2.3737 H   0  0  0  0  0  0  0  0  0  0  0  0
   -4.1077    0.8331    0.4150 H   0  0  0  0  0  0  0  0  0  0  0  0
   -9.9456   -1.3514   -0.7587 H   0  0  0  0  0  0  0  0  0  0  0  0
   -9.8459   -0.0345    0.5290 H   0  0  0  0  0  0  0  0  0  0  0  0
   -9.5057    0.3671   -1.1674 H   0  0  0  0  0  0  0  0  0  0  0  0
   -7.8030    0.3899    2.0026 H   0  0  0  0  0  0  0  0  0  0  0  0
   -6.2582    1.2359    1.7883 H   0  0  0  0  0  0  0  0  0  0  0  0
   -7.5312    3.0915    1.5974 H   0  0  0  0  0  0  0  0  0  0  0  0
   -9.0057    2.1977    1.1365 H   0  0  0  0  0  0  0  0  0  0  0  0
   -6.9980    3.4780   -0.6021 H   0  0  0  0  0  0  0  0  0  0  0  0
   -8.5830    2.7624   -1.0310 H   0  0  0  0  0  0  0  0  0  0  0  0
   -5.8836    1.6116   -1.4253 H   0  0  0  0  0  0  0  0  0  0  0  0
   -7.4754    0.9919   -1.9285 H   0  0  0  0  0  0  0  0  0  0  0  0
   -2.9359   -3.2454    0.0963 H   0  0  0  0  0  0  0  0  0  0  0  0
    4.6800    0.5756    0.8616 H   0  0  0  0  0  0  0  0  0  0  0  0
  1  2  1  0
  2  3  1  0
  3  4  1  0
  4  5  1  0
  5  6  1  0
  6  7  1  0
  5  8  1  0
  8  9  2  0
  9 10  1  0
 10 11  2  0
 11 12  1  0
 12 13  1  0
 13 14  2  0
 14 15  1  0
 15 16  2  0
 16 17  1  0
 16 18  1  0
 18 19  2  0
 18 20  1  0
 20 21  2  0
 21 22  1  0
 22 23  2  0
 23 24  1  0
 24 25  2  0
 25 26  1  0
 25 27  1  0
 27 28  1  0
 28 29  1  0
 29 30  1  0
 30 31  1  0
 23 32  1  0
 32 33  1  0
 32 34  2  0
 11 35  1  0
 35 36  2  0
  7  2  1  0
 36  8  1  0
 19 13  1  0
 34 20  1  0
 27 22  1  0
 31 27  1  0
  1 37  1  0
  1 38  1  0
  1 39  1  0
  3 40  1  0
  3 41  1  0
  4 42  1  0
  4 43  1  0
  5 44  1  0
  6 45  1  0
  6 46  1  0
  7 47  1  0
  7 48  1  0
  9 49  1  0
 10 50  1  0
 12 51  1  0
 15 52  1  0
 21 53  1  0
 26 54  1  0
 26 55  1  0
 26 56  1  0
 28 57  1  0
 28 58  1  0
 29 59  1  0
 29 60  1  0
 30 61  1  0
 30 62  1  0
 31 63  1  0
 31 64  1  0
 34 65  1  0
 36 66  1  0
M  END
$$$$
[H]OC1(C#Cc2c([H])c3c(c([H])c2F)C2([H])C([H])([H])C([H])(n4c-3nc(C(=O)N([H])[H])c4[C@@]([H])(O[H])c3c(OC([H])([H])[H])nc([H])c(F)c3[H])C2([H])[H])C([H])([H])C([H])([H])C([H])([H])C1([H])[H]
     RDKit          3D

 64 69  0  0  0  0  0  0  0  0999 V2000
   -4.1620    3.0325    0.8285 C   0  0  0  0  0  0  0  0  0  0  0  0
   -4.1704    1.6238    0.7614 O   0  0  0  0  0  0  0  0  0  0  0  0
   -4.9916    0.9214   -0.0801 C   0  0  0  0  0  0  0  0  0  0  0  0
   -5.8273    1.6283   -0.8798 N   0  0  0  0  0  0  0  0  0  0  0  0
   -6.6738    1.0637   -1.7440 C   0  0  0  0  0  0  0  0  0  0  0  0
   -6.6975   -0.3104   -1.8256 C   0  0  0  0  0  0  0  0  0  0  0  0
   -7.5590   -0.8729   -2.7048 F   0  0  0  0  0  0  0  0  0  0  0  0
   -5.8566   -1.0271   -1.0207 C   0  0  0  0  0  0  0  0  0  0  0  0
   -4.9566   -0.4533   -0.1028 C   0  0  0  0  0  0  0  0  0  0  0  0
   -4.1219   -1.3030    0.7829 C   0  0  2  0  0  0  0  0  0  0  0  0
   -4.8009   -1.5231    1.9560 O   0  0  0  0  0  0  0  0  0  0  0  0
   -2.7014   -1.0204    0.8520 C   0  0  0  0  0  0  0  0  0  0  0  0
   -1.9838   -0.4844    1.8960 C   0  0  0  0  0  0  0  0  0  0  0  0
   -0.6682   -0.4231    1.4529 N   0  0  0  0  0  0  0  0  0  0  0  0
   -0.6025   -0.8981    0.2100 C   0  0  0  0  0  0  0  0  0  0  0  0
    0.6419   -0.9767   -0.5956 C   0  0  0  0  0  0  0  0  0  0  0  0
    1.7481   -0.4837    0.0646 C   0  0  0  0  0  0  0  0  0  0  0  0
    2.9874   -0.4745   -0.5407 C   0  0  0  0  0  0  0  0  0  0  0  0
    4.1633    0.0314    0.1172 C   0  0  0  0  0  0  0  0  0  0  0  0
    5.1600    0.4383    0.6786 C   0  0  0  0  0  0  0  0  0  0  0  0
    6.3732    0.9096    1.3728 C   0  0  0  0  0  0  0  0  0  0  0  0
    6.4570    0.3618    2.6510 O   0  0  0  0  0  0  0  0  0  0  0  0
    7.6256    0.5879    0.5891 C   0  0  0  0  0  0  0  0  0  0  0  0
    7.5857    1.5879   -0.5329 C   0  0  0  0  0  0  0  0  0  0  0  0
    6.9013    2.8115    0.0317 C   0  0  0  0  0  0  0  0  0  0  0  0
    6.3441    2.4010    1.3779 C   0  0  0  0  0  0  0  0  0  0  0  0
    3.0401   -0.9872   -1.8371 C   0  0  0  0  0  0  0  0  0  0  0  0
    4.2724   -0.9726   -2.4258 F   0  0  0  0  0  0  0  0  0  0  0  0
    1.9349   -1.4800   -2.4969 C   0  0  0  0  0  0  0  0  0  0  0  0
    0.7324   -1.4786   -1.8836 C   0  0  0  0  0  0  0  0  0  0  0  0
   -0.4142   -2.0472   -2.6891 C   0  0  0  0  0  0  0  0  0  0  0  0
   -1.2189   -2.9964   -1.7928 C   0  0  0  0  0  0  0  0  0  0  0  0
   -2.2024   -1.8593   -1.4269 C   0  0  0  0  0  0  0  0  0  0  0  0
   -1.5897   -1.1028   -2.5981 C   0  0  0  0  0  0  0  0  0  0  0  0
   -1.8466   -1.2681   -0.1648 N   0  0  0  0  0  0  0  0  0  0  0  0
   -2.2849   -0.0278    3.2214 C   0  0  0  0  0  0  0  0  0  0  0  0
   -3.5567    0.0431    3.8160 N   0  0  0  0  0  0  0  0  0  0  0  0
   -1.3160    0.3622    3.9601 O   0  0  0  0  0  0  0  0  0  0  0  0
   -5.0239    3.4116    1.4370 H   0  0  0  0  0  0  0  0  0  0  0  0
   -4.3527    3.4023   -0.2115 H   0  0  0  0  0  0  0  0  0  0  0  0
   -3.2015    3.4430    1.1764 H   0  0  0  0  0  0  0  0  0  0  0  0
   -7.3052    1.7097   -2.3433 H   0  0  0  0  0  0  0  0  0  0  0  0
   -5.8712   -2.0982   -1.0769 H   0  0  0  0  0  0  0  0  0  0  0  0
   -4.2334   -2.3628    0.2642 H   0  0  0  0  0  0  0  0  0  0  0  0
   -5.7175   -1.1360    1.9786 H   0  0  0  0  0  0  0  0  0  0  0  0
    1.6754   -0.0932    1.0682 H   0  0  0  0  0  0  0  0  0  0  0  0
    6.0029   -0.5099    2.7201 H   0  0  0  0  0  0  0  0  0  0  0  0
    8.4834    0.7231    1.2740 H   0  0  0  0  0  0  0  0  0  0  0  0
    7.5787   -0.4361    0.1728 H   0  0  0  0  0  0  0  0  0  0  0  0
    6.9690    1.1799   -1.3532 H   0  0  0  0  0  0  0  0  0  0  0  0
    8.6080    1.8084   -0.8991 H   0  0  0  0  0  0  0  0  0  0  0  0
    6.0574    3.1624   -0.5933 H   0  0  0  0  0  0  0  0  0  0  0  0
    7.6420    3.6309    0.2231 H   0  0  0  0  0  0  0  0  0  0  0  0
    5.3196    2.8248    1.5325 H   0  0  0  0  0  0  0  0  0  0  0  0
    7.0020    2.7595    2.2152 H   0  0  0  0  0  0  0  0  0  0  0  0
    2.0204   -1.8678   -3.5006 H   0  0  0  0  0  0  0  0  0  0  0  0
   -0.1424   -2.4265   -3.6595 H   0  0  0  0  0  0  0  0  0  0  0  0
   -0.6719   -3.3603   -0.9147 H   0  0  0  0  0  0  0  0  0  0  0  0
   -1.6522   -3.7832   -2.4087 H   0  0  0  0  0  0  0  0  0  0  0  0
   -3.1917   -2.2591   -1.5644 H   0  0  0  0  0  0  0  0  0  0  0  0
   -2.2356   -1.1042   -3.5016 H   0  0  0  0  0  0  0  0  0  0  0  0
   -1.3666   -0.0793   -2.2882 H   0  0  0  0  0  0  0  0  0  0  0  0
   -3.8797   -0.6606    4.5452 H   0  0  0  0  0  0  0  0  0  0  0  0
   -4.2778    0.7874    3.5938 H   0  0  0  0  0  0  0  0  0  0  0  0
  1  2  1  0
  2  3  1  0
  3  4  2  0
  4  5  1  0
  5  6  2  0
  6  7  1  0
  6  8  1  0
  8  9  2  0
  9 10  1  0
 10 11  1  0
 10 12  1  0
 12 13  2  0
 13 14  1  0
 14 15  2  0
 15 16  1  0
 16 17  2  0
 17 18  1  0
 18 19  1  0
 19 20  3  0
 20 21  1  0
 21 22  1  0
 21 23  1  0
 23 24  1  0
 24 25  1  0
 25 26  1  0
 18 27  2  0
 27 28  1  0
 27 29  1  0
 29 30  2  0
 30 31  1  0
 31 32  1  0
 32 33  1  0
 33 34  1  0
 33 35  1  0
 13 36  1  0
 36 37  1  0
 36 38  2  0
  9  3  1  0
 35 12  1  0
 35 15  1  0
 30 16  1  0
 34 31  1  0
 26 21  1  0
  1 39  1  0
  1 40  1  0
  1 41  1  0
  5 42  1  0
  8 43  1  0
 10 44  1  6
 11 45  1  0
 17 46  1  0
 22 47  1  0
 23 48  1  0
 23 49  1  0
 24 50  1  0
 24 51  1  0
 25 52  1  0
 25 53  1  0
 26 54  1  0
 26 55  1  0
 29 56  1  0
 31 57  1  0
 32 58  1  0
 32 59  1  0
 33 60  1  0
 34 61  1  0
 34 62  1  0
 37 63  1  0
 37 64  1  0
M  END
$$$$
[H]O[C@](C#Cc1c([H])c([H])c2c(c1[H])-n1nc(C(=O)N([H])[H])c([H])c1C1(C([H])([H])O2)C([H])([H])C([H])([H])C1([H])[H])(c1noc(C([H])([H])[H])c1[H])C([H])([H])[H]
     RDKit          3D

 53 57  0  0  0  0  0  0  0  0999 V2000
    9.2571    0.3067   -0.4016 C   0  0  0  0  0  0  0  0  0  0  0  0
    7.8651    0.2639    0.1657 C   0  0  0  0  0  0  0  0  0  0  0  0
    6.7589    0.8643   -0.3737 C   0  0  0  0  0  0  0  0  0  0  0  0
    5.6501    0.5862    0.4586 C   0  0  0  0  0  0  0  0  0  0  0  0
    6.1958   -0.1657    1.4272 N   0  0  0  0  0  0  0  0  0  0  0  0
    7.4573   -0.3360    1.2398 O   0  0  0  0  0  0  0  0  0  0  0  0
    4.3013    1.0975    0.2503 C   0  0  2  0  0  0  0  0  0  0  0  0
    4.1951    1.8278   -1.1201 C   0  0  0  0  0  0  0  0  0  0  0  0
    4.0687    2.1272    1.2484 O   0  0  0  0  0  0  0  0  0  0  0  0
    3.2510    0.1309    0.3234 C   0  0  0  0  0  0  0  0  0  0  0  0
    2.2904   -0.5835    0.3711 C   0  0  0  0  0  0  0  0  0  0  0  0
    1.0549   -1.2902    0.4208 C   0  0  0  0  0  0  0  0  0  0  0  0
    0.8439   -2.5127    0.9444 C   0  0  0  0  0  0  0  0  0  0  0  0
   -0.4436   -3.0849    1.0477 C   0  0  0  0  0  0  0  0  0  0  0  0
   -1.5395   -2.3875    0.6056 C   0  0  0  0  0  0  0  0  0  0  0  0
   -2.7826   -3.0007    0.7379 O   0  0  0  0  0  0  0  0  0  0  0  0
   -4.0204   -2.6742    0.2058 C   0  0  0  0  0  0  0  0  0  0  0  0
   -4.5203   -1.2802    0.3173 C   0  0  0  0  0  0  0  0  0  0  0  0
   -5.9214   -1.2291   -0.3341 C   0  0  0  0  0  0  0  0  0  0  0  0
   -6.4969   -1.4266    1.0427 C   0  0  0  0  0  0  0  0  0  0  0  0
   -5.2073   -0.8936    1.6217 C   0  0  0  0  0  0  0  0  0  0  0  0
   -3.6525   -0.2317   -0.2324 C   0  0  0  0  0  0  0  0  0  0  0  0
   -4.1153    0.9740   -0.7263 C   0  0  0  0  0  0  0  0  0  0  0  0
   -3.0438    1.7355   -1.1670 C   0  0  0  0  0  0  0  0  0  0  0  0
   -1.9525    0.9502   -0.9163 N   0  0  0  0  0  0  0  0  0  0  0  0
   -2.3294   -0.1863   -0.3731 N   0  0  0  0  0  0  0  0  0  0  0  0
   -1.3376   -1.1305    0.0626 C   0  0  0  0  0  0  0  0  0  0  0  0
   -0.0894   -0.5857   -0.0369 C   0  0  0  0  0  0  0  0  0  0  0  0
   -2.9903    3.0991   -1.6803 C   0  0  0  0  0  0  0  0  0  0  0  0
   -3.9824    4.0496   -1.3292 N   0  0  0  0  0  0  0  0  0  0  0  0
   -2.0711    3.4355   -2.4298 O   0  0  0  0  0  0  0  0  0  0  0  0
    9.2179    0.8482   -1.3745 H   0  0  0  0  0  0  0  0  0  0  0  0
    9.6140   -0.7259   -0.5191 H   0  0  0  0  0  0  0  0  0  0  0  0
    9.9220    0.8663    0.3165 H   0  0  0  0  0  0  0  0  0  0  0  0
    6.6565    1.4567   -1.2772 H   0  0  0  0  0  0  0  0  0  0  0  0
    3.0804    1.9088   -1.2895 H   0  0  0  0  0  0  0  0  0  0  0  0
    4.6579    1.1581   -1.8523 H   0  0  0  0  0  0  0  0  0  0  0  0
    4.6893    2.7998   -1.0306 H   0  0  0  0  0  0  0  0  0  0  0  0
    3.4942    2.8446    0.8166 H   0  0  0  0  0  0  0  0  0  0  0  0
    1.7214   -3.0453    1.2938 H   0  0  0  0  0  0  0  0  0  0  0  0
   -0.5761   -4.0487    1.4703 H   0  0  0  0  0  0  0  0  0  0  0  0
   -4.7974   -3.3246    0.6978 H   0  0  0  0  0  0  0  0  0  0  0  0
   -4.1091   -2.9788   -0.8947 H   0  0  0  0  0  0  0  0  0  0  0  0
   -6.1753   -0.2846   -0.8125 H   0  0  0  0  0  0  0  0  0  0  0  0
   -6.1383   -2.1363   -0.9747 H   0  0  0  0  0  0  0  0  0  0  0  0
   -6.6500   -2.4931    1.3583 H   0  0  0  0  0  0  0  0  0  0  0  0
   -7.3755   -0.7756    1.2742 H   0  0  0  0  0  0  0  0  0  0  0  0
   -4.8408   -1.3468    2.5334 H   0  0  0  0  0  0  0  0  0  0  0  0
   -5.2673    0.2296    1.6476 H   0  0  0  0  0  0  0  0  0  0  0  0
   -5.1353    1.3587   -0.8089 H   0  0  0  0  0  0  0  0  0  0  0  0
    0.0479    0.3906   -0.4800 H   0  0  0  0  0  0  0  0  0  0  0  0
   -4.9771    3.9493   -1.6202 H   0  0  0  0  0  0  0  0  0  0  0  0
   -3.7525    4.8997   -0.7406 H   0  0  0  0  0  0  0  0  0  0  0  0
  1  2  1  0
  2  3  2  0
  3  4  1  0
  4  5  2  0
  5  6  1  0
  4  7  1  0
  7  8  1  0
  7  9  1  0
  7 10  1  6
 10 11  3  0
 11 12  1  0
 12 13  2  0
 13 14  1  0
 14 15  2  0
 15 16  1  0
 16 17  1  0
 17 18  1  0
 18 19  1  0
 19 20  1  0
 20 21  1  0
 18 22  1  0
 22 23  2  0
 23 24  1  0
 24 25  2  0
 25 26  1  0
 26 27  1  0
 27 28  2  0
 24 29  1  0
 29 30  1  0
 29 31  2  0
  6  2  1  0
 28 12  1  0
 27 15  1  0
 21 18  1  0
 26 22  1  0
  1 32  1  0
  1 33  1  0
  1 34  1  0
  3 35  1  0
  8 36  1  0
  8 37  1  0
  8 38  1  0
  9 39  1  0
 13 40  1  0
 14 41  1  0
 17 42  1  0
 17 43  1  0
 19 44  1  0
 19 45  1  0
 20 46  1  0
 20 47  1  0
 21 48  1  0
 21 49  1  0
 23 50  1  0
 28 51  1  0
 30 52  1  0
 30 53  1  0
M  END
$$$$
[H]OC(C#Cc1c([H])c([H])c2c(c1[H])-c1nc(C(=O)N([H])[H])c(-c3c([H])nn([H])c3[H])n1C([H])([H])C([H])([H])O2)(C([H])([H])[H])C([H])([H])[H]
     RDKit          3D

 47 50  0  0  0  0  0  0  0  0999 V2000
   -6.0458   -1.5496   -1.3548 C   0  0  0  0  0  0  0  0  0  0  0  0
   -5.8800   -0.7072   -0.1127 C   0  0  0  0  0  0  0  0  0  0  0  0
   -5.9515   -1.6157    1.0804 C   0  0  0  0  0  0  0  0  0  0  0  0
   -6.9906    0.1518   -0.0464 O   0  0  0  0  0  0  0  0  0  0  0  0
   -4.6259    0.0101   -0.1405 C   0  0  0  0  0  0  0  0  0  0  0  0
   -3.5760    0.6010   -0.1824 C   0  0  0  0  0  0  0  0  0  0  0  0
   -2.2993    1.3059   -0.2554 C   0  0  0  0  0  0  0  0  0  0  0  0
   -2.2642    2.6658   -0.4969 C   0  0  0  0  0  0  0  0  0  0  0  0
   -1.0543    3.3626   -0.5718 C   0  0  0  0  0  0  0  0  0  0  0  0
    0.1092    2.6584   -0.3983 C   0  0  0  0  0  0  0  0  0  0  0  0
    1.2874    3.4396   -0.4918 O   0  0  0  0  0  0  0  0  0  0  0  0
    2.4782    2.9199   -1.0360 C   0  0  0  0  0  0  0  0  0  0  0  0
    3.2236    1.9808   -0.0825 C   0  0  0  0  0  0  0  0  0  0  0  0
    2.5516    0.7231    0.1584 N   0  0  0  0  0  0  0  0  0  0  0  0
    1.2334    0.4269    0.0821 C   0  0  0  0  0  0  0  0  0  0  0  0
    1.0633   -0.8720    0.3160 N   0  0  0  0  0  0  0  0  0  0  0  0
    2.3090   -1.4282    0.5565 C   0  0  0  0  0  0  0  0  0  0  0  0
    2.4239   -2.8453    0.9022 C   0  0  0  0  0  0  0  0  0  0  0  0
    1.5285   -3.7947    0.2599 N   0  0  0  0  0  0  0  0  0  0  0  0
    3.2379   -3.3031    1.7117 O   0  0  0  0  0  0  0  0  0  0  0  0
    3.2433   -0.4446    0.4587 C   0  0  0  0  0  0  0  0  0  0  0  0
    4.7163   -0.6037    0.4439 C   0  0  0  0  0  0  0  0  0  0  0  0
    5.4497   -1.7633    0.3627 C   0  0  0  0  0  0  0  0  0  0  0  0
    6.7616   -1.4723    0.5674 N   0  0  0  0  0  0  0  0  0  0  0  0
    6.9245   -0.2102    0.7721 N   0  0  0  0  0  0  0  0  0  0  0  0
    5.6875    0.3648    0.7049 C   0  0  0  0  0  0  0  0  0  0  0  0
    0.0669    1.3050   -0.1573 C   0  0  0  0  0  0  0  0  0  0  0  0
   -1.1286    0.6059   -0.0819 C   0  0  0  0  0  0  0  0  0  0  0  0
   -5.5177   -1.0492   -2.1758 H   0  0  0  0  0  0  0  0  0  0  0  0
   -7.1132   -1.6565   -1.6156 H   0  0  0  0  0  0  0  0  0  0  0  0
   -5.5431   -2.5376   -1.2147 H   0  0  0  0  0  0  0  0  0  0  0  0
   -6.7837   -2.3319    0.9129 H   0  0  0  0  0  0  0  0  0  0  0  0
   -5.0022   -2.1551    1.2721 H   0  0  0  0  0  0  0  0  0  0  0  0
   -6.1872   -1.0621    2.0076 H   0  0  0  0  0  0  0  0  0  0  0  0
   -7.0889    0.6658   -0.8854 H   0  0  0  0  0  0  0  0  0  0  0  0
   -3.1783    3.2146   -0.6324 H   0  0  0  0  0  0  0  0  0  0  0  0
   -1.0007    4.4109   -0.7569 H   0  0  0  0  0  0  0  0  0  0  0  0
    2.3384    2.3327   -1.9654 H   0  0  0  0  0  0  0  0  0  0  0  0
    3.1973    3.7376   -1.2893 H   0  0  0  0  0  0  0  0  0  0  0  0
    3.5340    2.5279    0.7994 H   0  0  0  0  0  0  0  0  0  0  0  0
    4.1063    1.6871   -0.7559 H   0  0  0  0  0  0  0  0  0  0  0  0
    1.1821   -3.5237   -0.6769 H   0  0  0  0  0  0  0  0  0  0  0  0
    1.2431   -4.6785    0.6804 H   0  0  0  0  0  0  0  0  0  0  0  0
    5.0795   -2.7545    0.1208 H   0  0  0  0  0  0  0  0  0  0  0  0
    7.8256    0.3104    0.9586 H   0  0  0  0  0  0  0  0  0  0  0  0
    5.5506    1.4011    0.8669 H   0  0  0  0  0  0  0  0  0  0  0  0
   -1.1212   -0.4507    0.1071 H   0  0  0  0  0  0  0  0  0  0  0  0
  1  2  1  0
  2  3  1  0
  2  4  1  0
  2  5  1  0
  5  6  3  0
  6  7  1  0
  7  8  2  0
  8  9  1  0
  9 10  2  0
 10 11  1  0
 11 12  1  0
 12 13  1  0
 13 14  1  0
 14 15  1  0
 15 16  2  0
 16 17  1  0
 17 18  1  0
 18 19  1  0
 18 20  2  0
 17 21  2  0
 21 22  1  0
 22 23  1  0
 23 24  2  0
 24 25  1  0
 25 26  1  0
 15 27  1  0
 27 28  2  0
 28  7  1  0
 27 10  1  0
 21 14  1  0
 26 22  2  0
  1 29  1  0
  1 30  1  0
  1 31  1  0
  3 32  1  0
  3 33  1  0
  3 34  1  0
  4 35  1  0
  8 36  1  0
  9 37  1  0
 12 38  1  0
 12 39  1  0
 13 40  1  0
 13 41  1  0
 19 42  1  0
 19 43  1  0
 23 44  1  0
 25 45  1  0
 26 46  1  0
 28 47  1  0
M  END
$$$$
[H]O[C@](C#Cc1c([H])c([H])c2c(c1[H])-c1nc(C(=O)N([H])[H])c([H])n1C1([H])C([H])([H])C2([H])C1([H])[H])(c1nc([H])c(C([H])([H])[H])o1)C([H])([H])[H]
     RDKit          3D

 49 53  0  0  0  0  0  0  0  0999 V2000
   -7.6443    0.0310   -0.0283 C   0  0  0  0  0  0  0  0  0  0  0  0
   -6.6486   -1.0122    0.3002 C   0  0  0  0  0  0  0  0  0  0  0  0
   -6.6675   -1.9743    1.2724 C   0  0  0  0  0  0  0  0  0  0  0  0
   -5.5259   -2.6615    1.1408 N   0  0  0  0  0  0  0  0  0  0  0  0
   -4.8149   -2.1473    0.1194 C   0  0  0  0  0  0  0  0  0  0  0  0
   -5.5076   -1.1592   -0.3693 O   0  0  0  0  0  0  0  0  0  0  0  0
   -3.4881   -2.6410   -0.3384 C   0  0  2  0  0  0  0  0  0  0  0  0
   -3.5367   -3.0333   -1.7993 C   0  0  0  0  0  0  0  0  0  0  0  0
   -3.1255   -3.7627    0.3774 O   0  0  0  0  0  0  0  0  0  0  0  0
   -2.4523   -1.5842   -0.2478 C   0  0  0  0  0  0  0  0  0  0  0  0
   -1.6054   -0.7247   -0.1963 C   0  0  0  0  0  0  0  0  0  0  0  0
   -0.5930    0.3001   -0.1116 C   0  0  0  0  0  0  0  0  0  0  0  0
   -0.9134    1.6423    0.0031 C   0  0  0  0  0  0  0  0  0  0  0  0
    0.0343    2.6426    0.0852 C   0  0  0  0  0  0  0  0  0  0  0  0
    1.3470    2.3057    0.0530 C   0  0  0  0  0  0  0  0  0  0  0  0
    2.2995    3.4725    0.1532 C   0  0  0  0  0  0  0  0  0  0  0  0
    3.4014    3.1703    1.1731 C   0  0  0  0  0  0  0  0  0  0  0  0
    4.3286    2.6364    0.0949 C   0  0  0  0  0  0  0  0  0  0  0  0
    3.3766    3.3160   -0.8997 C   0  0  0  0  0  0  0  0  0  0  0  0
    4.2398    1.1909   -0.0376 N   0  0  0  0  0  0  0  0  0  0  0  0
    5.2856    0.3649   -0.1092 C   0  0  0  0  0  0  0  0  0  0  0  0
    4.8301   -0.9522   -0.2291 C   0  0  0  0  0  0  0  0  0  0  0  0
    3.4833   -0.8450   -0.2232 N   0  0  0  0  0  0  0  0  0  0  0  0
    3.1032    0.4332   -0.1088 C   0  0  0  0  0  0  0  0  0  0  0  0
    1.7352    0.9675   -0.0615 C   0  0  0  0  0  0  0  0  0  0  0  0
    0.7535    0.0033   -0.1404 C   0  0  0  0  0  0  0  0  0  0  0  0
    5.6364   -2.1567   -0.3310 C   0  0  0  0  0  0  0  0  0  0  0  0
    7.0420   -2.0825   -0.2925 N   0  0  0  0  0  0  0  0  0  0  0  0
    5.0766   -3.2681   -0.4534 O   0  0  0  0  0  0  0  0  0  0  0  0
   -8.6419   -0.3857    0.2191 H   0  0  0  0  0  0  0  0  0  0  0  0
   -7.6312    0.2482   -1.1174 H   0  0  0  0  0  0  0  0  0  0  0  0
   -7.4333    0.9374    0.5794 H   0  0  0  0  0  0  0  0  0  0  0  0
   -7.4392   -2.1410    1.9891 H   0  0  0  0  0  0  0  0  0  0  0  0
   -4.0562   -4.0028   -1.9198 H   0  0  0  0  0  0  0  0  0  0  0  0
   -3.9943   -2.2604   -2.4287 H   0  0  0  0  0  0  0  0  0  0  0  0
   -2.4649   -3.2409   -2.0925 H   0  0  0  0  0  0  0  0  0  0  0  0
   -2.9358   -3.5930    1.3326 H   0  0  0  0  0  0  0  0  0  0  0  0
   -1.9674    1.8817    0.0268 H   0  0  0  0  0  0  0  0  0  0  0  0
   -0.2299    3.6976    0.1738 H   0  0  0  0  0  0  0  0  0  0  0  0
    1.8133    4.4335    0.2440 H   0  0  0  0  0  0  0  0  0  0  0  0
    3.0349    2.3972    1.8726 H   0  0  0  0  0  0  0  0  0  0  0  0
    3.7810    4.0783    1.6877 H   0  0  0  0  0  0  0  0  0  0  0  0
    5.3397    3.0199    0.0960 H   0  0  0  0  0  0  0  0  0  0  0  0
    3.7839    4.3060   -1.1832 H   0  0  0  0  0  0  0  0  0  0  0  0
    3.1258    2.6444   -1.7462 H   0  0  0  0  0  0  0  0  0  0  0  0
    6.3279    0.6422   -0.0816 H   0  0  0  0  0  0  0  0  0  0  0  0
    1.0231   -1.0480   -0.2310 H   0  0  0  0  0  0  0  0  0  0  0  0
    7.5002   -1.1303   -0.2943 H   0  0  0  0  0  0  0  0  0  0  0  0
    7.6142   -2.9563   -0.2636 H   0  0  0  0  0  0  0  0  0  0  0  0
  1  2  1  0
  2  3  2  0
  3  4  1  0
  4  5  2  0
  5  6  1  0
  5  7  1  0
  7  8  1  0
  7  9  1  0
  7 10  1  6
 10 11  3  0
 11 12  1  0
 12 13  2  0
 13 14  1  0
 14 15  2  0
 15 16  1  0
 16 17  1  0
 17 18  1  0
 18 19  1  0
 18 20  1  0
 20 21  1  0
 21 22  2  0
 22 23  1  0
 23 24  2  0
 24 25  1  0
 25 26  2  0
 22 27  1  0
 27 28  1  0
 27 29  2  0
  6  2  1  0
 26 12  1  0
 25 15  1  0
 19 16  1  0
 24 20  1  0
  1 30  1  0
  1 31  1  0
  1 32  1  0
  3 33  1  0
  8 34  1  0
  8 35  1  0
  8 36  1  0
  9 37  1  0
 13 38  1  0
 14 39  1  0
 16 40  1  0
 17 41  1  0
 17 42  1  0
 18 43  1  0
 19 44  1  0
 19 45  1  0
 21 46  1  0
 26 47  1  0
 28 48  1  0
 28 49  1  0
M  END
$$$$
[H]O[C@]1(C#Cc2c([H])c([H])c([H])c(-c3nc(C(=O)N([H])[H])c([H])nc3[H])c2[H])C(=O)N(C([H])([H])[H])C([H])([H])C1([H])[H]
     RDKit          3D

 41 43  0  0  0  0  0  0  0  0999 V2000
   -6.3175   -2.0287    0.0564 C   0  0  0  0  0  0  0  0  0  0  0  0
   -5.4699   -0.8409    0.1483 N   0  0  0  0  0  0  0  0  0  0  0  0
   -5.5735    0.0968    1.2446 C   0  0  0  0  0  0  0  0  0  0  0  0
   -4.2314    0.7774    1.2260 C   0  0  0  0  0  0  0  0  0  0  0  0
   -3.9333    0.8558   -0.2551 C   0  0  1  0  0  0  0  0  0  0  0  0
   -4.6250    1.9517   -0.7551 O   0  0  0  0  0  0  0  0  0  0  0  0
   -2.4973    0.9261   -0.5262 C   0  0  0  0  0  0  0  0  0  0  0  0
   -1.3104    1.0020   -0.7581 C   0  0  0  0  0  0  0  0  0  0  0  0
    0.0965    1.1088   -1.0486 C   0  0  0  0  0  0  0  0  0  0  0  0
    0.5577    1.9836   -2.0364 C   0  0  0  0  0  0  0  0  0  0  0  0
    1.9093    2.0528   -2.2800 C   0  0  0  0  0  0  0  0  0  0  0  0
    2.7679    1.2626   -1.5481 C   0  0  0  0  0  0  0  0  0  0  0  0
    2.3481    0.3825   -0.5599 C   0  0  0  0  0  0  0  0  0  0  0  0
    0.9892    0.3290   -0.3321 C   0  0  0  0  0  0  0  0  0  0  0  0
    3.3121   -0.4303    0.1828 C   0  0  0  0  0  0  0  0  0  0  0  0
    2.9628   -1.3180    1.1703 C   0  0  0  0  0  0  0  0  0  0  0  0
    3.9109   -2.0503    1.8295 N   0  0  0  0  0  0  0  0  0  0  0  0
    5.2146   -1.9242    1.5314 C   0  0  0  0  0  0  0  0  0  0  0  0
    5.5730   -1.0394    0.5459 C   0  0  0  0  0  0  0  0  0  0  0  0
    4.6217   -0.3183   -0.1010 N   0  0  0  0  0  0  0  0  0  0  0  0
    6.9862   -0.8882    0.2073 C   0  0  0  0  0  0  0  0  0  0  0  0
    7.4374    0.0005   -0.7940 N   0  0  0  0  0  0  0  0  0  0  0  0
    7.8444   -1.5748    0.8292 O   0  0  0  0  0  0  0  0  0  0  0  0
   -4.4571   -0.4281   -0.7716 C   0  0  0  0  0  0  0  0  0  0  0  0
   -4.1472   -1.0907   -1.7842 O   0  0  0  0  0  0  0  0  0  0  0  0
   -7.3035   -1.6575   -0.3497 H   0  0  0  0  0  0  0  0  0  0  0  0
   -6.4409   -2.4630    1.0706 H   0  0  0  0  0  0  0  0  0  0  0  0
   -5.8415   -2.7398   -0.6480 H   0  0  0  0  0  0  0  0  0  0  0  0
   -6.4023    0.8000    1.0641 H   0  0  0  0  0  0  0  0  0  0  0  0
   -5.7438   -0.4232    2.2132 H   0  0  0  0  0  0  0  0  0  0  0  0
   -4.3964    1.8108    1.6495 H   0  0  0  0  0  0  0  0  0  0  0  0
   -3.4974    0.2065    1.7951 H   0  0  0  0  0  0  0  0  0  0  0  0
   -3.9472    2.6431   -0.9684 H   0  0  0  0  0  0  0  0  0  0  0  0
   -0.1709    2.5794   -2.5780 H   0  0  0  0  0  0  0  0  0  0  0  0
    2.2770    2.7344   -3.0507 H   0  0  0  0  0  0  0  0  0  0  0  0
    3.8190    1.3210   -1.7424 H   0  0  0  0  0  0  0  0  0  0  0  0
    0.5837   -0.3183    0.4070 H   0  0  0  0  0  0  0  0  0  0  0  0
    1.9268   -1.4334    1.4233 H   0  0  0  0  0  0  0  0  0  0  0  0
    5.9596   -2.5143    2.0649 H   0  0  0  0  0  0  0  0  0  0  0  0
    7.4008   -0.2764   -1.7919 H   0  0  0  0  0  0  0  0  0  0  0  0
    7.8076    0.9331   -0.5443 H   0  0  0  0  0  0  0  0  0  0  0  0
  1  2  1  0
  2  3  1  0
  3  4  1  0
  4  5  1  0
  5  6  1  0
  5  7  1  1
  7  8  3  0
  8  9  1  0
  9 10  2  0
 10 11  1  0
 11 12  2  0
 12 13  1  0
 13 14  2  0
 13 15  1  0
 15 16  2  0
 16 17  1  0
 17 18  2  0
 18 19  1  0
 19 20  2  0
 19 21  1  0
 21 22  1  0
 21 23  2  0
  5 24  1  0
 24 25  2  0
 24  2  1  0
 14  9  1  0
 20 15  1  0
  1 26  1  0
  1 27  1  0
  1 28  1  0
  3 29  1  0
  3 30  1  0
  4 31  1  0
  4 32  1  0
  6 33  1  0
 10 34  1  0
 11 35  1  0
 12 36  1  0
 14 37  1  0
 16 38  1  0
 18 39  1  0
 22 40  1  0
 22 41  1  0
M  END
$$$$
[H]O[C@]1(C#Cc2c([H])c([H])c3c(c2[H])-c2nc(C(=O)N([H])[H])c(C([H])([H])c4c([H])c([H])c([H])c([H])c4Cl)n2C2([H])C([H])([H])C3([H])C2([H])[H])C(=O)N(C([H])([H])[H])C([H])([H])C1([H])[H]
     RDKit          3D

 61 66  0  0  0  0  0  0  0  0999 V2000
    8.8962   -1.2027   -1.4535 C   0  0  0  0  0  0  0  0  0  0  0  0
    7.6901   -0.4366   -1.2498 N   0  0  0  0  0  0  0  0  0  0  0  0
    7.4901    0.8955   -1.8286 C   0  0  0  0  0  0  0  0  0  0  0  0
    6.0558    1.2696   -1.4538 C   0  0  0  0  0  0  0  0  0  0  0  0
    5.9474    0.5439   -0.1164 C   0  0  1  0  0  0  0  0  0  0  0  0
    6.8392    1.0979    0.8065 O   0  0  0  0  0  0  0  0  0  0  0  0
    4.6096    0.4524    0.3712 C   0  0  0  0  0  0  0  0  0  0  0  0
    3.4894    0.4018    0.8050 C   0  0  0  0  0  0  0  0  0  0  0  0
    2.1516    0.3745    1.3548 C   0  0  0  0  0  0  0  0  0  0  0  0
    1.9154    0.8564    2.6353 C   0  0  0  0  0  0  0  0  0  0  0  0
    0.6690    0.8766    3.2127 C   0  0  0  0  0  0  0  0  0  0  0  0
   -0.3663    0.3897    2.4591 C   0  0  0  0  0  0  0  0  0  0  0  0
   -1.6960    0.4654    3.1796 C   0  0  0  0  0  0  0  0  0  0  0  0
   -2.3960   -0.8234    2.9086 C   0  0  0  0  0  0  0  0  0  0  0  0
   -3.1970   -0.1984    1.7178 C   0  0  0  0  0  0  0  0  0  0  0  0
   -2.6730    1.1319    2.2032 C   0  0  0  0  0  0  0  0  0  0  0  0
   -2.5784   -0.6240    0.4736 N   0  0  0  0  0  0  0  0  0  0  0  0
   -3.2118   -1.1557   -0.6153 C   0  0  0  0  0  0  0  0  0  0  0  0
   -4.6615   -1.1621   -0.8259 C   0  0  0  0  0  0  0  0  0  0  0  0
   -5.3732    0.0820   -1.1384 C   0  0  0  0  0  0  0  0  0  0  0  0
   -6.2087    0.5723   -0.0978 C   0  0  0  0  0  0  0  0  0  0  0  0
   -6.9849    1.6882   -0.1770 C   0  0  0  0  0  0  0  0  0  0  0  0
   -6.9787    2.4169   -1.3444 C   0  0  0  0  0  0  0  0  0  0  0  0
   -6.1866    1.9742   -2.3685 C   0  0  0  0  0  0  0  0  0  0  0  0
   -5.3925    0.8194   -2.2671 C   0  0  0  0  0  0  0  0  0  0  0  0
   -4.4376    0.3670   -3.6584 Cl  0  0  0  0  0  0  0  0  0  0  0  0
   -2.2335   -1.5129   -1.4988 C   0  0  0  0  0  0  0  0  0  0  0  0
   -1.0253   -1.1676   -0.9150 N   0  0  0  0  0  0  0  0  0  0  0  0
   -1.2289   -0.6284    0.2794 C   0  0  0  0  0  0  0  0  0  0  0  0
   -0.1827   -0.1016    1.1802 C   0  0  0  0  0  0  0  0  0  0  0  0
    1.0742   -0.1038    0.6435 C   0  0  0  0  0  0  0  0  0  0  0  0
   -2.2504   -2.2929   -2.7452 C   0  0  0  0  0  0  0  0  0  0  0  0
   -3.3583   -3.0678   -3.1374 N   0  0  0  0  0  0  0  0  0  0  0  0
   -1.2343   -2.2726   -3.4895 O   0  0  0  0  0  0  0  0  0  0  0  0
    6.5067   -0.7788   -0.4898 C   0  0  0  0  0  0  0  0  0  0  0  0
    6.1431   -1.9458   -0.2668 O   0  0  0  0  0  0  0  0  0  0  0  0
    9.0567   -1.5017   -2.5081 H   0  0  0  0  0  0  0  0  0  0  0  0
    9.8031   -0.5975   -1.1663 H   0  0  0  0  0  0  0  0  0  0  0  0
    8.9369   -2.0918   -0.7675 H   0  0  0  0  0  0  0  0  0  0  0  0
    7.6902    0.9265   -2.8964 H   0  0  0  0  0  0  0  0  0  0  0  0
    8.1799    1.6179   -1.3043 H   0  0  0  0  0  0  0  0  0  0  0  0
    5.3270    0.8188   -2.1392 H   0  0  0  0  0  0  0  0  0  0  0  0
    5.9408    2.3444   -1.2873 H   0  0  0  0  0  0  0  0  0  0  0  0
    6.6256    0.6648    1.6776 H   0  0  0  0  0  0  0  0  0  0  0  0
    2.7790    1.2260    3.1805 H   0  0  0  0  0  0  0  0  0  0  0  0
    0.4927    1.2545    4.2058 H   0  0  0  0  0  0  0  0  0  0  0  0
   -1.6650    0.8583    4.1801 H   0  0  0  0  0  0  0  0  0  0  0  0
   -1.7654   -1.6270    2.5034 H   0  0  0  0  0  0  0  0  0  0  0  0
   -3.0718   -1.2052    3.7037 H   0  0  0  0  0  0  0  0  0  0  0  0
   -4.2536   -0.4184    1.8419 H   0  0  0  0  0  0  0  0  0  0  0  0
   -3.4332    1.6588    2.8438 H   0  0  0  0  0  0  0  0  0  0  0  0
   -2.2033    1.7693    1.4416 H   0  0  0  0  0  0  0  0  0  0  0  0
   -4.9487   -1.8698   -1.6641 H   0  0  0  0  0  0  0  0  0  0  0  0
   -5.1728   -1.6556    0.0544 H   0  0  0  0  0  0  0  0  0  0  0  0
   -6.2493    0.0112    0.8247 H   0  0  0  0  0  0  0  0  0  0  0  0
   -7.5952    1.9922    0.6736 H   0  0  0  0  0  0  0  0  0  0  0  0
   -7.5848    3.3013   -1.4317 H   0  0  0  0  0  0  0  0  0  0  0  0
   -6.1401    2.5081   -3.3148 H   0  0  0  0  0  0  0  0  0  0  0  0
    1.2035   -0.4942   -0.3602 H   0  0  0  0  0  0  0  0  0  0  0  0
   -3.6970   -3.8996   -2.6197 H   0  0  0  0  0  0  0  0  0  0  0  0
   -3.8774   -2.7917   -3.9978 H   0  0  0  0  0  0  0  0  0  0  0  0
  1  2  1  0
  2  3  1  0
  3  4  1  0
  4  5  1  0
  5  6  1  0
  5  7  1  1
  7  8  3  0
  8  9  1  0
  9 10  2  0
 10 11  1  0
 11 12  2  0
 12 13  1  0
 13 14  1  0
 14 15  1  0
 15 16  1  0
 15 17  1  0
 17 18  1  0
 18 19  1  0
 19 20  1  0
 20 21  2  0
 21 22  1  0
 22 23  2  0
 23 24  1  0
 24 25  2  0
 25 26  1  0
 18 27  2  0
 27 28  1  0
 28 29  2  0
 29 30  1  0
 30 31  2  0
 27 32  1  0
 32 33  1  0
 32 34  2  0
  5 35  1  0
 35 36  2  0
 35  2  1  0
 31  9  1  0
 30 12  1  0
 16 13  1  0
 29 17  1  0
 25 20  1  0
  1 37  1  0
  1 38  1  0
  1 39  1  0
  3 40  1  0
  3 41  1  0
  4 42  1  0
  4 43  1  0
  6 44  1  0
 10 45  1  0
 11 46  1  0
 13 47  1  0
 14 48  1  0
 14 49  1  0
 15 50  1  0
 16 51  1  0
 16 52  1  0
 19 53  1  0
 19 54  1  0
 21 55  1  0
 22 56  1  0
 23 57  1  0
 24 58  1  0
 31 59  1  0
 33 60  1  0
 33 61  1  0
M  END
$$$$
[H]O[C@](C#Cc1c([H])c2c(c([H])c1F)OC([H])([H])C([H])([H])n1c-2nc(C(=O)N([H])[H])c1C(=O)N([H])C([H])([H])[H])(c1noc(C([H])([H])[H])c1[H])C([H])([H])[H]
     RDKit          3D

 53 56  0  0  0  0  0  0  0  0999 V2000
   -7.9531    0.7325   -0.0992 C   0  0  0  0  0  0  0  0  0  0  0  0
   -6.5607    0.2348   -0.0879 N   0  0  0  0  0  0  0  0  0  0  0  0
   -5.5564    1.0700    0.4642 C   0  0  0  0  0  0  0  0  0  0  0  0
   -5.9290    2.2131    0.9382 O   0  0  0  0  0  0  0  0  0  0  0  0
   -4.1665    0.6632    0.4990 C   0  0  0  0  0  0  0  0  0  0  0  0
   -3.2707    0.9887    1.4992 C   0  0  0  0  0  0  0  0  0  0  0  0
   -2.0557    0.4939    1.0871 N   0  0  0  0  0  0  0  0  0  0  0  0
   -2.2422   -0.0907   -0.0873 C   0  0  0  0  0  0  0  0  0  0  0  0
   -1.1428   -0.7533   -0.8119 C   0  0  0  0  0  0  0  0  0  0  0  0
    0.0844   -0.1864   -0.5645 C   0  0  0  0  0  0  0  0  0  0  0  0
    1.2235   -0.6949   -1.1810 C   0  0  0  0  0  0  0  0  0  0  0  0
    2.5113   -0.0851   -0.9641 C   0  0  0  0  0  0  0  0  0  0  0  0
    3.5752    0.4540   -0.8053 C   0  0  0  0  0  0  0  0  0  0  0  0
    4.8514    1.1403   -0.6320 C   0  0  1  0  0  0  0  0  0  0  0  0
    5.4999    1.4131   -2.0033 C   0  0  0  0  0  0  0  0  0  0  0  0
    4.6364    2.4409   -0.1057 O   0  0  0  0  0  0  0  0  0  0  0  0
    5.7133    0.3398    0.2144 C   0  0  0  0  0  0  0  0  0  0  0  0
    6.9905   -0.0886   -0.0446 C   0  0  0  0  0  0  0  0  0  0  0  0
    7.4482   -0.8158    1.0296 C   0  0  0  0  0  0  0  0  0  0  0  0
    8.7524   -1.4726    1.2118 C   0  0  0  0  0  0  0  0  0  0  0  0
    6.4518   -0.8228    1.9195 O   0  0  0  0  0  0  0  0  0  0  0  0
    5.4348   -0.1420    1.4367 N   0  0  0  0  0  0  0  0  0  0  0  0
    1.0351   -1.7663   -2.0212 C   0  0  0  0  0  0  0  0  0  0  0  0
    2.1448   -2.2898   -2.6405 F   0  0  0  0  0  0  0  0  0  0  0  0
   -0.2177   -2.3331   -2.2628 C   0  0  0  0  0  0  0  0  0  0  0  0
   -1.3496   -1.8294   -1.6544 C   0  0  0  0  0  0  0  0  0  0  0  0
   -2.5332   -2.4807   -1.9813 O   0  0  0  0  0  0  0  0  0  0  0  0
   -3.8542   -2.0218   -1.6887 C   0  0  0  0  0  0  0  0  0  0  0  0
   -4.0178   -0.5344   -1.7464 C   0  0  0  0  0  0  0  0  0  0  0  0
   -3.5551   -0.0003   -0.4822 N   0  0  0  0  0  0  0  0  0  0  0  0
   -3.4656    1.6450    2.7900 C   0  0  0  0  0  0  0  0  0  0  0  0
   -4.6909    1.9183    3.4163 N   0  0  0  0  0  0  0  0  0  0  0  0
   -2.4123    2.0030    3.4204 O   0  0  0  0  0  0  0  0  0  0  0  0
   -8.4064    0.5053    0.8606 H   0  0  0  0  0  0  0  0  0  0  0  0
   -8.5000    0.3715   -0.9774 H   0  0  0  0  0  0  0  0  0  0  0  0
   -7.8849    1.8454   -0.1822 H   0  0  0  0  0  0  0  0  0  0  0  0
   -6.3979   -0.6993   -0.4626 H   0  0  0  0  0  0  0  0  0  0  0  0
    0.1348    0.6522    0.1031 H   0  0  0  0  0  0  0  0  0  0  0  0
    6.0083    0.5046   -2.3838 H   0  0  0  0  0  0  0  0  0  0  0  0
    6.2872    2.1697   -1.8156 H   0  0  0  0  0  0  0  0  0  0  0  0
    4.7013    1.7389   -2.6719 H   0  0  0  0  0  0  0  0  0  0  0  0
    5.4827    2.7396    0.2688 H   0  0  0  0  0  0  0  0  0  0  0  0
    7.5334    0.1281   -0.9828 H   0  0  0  0  0  0  0  0  0  0  0  0
    9.3805   -1.4665    0.3242 H   0  0  0  0  0  0  0  0  0  0  0  0
    8.5574   -2.5024    1.5932 H   0  0  0  0  0  0  0  0  0  0  0  0
    9.2776   -0.9400    2.0258 H   0  0  0  0  0  0  0  0  0  0  0  0
   -0.3235   -3.1660   -2.9280 H   0  0  0  0  0  0  0  0  0  0  0  0
   -4.5388   -2.4592   -2.4467 H   0  0  0  0  0  0  0  0  0  0  0  0
   -4.1227   -2.3297   -0.6389 H   0  0  0  0  0  0  0  0  0  0  0  0
   -3.2281   -0.1740   -2.5173 H   0  0  0  0  0  0  0  0  0  0  0  0
   -4.9817   -0.1923   -2.0743 H   0  0  0  0  0  0  0  0  0  0  0  0
   -5.0230    2.8407    3.7227 H   0  0  0  0  0  0  0  0  0  0  0  0
   -5.3357    1.0907    3.5917 H   0  0  0  0  0  0  0  0  0  0  0  0
  1  2  1  0
  2  3  1  0
  3  4  2  0
  3  5  1  0
  5  6  2  0
  6  7  1  0
  7  8  2  0
  8  9  1  0
  9 10  2  0
 10 11  1  0
 11 12  1  0
 12 13  3  0
 14 13  1  6
 14 15  1  0
 14 16  1  0
 14 17  1  0
 17 18  1  0
 18 19  2  0
 19 20  1  0
 19 21  1  0
 21 22  1  0
 11 23  2  0
 23 24  1  0
 23 25  1  0
 25 26  2  0
 26 27  1  0
 27 28  1  0
 28 29  1  0
 29 30  1  0
  6 31  1  0
 31 32  1  0
 31 33  2  0
 30  5  1  0
 30  8  1  0
 26  9  1  0
 22 17  2  0
  1 34  1  0
  1 35  1  0
  1 36  1  0
  2 37  1  0
 10 38  1  0
 15 39  1  0
 15 40  1  0
 15 41  1  0
 16 42  1  0
 18 43  1  0
 20 44  1  0
 20 45  1  0
 20 46  1  0
 25 47  1  0
 28 48  1  0
 28 49  1  0
 29 50  1  0
 29 51  1  0
 32 52  1  0
 32 53  1  0
M  END
$$$$
[H]O[C@](C#Cc1c([H])c([H])c2c(c1[H])-c1nc(C(=O)N([H])[H])c(C(=O)N([H])C([H])([H])[H])n1C1([H])C([H])([H])C2([H])C1([H])[H])(c1noc(C([H])([H])[H])n1)C([H])([H])[H]
     RDKit          3D

 55 59  0  0  0  0  0  0  0  0999 V2000
   -7.5377    0.0024    1.8241 C   0  0  0  0  0  0  0  0  0  0  0  0
   -6.1580   -0.3191    1.5631 N   0  0  0  0  0  0  0  0  0  0  0  0
   -5.4726    0.2245    0.4662 C   0  0  0  0  0  0  0  0  0  0  0  0
   -6.1031    1.0182   -0.2770 O   0  0  0  0  0  0  0  0  0  0  0  0
   -4.0688   -0.1263    0.2192 C   0  0  0  0  0  0  0  0  0  0  0  0
   -3.4375   -1.3299    0.2463 C   0  0  0  0  0  0  0  0  0  0  0  0
   -2.1006   -1.1084    0.0645 N   0  0  0  0  0  0  0  0  0  0  0  0
   -1.9302    0.1969   -0.0727 C   0  0  0  0  0  0  0  0  0  0  0  0
   -0.6147    0.8628   -0.2951 C   0  0  0  0  0  0  0  0  0  0  0  0
    0.4307   -0.0105   -0.3333 C   0  0  0  0  0  0  0  0  0  0  0  0
    1.7080    0.4562   -0.5322 C   0  0  0  0  0  0  0  0  0  0  0  0
    1.9203    1.7943   -0.6905 C   0  0  0  0  0  0  0  0  0  0  0  0
    0.8883    2.7421   -0.6614 C   0  0  0  0  0  0  0  0  0  0  0  0
   -0.3647    2.2136   -0.4591 C   0  0  0  0  0  0  0  0  0  0  0  0
   -1.4254    3.2864   -0.4355 C   0  0  0  0  0  0  0  0  0  0  0  0
   -2.3297    3.0390    0.7795 C   0  0  0  0  0  0  0  0  0  0  0  0
   -3.3381    2.2689   -0.0769 C   0  0  0  0  0  0  0  0  0  0  0  0
   -2.6010    2.8527   -1.2881 C   0  0  0  0  0  0  0  0  0  0  0  0
   -3.1189    0.8221    0.0174 N   0  0  0  0  0  0  0  0  0  0  0  0
    2.7601   -0.5252   -0.5586 C   0  0  0  0  0  0  0  0  0  0  0  0
    3.6489   -1.3438   -0.5602 C   0  0  0  0  0  0  0  0  0  0  0  0
    4.7560   -2.3339   -0.5473 C   0  0  1  0  0  0  0  0  0  0  0  0
    4.7321   -2.9969    0.8215 C   0  0  0  0  0  0  0  0  0  0  0  0
    4.5194   -3.2275   -1.5632 O   0  0  0  0  0  0  0  0  0  0  0  0
    6.0660   -1.6841   -0.6957 C   0  0  0  0  0  0  0  0  0  0  0  0
    6.9594   -1.9414   -1.6541 N   0  0  0  0  0  0  0  0  0  0  0  0
    8.0032   -1.1755   -1.4691 O   0  0  0  0  0  0  0  0  0  0  0  0
    7.8409   -0.4110   -0.4166 C   0  0  0  0  0  0  0  0  0  0  0  0
    8.7822    0.6073    0.1515 C   0  0  0  0  0  0  0  0  0  0  0  0
    6.6072   -0.7352    0.0755 N   0  0  0  0  0  0  0  0  0  0  0  0
   -4.0439   -2.6573    0.3451 C   0  0  0  0  0  0  0  0  0  0  0  0
   -5.4099   -2.9501    0.1692 N   0  0  0  0  0  0  0  0  0  0  0  0
   -3.3066   -3.6732    0.6065 O   0  0  0  0  0  0  0  0  0  0  0  0
   -7.6119    0.7725    2.6235 H   0  0  0  0  0  0  0  0  0  0  0  0
   -8.0548    0.3413    0.8993 H   0  0  0  0  0  0  0  0  0  0  0  0
   -8.1268   -0.8700    2.1930 H   0  0  0  0  0  0  0  0  0  0  0  0
   -5.6773   -0.9444    2.2270 H   0  0  0  0  0  0  0  0  0  0  0  0
    0.2313   -1.0582   -0.2053 H   0  0  0  0  0  0  0  0  0  0  0  0
    2.9323    2.1280   -0.8450 H   0  0  0  0  0  0  0  0  0  0  0  0
    1.0648    3.7814   -0.7855 H   0  0  0  0  0  0  0  0  0  0  0  0
   -1.0673    4.3008   -0.5600 H   0  0  0  0  0  0  0  0  0  0  0  0
   -2.7432    3.9813    1.2011 H   0  0  0  0  0  0  0  0  0  0  0  0
   -1.8589    2.3498    1.4796 H   0  0  0  0  0  0  0  0  0  0  0  0
   -4.3623    2.5897    0.0332 H   0  0  0  0  0  0  0  0  0  0  0  0
   -2.3445    2.0122   -1.9854 H   0  0  0  0  0  0  0  0  0  0  0  0
   -3.1562    3.6869   -1.7750 H   0  0  0  0  0  0  0  0  0  0  0  0
    3.7594   -3.4272    1.0765 H   0  0  0  0  0  0  0  0  0  0  0  0
    4.9594   -2.1799    1.5616 H   0  0  0  0  0  0  0  0  0  0  0  0
    5.5751   -3.7126    0.8928 H   0  0  0  0  0  0  0  0  0  0  0  0
    5.0452   -4.0577   -1.3465 H   0  0  0  0  0  0  0  0  0  0  0  0
    9.1592    0.2334    1.1061 H   0  0  0  0  0  0  0  0  0  0  0  0
    8.2802    1.5867    0.2907 H   0  0  0  0  0  0  0  0  0  0  0  0
    9.6019    0.7532   -0.5581 H   0  0  0  0  0  0  0  0  0  0  0  0
   -5.9373   -3.5958    0.8160 H   0  0  0  0  0  0  0  0  0  0  0  0
   -5.9296   -2.5094   -0.6391 H   0  0  0  0  0  0  0  0  0  0  0  0
  1  2  1  0
  2  3  1  0
  3  4  2  0
  3  5  1  0
  5  6  2  0
  6  7  1  0
  7  8  2  0
  8  9  1  0
  9 10  2  0
 10 11  1  0
 11 12  2  0
 12 13  1  0
 13 14  2  0
 14 15  1  0
 15 16  1  0
 16 17  1  0
 17 18  1  0
 17 19  1  0
 11 20  1  0
 20 21  3  0
 22 21  1  1
 22 23  1  0
 22 24  1  0
 22 25  1  0
 25 26  2  0
 26 27  1  0
 27 28  1  0
 28 29  1  0
 28 30  2  0
  6 31  1  0
 31 32  1  0
 31 33  2  0
 19  5  1  0
 30 25  1  0
 19  8  1  0
 14  9  1  0
 18 15  1  0
  1 34  1  0
  1 35  1  0
  1 36  1  0
  2 37  1  0
 10 38  1  0
 12 39  1  0
 13 40  1  0
 15 41  1  0
 16 42  1  0
 16 43  1  0
 17 44  1  0
 18 45  1  0
 18 46  1  0
 23 47  1  0
 23 48  1  0
 23 49  1  0
 24 50  1  0
 29 51  1  0
 29 52  1  0
 29 53  1  0
 32 54  1  0
 32 55  1  0
M  END
$$$$
[H]OC([H])([H])C1([H])Oc2c([H])c([H])c(C#CC3(O[H])C([H])([H])C([H])([H])C([H])([H])C3([H])[H])c([H])c2-c2nc(C(=O)N([H])[H])c([H])n2C1([H])[H]
     RDKit          3D

 48 51  0  0  0  0  0  0  0  0999 V2000
   -5.1032    3.9165    0.6426 N   0  0  0  0  0  0  0  0  0  0  0  0
   -3.8234    3.4716    0.2330 C   0  0  0  0  0  0  0  0  0  0  0  0
   -3.0201    4.3084   -0.2378 O   0  0  0  0  0  0  0  0  0  0  0  0
   -3.5021    2.0595    0.3792 C   0  0  0  0  0  0  0  0  0  0  0  0
   -4.3070    1.0627    0.8812 C   0  0  0  0  0  0  0  0  0  0  0  0
   -3.6145   -0.0857    0.8334 N   0  0  0  0  0  0  0  0  0  0  0  0
   -4.1232   -1.3355    1.2703 C   0  0  0  0  0  0  0  0  0  0  0  0
   -3.8855   -2.4977    0.3749 C   0  0  0  0  0  0  0  0  0  0  0  0
   -4.5657   -2.3656   -0.9725 C   0  0  0  0  0  0  0  0  0  0  0  0
   -3.9902   -1.4330   -1.7946 O   0  0  0  0  0  0  0  0  0  0  0  0
   -2.5686   -2.8717    0.1713 O   0  0  0  0  0  0  0  0  0  0  0  0
   -1.3758   -2.1385    0.0116 C   0  0  0  0  0  0  0  0  0  0  0  0
   -0.2729   -2.9159   -0.2157 C   0  0  0  0  0  0  0  0  0  0  0  0
    0.9451   -2.2709   -0.3845 C   0  0  0  0  0  0  0  0  0  0  0  0
    1.0092   -0.8917   -0.3198 C   0  0  0  0  0  0  0  0  0  0  0  0
   -0.1079   -0.1163   -0.0903 C   0  0  0  0  0  0  0  0  0  0  0  0
   -1.3418   -0.7525    0.0816 C   0  0  0  0  0  0  0  0  0  0  0  0
   -2.4168    0.2074    0.3141 C   0  0  0  0  0  0  0  0  0  0  0  0
   -2.3305    1.5284    0.0278 N   0  0  0  0  0  0  0  0  0  0  0  0
    2.3018   -0.2515   -0.5013 C   0  0  0  0  0  0  0  0  0  0  0  0
    3.3803    0.2719   -0.6335 C   0  0  0  0  0  0  0  0  0  0  0  0
    4.6977    0.9130   -0.7695 C   0  0  0  0  0  0  0  0  0  0  0  0
    4.6793    1.7242   -1.9038 O   0  0  0  0  0  0  0  0  0  0  0  0
    5.0183    1.7708    0.4313 C   0  0  0  0  0  0  0  0  0  0  0  0
    6.1241    1.0778    1.1851 C   0  0  0  0  0  0  0  0  0  0  0  0
    6.7809    0.1497    0.2123 C   0  0  0  0  0  0  0  0  0  0  0  0
    5.8028   -0.0888   -0.9145 C   0  0  0  0  0  0  0  0  0  0  0  0
   -5.2722    4.0917    1.6592 H   0  0  0  0  0  0  0  0  0  0  0  0
   -5.8484    4.0634   -0.0456 H   0  0  0  0  0  0  0  0  0  0  0  0
   -5.3124    1.2509    1.2340 H   0  0  0  0  0  0  0  0  0  0  0  0
   -3.7328   -1.5953    2.2816 H   0  0  0  0  0  0  0  0  0  0  0  0
   -5.2402   -1.2625    1.4148 H   0  0  0  0  0  0  0  0  0  0  0  0
   -4.3974   -3.3831    0.8619 H   0  0  0  0  0  0  0  0  0  0  0  0
   -5.6591   -2.2318   -0.8366 H   0  0  0  0  0  0  0  0  0  0  0  0
   -4.4605   -3.3636   -1.4863 H   0  0  0  0  0  0  0  0  0  0  0  0
   -4.1039   -1.6506   -2.7511 H   0  0  0  0  0  0  0  0  0  0  0  0
   -0.3821   -3.9779   -0.2555 H   0  0  0  0  0  0  0  0  0  0  0  0
    1.8071   -2.9004   -0.5633 H   0  0  0  0  0  0  0  0  0  0  0  0
   -0.0747    0.9622   -0.0369 H   0  0  0  0  0  0  0  0  0  0  0  0
    3.7748    1.8579   -2.2588 H   0  0  0  0  0  0  0  0  0  0  0  0
    4.0870    1.8611    1.0491 H   0  0  0  0  0  0  0  0  0  0  0  0
    5.3403    2.7846    0.1227 H   0  0  0  0  0  0  0  0  0  0  0  0
    6.8824    1.8292    1.5389 H   0  0  0  0  0  0  0  0  0  0  0  0
    5.7399    0.5222    2.0744 H   0  0  0  0  0  0  0  0  0  0  0  0
    7.7101    0.6343   -0.1954 H   0  0  0  0  0  0  0  0  0  0  0  0
    7.0368   -0.8338    0.6426 H   0  0  0  0  0  0  0  0  0  0  0  0
    6.3309    0.0148   -1.8748 H   0  0  0  0  0  0  0  0  0  0  0  0
    5.3837   -1.1197   -0.8869 H   0  0  0  0  0  0  0  0  0  0  0  0
  1  2  1  0
  2  3  2  0
  2  4  1  0
  4  5  2  0
  5  6  1  0
  6  7  1  0
  7  8  1  0
  8  9  1  0
  9 10  1  0
  8 11  1  0
 11 12  1  0
 12 13  2  0
 13 14  1  0
 14 15  2  0
 15 16  1  0
 16 17  2  0
 17 18  1  0
 18 19  2  0
 15 20  1  0
 20 21  3  0
 21 22  1  0
 22 23  1  0
 22 24  1  0
 24 25  1  0
 25 26  1  0
 26 27  1  0
 19  4  1  0
 27 22  1  0
 18  6  1  0
 17 12  1  0
  1 28  1  0
  1 29  1  0
  5 30  1  0
  7 31  1  0
  7 32  1  0
  8 33  1  0
  9 34  1  0
  9 35  1  0
 10 36  1  0
 13 37  1  0
 14 38  1  0
 16 39  1  0
 23 40  1  0
 24 41  1  0
 24 42  1  0
 25 43  1  0
 25 44  1  0
 26 45  1  0
 26 46  1  0
 27 47  1  0
 27 48  1  0
M  END
$$$$
[H]O[C@](C#Cc1c([H])c([H])c2c(c1[H])-c1nc(C(=O)N([H])[H])sc1[C@](F)(C([H])([H])[H])C([H])([H])O2)(c1nc([H])c([H])c([H])n1)C([H])([H])[H]
     RDKit          3D

 47 50  0  0  0  0  0  0  0  0999 V2000
    4.4323    0.4164   -2.4219 C   0  0  0  0  0  0  0  0  0  0  0  0
    4.0437    1.1959   -1.1784 C   0  0  1  0  0  0  0  0  0  0  0  0
    3.9884    2.5180   -1.4116 O   0  0  0  0  0  0  0  0  0  0  0  0
    2.7246    0.7038   -0.7017 C   0  0  0  0  0  0  0  0  0  0  0  0
    1.6882    0.2429   -0.3178 C   0  0  0  0  0  0  0  0  0  0  0  0
    0.4687   -0.3882    0.1430 C   0  0  0  0  0  0  0  0  0  0  0  0
    0.5851   -1.5421    0.9217 C   0  0  0  0  0  0  0  0  0  0  0  0
   -0.4926   -2.2604    1.3608 C   0  0  0  0  0  0  0  0  0  0  0  0
   -1.7393   -1.8123    1.0113 C   0  0  0  0  0  0  0  0  0  0  0  0
   -2.8074   -2.5998    1.4744 O   0  0  0  0  0  0  0  0  0  0  0  0
   -3.9318   -3.0007    0.6723 C   0  0  0  0  0  0  0  0  0  0  0  0
   -4.9228   -1.9099    0.5696 C   0  0  2  0  0  0  0  0  0  0  0  0
   -5.5172   -1.6856    1.9612 C   0  0  0  0  0  0  0  0  0  0  0  0
   -5.9807   -2.3026   -0.2855 F   0  0  0  0  0  0  0  0  0  0  0  0
   -4.4060   -0.6405   -0.0038 C   0  0  0  0  0  0  0  0  0  0  0  0
   -5.4603    0.5734   -0.6766 S   0  0  0  0  0  0  0  0  0  0  0  0
   -4.2749    1.7182   -1.1090 C   0  0  0  0  0  0  0  0  0  0  0  0
   -3.1713    1.1451   -0.7345 N   0  0  0  0  0  0  0  0  0  0  0  0
   -3.1923   -0.0409   -0.1765 C   0  0  0  0  0  0  0  0  0  0  0  0
   -1.8847   -0.6575    0.2400 C   0  0  0  0  0  0  0  0  0  0  0  0
   -0.7831    0.0441   -0.1892 C   0  0  0  0  0  0  0  0  0  0  0  0
   -4.5938    3.0095   -1.7530 C   0  0  0  0  0  0  0  0  0  0  0  0
   -3.6508    4.0066   -1.9870 N   0  0  0  0  0  0  0  0  0  0  0  0
   -5.7937    3.2425   -2.1163 O   0  0  0  0  0  0  0  0  0  0  0  0
    5.0912    0.8761   -0.1593 C   0  0  0  0  0  0  0  0  0  0  0  0
    4.7156    0.4285    1.0548 N   0  0  0  0  0  0  0  0  0  0  0  0
    5.6775    0.1023    1.9507 C   0  0  0  0  0  0  0  0  0  0  0  0
    7.0128    0.2216    1.6365 C   0  0  0  0  0  0  0  0  0  0  0  0
    7.3587    0.6796    0.3930 C   0  0  0  0  0  0  0  0  0  0  0  0
    6.3679    0.9923   -0.4639 N   0  0  0  0  0  0  0  0  0  0  0  0
    4.0749    0.9795   -3.3192 H   0  0  0  0  0  0  0  0  0  0  0  0
    5.5361    0.3288   -2.4278 H   0  0  0  0  0  0  0  0  0  0  0  0
    3.9341   -0.5701   -2.3995 H   0  0  0  0  0  0  0  0  0  0  0  0
    4.6469    2.9816   -0.7991 H   0  0  0  0  0  0  0  0  0  0  0  0
    1.5937   -1.8563    1.1700 H   0  0  0  0  0  0  0  0  0  0  0  0
   -0.4040   -3.1501    1.9604 H   0  0  0  0  0  0  0  0  0  0  0  0
   -4.3617   -3.9509    1.0997 H   0  0  0  0  0  0  0  0  0  0  0  0
   -3.5668   -3.2790   -0.3578 H   0  0  0  0  0  0  0  0  0  0  0  0
   -5.4139   -2.6081    2.5671 H   0  0  0  0  0  0  0  0  0  0  0  0
   -5.0623   -0.8213    2.4428 H   0  0  0  0  0  0  0  0  0  0  0  0
   -6.5963   -1.5050    1.8325 H   0  0  0  0  0  0  0  0  0  0  0  0
   -0.8996    0.9447   -0.7886 H   0  0  0  0  0  0  0  0  0  0  0  0
   -3.1856    4.0933   -2.8977 H   0  0  0  0  0  0  0  0  0  0  0  0
   -3.4148    4.6842   -1.2321 H   0  0  0  0  0  0  0  0  0  0  0  0
    5.4204   -0.2667    2.9471 H   0  0  0  0  0  0  0  0  0  0  0  0
    7.7578   -0.0674    2.3882 H   0  0  0  0  0  0  0  0  0  0  0  0
    8.3891    0.7861    0.1108 H   0  0  0  0  0  0  0  0  0  0  0  0
  1  2  1  0
  2  3  1  0
  2  4  1  1
  4  5  3  0
  5  6  1  0
  6  7  2  0
  7  8  1  0
  8  9  2  0
  9 10  1  0
 10 11  1  0
 11 12  1  0
 12 13  1  0
 12 14  1  6
 12 15  1  0
 15 16  1  0
 16 17  1  0
 17 18  2  0
 18 19  1  0
 19 20  1  0
 20 21  2  0
 17 22  1  0
 22 23  1  0
 22 24  2  0
  2 25  1  0
 25 26  2  0
 26 27  1  0
 27 28  2  0
 28 29  1  0
 29 30  2  0
 21  6  1  0
 30 25  1  0
 20  9  1  0
 19 15  2  0
  1 31  1  0
  1 32  1  0
  1 33  1  0
  3 34  1  0
  7 35  1  0
  8 36  1  0
 11 37  1  0
 11 38  1  0
 13 39  1  0
 13 40  1  0
 13 41  1  0
 21 42  1  0
 23 43  1  0
 23 44  1  0
 27 45  1  0
 28 46  1  0
 29 47  1  0
M  END
$$$$
[H]O[C@](C#Cc1c([H])c2c(c([H])c1F)OC([H])([H])C([H])([H])n1c-2nc(C(=O)N([H])[H])c1C(=O)N([H])C([H])([H])[H])(c1noc(C([H])([H])[H])n1)C([H])([H])[H]
     RDKit          3D

 52 55  0  0  0  0  0  0  0  0999 V2000
   -7.7922    1.3071    0.3927 C   0  0  0  0  0  0  0  0  0  0  0  0
   -6.3336    1.2528    0.0713 N   0  0  0  0  0  0  0  0  0  0  0  0
   -5.6150    0.0821    0.2625 C   0  0  0  0  0  0  0  0  0  0  0  0
   -6.3626   -0.8664    0.7375 O   0  0  0  0  0  0  0  0  0  0  0  0
   -4.2281   -0.2615    0.0438 C   0  0  0  0  0  0  0  0  0  0  0  0
   -3.5534   -1.3398    0.5689 C   0  0  0  0  0  0  0  0  0  0  0  0
   -2.2197   -1.2745    0.1561 N   0  0  0  0  0  0  0  0  0  0  0  0
   -2.1164   -0.2039   -0.5863 C   0  0  0  0  0  0  0  0  0  0  0  0
   -0.8135    0.1750   -1.2044 C   0  0  0  0  0  0  0  0  0  0  0  0
    0.2729   -0.3714   -0.5689 C   0  0  0  0  0  0  0  0  0  0  0  0
    1.5417   -0.1257   -1.0230 C   0  0  0  0  0  0  0  0  0  0  0  0
    2.7222   -0.6594   -0.3866 C   0  0  0  0  0  0  0  0  0  0  0  0
    3.7178   -1.0771    0.1528 C   0  0  0  0  0  0  0  0  0  0  0  0
    4.9492   -1.5580    0.8251 C   0  0  1  0  0  0  0  0  0  0  0  0
    4.5791   -1.8419    2.2592 C   0  0  0  0  0  0  0  0  0  0  0  0
    5.4364   -2.6926    0.1832 O   0  0  0  0  0  0  0  0  0  0  0  0
    5.9815   -0.4819    0.8426 C   0  0  0  0  0  0  0  0  0  0  0  0
    5.8214    0.7277    1.3970 N   0  0  0  0  0  0  0  0  0  0  0  0
    6.8995    1.4344    1.2503 O   0  0  0  0  0  0  0  0  0  0  0  0
    7.7658    0.6883    0.6003 C   0  0  0  0  0  0  0  0  0  0  0  0
    9.1295    1.1556    0.2444 C   0  0  0  0  0  0  0  0  0  0  0  0
    7.2106   -0.5055    0.3389 N   0  0  0  0  0  0  0  0  0  0  0  0
    1.6496    0.6994   -2.1501 C   0  0  0  0  0  0  0  0  0  0  0  0
    2.9047    0.9513   -2.6111 F   0  0  0  0  0  0  0  0  0  0  0  0
    0.5591    1.2479   -2.7878 C   0  0  0  0  0  0  0  0  0  0  0  0
   -0.6994    0.9910   -2.3180 C   0  0  0  0  0  0  0  0  0  0  0  0
   -1.7595    1.5707   -2.9950 O   0  0  0  0  0  0  0  0  0  0  0  0
   -2.8592    2.2303   -2.4412 C   0  0  0  0  0  0  0  0  0  0  0  0
   -3.6839    1.6072   -1.4112 C   0  0  0  0  0  0  0  0  0  0  0  0
   -3.2836    0.4457   -0.6952 N   0  0  0  0  0  0  0  0  0  0  0  0
   -3.9811   -2.4885    1.3396 C   0  0  0  0  0  0  0  0  0  0  0  0
   -5.2277   -3.1162    1.4307 N   0  0  0  0  0  0  0  0  0  0  0  0
   -3.0745   -3.0767    2.0883 O   0  0  0  0  0  0  0  0  0  0  0  0
   -7.9160    1.9923    1.2312 H   0  0  0  0  0  0  0  0  0  0  0  0
   -8.3637    1.5588   -0.5049 H   0  0  0  0  0  0  0  0  0  0  0  0
   -8.0512    0.2928    0.7461 H   0  0  0  0  0  0  0  0  0  0  0  0
   -5.9666    2.1463   -0.2660 H   0  0  0  0  0  0  0  0  0  0  0  0
    0.1157   -0.9979    0.2896 H   0  0  0  0  0  0  0  0  0  0  0  0
    5.1705   -2.7373    2.5698 H   0  0  0  0  0  0  0  0  0  0  0  0
    3.4868   -1.9774    2.3990 H   0  0  0  0  0  0  0  0  0  0  0  0
    4.8910   -1.0199    2.9424 H   0  0  0  0  0  0  0  0  0  0  0  0
    6.1523   -2.4277   -0.4306 H   0  0  0  0  0  0  0  0  0  0  0  0
    9.8840    0.7979    0.9749 H   0  0  0  0  0  0  0  0  0  0  0  0
    9.3981    0.8485   -0.7971 H   0  0  0  0  0  0  0  0  0  0  0  0
    9.1352    2.2803    0.1967 H   0  0  0  0  0  0  0  0  0  0  0  0
    0.6745    1.8831   -3.6714 H   0  0  0  0  0  0  0  0  0  0  0  0
   -3.5715    2.4352   -3.3321 H   0  0  0  0  0  0  0  0  0  0  0  0
   -2.5855    3.2889   -2.1261 H   0  0  0  0  0  0  0  0  0  0  0  0
   -3.8254    2.4002   -0.6027 H   0  0  0  0  0  0  0  0  0  0  0  0
   -4.7009    1.3621   -1.8666 H   0  0  0  0  0  0  0  0  0  0  0  0
   -5.7772   -3.1405    2.3396 H   0  0  0  0  0  0  0  0  0  0  0  0
   -5.6880   -3.6116    0.6070 H   0  0  0  0  0  0  0  0  0  0  0  0
  1  2  1  0
  2  3  1  0
  3  4  2  0
  3  5  1  0
  5  6  2  0
  6  7  1  0
  7  8  2  0
  8  9  1  0
  9 10  2  0
 10 11  1  0
 11 12  1  0
 12 13  3  0
 14 13  1  6
 14 15  1  0
 14 16  1  0
 14 17  1  0
 17 18  2  0
 18 19  1  0
 19 20  1  0
 20 21  1  0
 20 22  2  0
 11 23  2  0
 23 24  1  0
 23 25  1  0
 25 26  2  0
 26 27  1  0
 27 28  1  0
 28 29  1  0
 29 30  1  0
  6 31  1  0
 31 32  1  0
 31 33  2  0
 30  5  1  0
 30  8  1  0
 26  9  1  0
 22 17  1  0
  1 34  1  0
  1 35  1  0
  1 36  1  0
  2 37  1  0
 10 38  1  0
 15 39  1  0
 15 40  1  0
 15 41  1  0
 16 42  1  0
 21 43  1  0
 21 44  1  0
 21 45  1  0
 25 46  1  0
 28 47  1  0
 28 48  1  0
 29 49  1  0
 29 50  1  0
 32 51  1  0
 32 52  1  0
M  END
$$$$
[H]O[C@]1(C#Cc2c([H])c([H])c3c(c2[H])-c2nc(C(=O)N([H])[H])c(C([H])([H])n4c(C([H])([H])[H])nc5c([H])c([H])c([H])c([H])c54)n2C([H])([H])C([H])([H])O3)C(=O)N(C([H])([H])[H])C([H])([H])C1([H])[H]
     RDKit          3D

 64 69  0  0  0  0  0  0  0  0999 V2000
    8.4785    0.3936   -0.8224 C   0  0  0  0  0  0  0  0  0  0  0  0
    7.6971   -0.7060   -0.2762 N   0  0  0  0  0  0  0  0  0  0  0  0
    7.1256   -0.7017    1.0473 C   0  0  0  0  0  0  0  0  0  0  0  0
    6.6412   -2.1424    1.2163 C   0  0  0  0  0  0  0  0  0  0  0  0
    6.1589   -2.4212   -0.2148 C   0  0  1  0  0  0  0  0  0  0  0  0
    5.8801   -3.7412   -0.4427 O   0  0  0  0  0  0  0  0  0  0  0  0
    5.0384   -1.5357   -0.5170 C   0  0  0  0  0  0  0  0  0  0  0  0
    4.1350   -0.7902   -0.7560 C   0  0  0  0  0  0  0  0  0  0  0  0
    3.0716    0.1313   -1.0355 C   0  0  0  0  0  0  0  0  0  0  0  0
    3.2488    1.1861   -1.9003 C   0  0  0  0  0  0  0  0  0  0  0  0
    2.1709    2.0475   -2.1040 C   0  0  0  0  0  0  0  0  0  0  0  0
    0.9744    1.8515   -1.4643 C   0  0  0  0  0  0  0  0  0  0  0  0
   -0.0223    2.8097   -1.7677 O   0  0  0  0  0  0  0  0  0  0  0  0
   -1.0676    3.1630   -0.8287 C   0  0  0  0  0  0  0  0  0  0  0  0
   -2.0714    2.0406   -0.6766 C   0  0  0  0  0  0  0  0  0  0  0  0
   -1.6572    0.9355    0.1410 N   0  0  0  0  0  0  0  0  0  0  0  0
   -2.4538    0.2495    1.0136 C   0  0  0  0  0  0  0  0  0  0  0  0
   -3.8848    0.3861    1.2371 C   0  0  0  0  0  0  0  0  0  0  0  0
   -4.8266   -0.1251    0.2829 N   0  0  0  0  0  0  0  0  0  0  0  0
   -5.1564   -1.3519   -0.0640 C   0  0  0  0  0  0  0  0  0  0  0  0
   -4.5494   -2.6663    0.3154 C   0  0  0  0  0  0  0  0  0  0  0  0
   -6.2276   -1.3129   -0.9151 N   0  0  0  0  0  0  0  0  0  0  0  0
   -6.5922   -0.0504   -1.1169 C   0  0  0  0  0  0  0  0  0  0  0  0
   -7.6167    0.5273   -1.8466 C   0  0  0  0  0  0  0  0  0  0  0  0
   -7.7817    1.8862   -1.8323 C   0  0  0  0  0  0  0  0  0  0  0  0
   -6.9183    2.6569   -1.0847 C   0  0  0  0  0  0  0  0  0  0  0  0
   -5.9145    2.0635   -0.3742 C   0  0  0  0  0  0  0  0  0  0  0  0
   -5.7165    0.7057   -0.3658 C   0  0  0  0  0  0  0  0  0  0  0  0
   -1.6441   -0.7151    1.5910 C   0  0  0  0  0  0  0  0  0  0  0  0
   -0.4043   -0.5817    1.0466 N   0  0  0  0  0  0  0  0  0  0  0  0
   -0.3920    0.4196    0.1607 C   0  0  0  0  0  0  0  0  0  0  0  0
    0.7976    0.8010   -0.6047 C   0  0  0  0  0  0  0  0  0  0  0  0
    1.8516   -0.0613   -0.3907 C   0  0  0  0  0  0  0  0  0  0  0  0
   -1.8857   -1.6732    2.6805 C   0  0  0  0  0  0  0  0  0  0  0  0
   -2.9782   -1.7146    3.5440 N   0  0  0  0  0  0  0  0  0  0  0  0
   -0.9878   -2.5673    2.8588 O   0  0  0  0  0  0  0  0  0  0  0  0
    7.3793   -1.9356   -0.9564 C   0  0  0  0  0  0  0  0  0  0  0  0
    7.9916   -2.4271   -1.9100 O   0  0  0  0  0  0  0  0  0  0  0  0
    9.5252    0.3145   -0.4983 H   0  0  0  0  0  0  0  0  0  0  0  0
    8.0160    1.3727   -0.5192 H   0  0  0  0  0  0  0  0  0  0  0  0
    8.4852    0.3674   -1.9401 H   0  0  0  0  0  0  0  0  0  0  0  0
    6.1962   -0.0660    1.0249 H   0  0  0  0  0  0  0  0  0  0  0  0
    7.8222   -0.3974    1.8282 H   0  0  0  0  0  0  0  0  0  0  0  0
    5.8154   -2.2250    1.9385 H   0  0  0  0  0  0  0  0  0  0  0  0
    7.5092   -2.7735    1.4115 H   0  0  0  0  0  0  0  0  0  0  0  0
    5.6721   -4.1624    0.4301 H   0  0  0  0  0  0  0  0  0  0  0  0
    4.1970    1.3223   -2.3960 H   0  0  0  0  0  0  0  0  0  0  0  0
    2.3131    2.8683   -2.7833 H   0  0  0  0  0  0  0  0  0  0  0  0
   -1.5935    4.0241   -1.2919 H   0  0  0  0  0  0  0  0  0  0  0  0
   -0.6575    3.4720    0.1431 H   0  0  0  0  0  0  0  0  0  0  0  0
   -2.2730    1.6501   -1.6984 H   0  0  0  0  0  0  0  0  0  0  0  0
   -3.0394    2.4654   -0.3311 H   0  0  0  0  0  0  0  0  0  0  0  0
   -4.1046    1.4932    1.4438 H   0  0  0  0  0  0  0  0  0  0  0  0
   -4.2146   -0.0627    2.2254 H   0  0  0  0  0  0  0  0  0  0  0  0
   -4.7232   -2.9011    1.3888 H   0  0  0  0  0  0  0  0  0  0  0  0
   -5.0446   -3.4954   -0.2327 H   0  0  0  0  0  0  0  0  0  0  0  0
   -3.4766   -2.7217    0.1159 H   0  0  0  0  0  0  0  0  0  0  0  0
   -8.2980   -0.0639   -2.4360 H   0  0  0  0  0  0  0  0  0  0  0  0
   -8.5889    2.3816   -2.3991 H   0  0  0  0  0  0  0  0  0  0  0  0
   -7.0696    3.7503   -1.0810 H   0  0  0  0  0  0  0  0  0  0  0  0
   -5.2804    2.7293    0.2028 H   0  0  0  0  0  0  0  0  0  0  0  0
    1.7090   -0.8752    0.2807 H   0  0  0  0  0  0  0  0  0  0  0  0
   -3.1841   -0.9308    4.2057 H   0  0  0  0  0  0  0  0  0  0  0  0
   -3.6039   -2.5698    3.5126 H   0  0  0  0  0  0  0  0  0  0  0  0
  1  2  1  0
  2  3  1  0
  3  4  1  0
  4  5  1  0
  5  6  1  0
  5  7  1  6
  7  8  3  0
  8  9  1  0
  9 10  2  0
 10 11  1  0
 11 12  2  0
 12 13  1  0
 13 14  1  0
 14 15  1  0
 15 16  1  0
 16 17  1  0
 17 18  1  0
 18 19  1  0
 19 20  1  0
 20 21  1  0
 20 22  2  0
 22 23  1  0
 23 24  2  0
 24 25  1  0
 25 26  2  0
 26 27  1  0
 27 28  2  0
 17 29  2  0
 29 30  1  0
 30 31  2  0
 31 32  1  0
 32 33  2  0
 29 34  1  0
 34 35  1  0
 34 36  2  0
  5 37  1  0
 37 38  2  0
 37  2  1  0
 33  9  1  0
 32 12  1  0
 31 16  1  0
 28 19  1  0
 28 23  1  0
  1 39  1  0
  1 40  1  0
  1 41  1  0
  3 42  1  0
  3 43  1  0
  4 44  1  0
  4 45  1  0
  6 46  1  0
 10 47  1  0
 11 48  1  0
 14 49  1  0
 14 50  1  0
 15 51  1  0
 15 52  1  0
 18 53  1  0
 18 54  1  0
 21 55  1  0
 21 56  1  0
 21 57  1  0
 24 58  1  0
 25 59  1  0
 26 60  1  0
 27 61  1  0
 33 62  1  0
 35 63  1  0
 35 64  1  0
M  END
$$$$
[H]OC(C#Cc1c([H])c([H])c2c(c1[H])-c1nc(C(=O)N([H])[H])c([H])n1C1([H])C([H])([H])C2([H])C1([H])[H])(C([H])([H])[H])C([H])([H])[H]
     RDKit          3D

 43 46  0  0  0  0  0  0  0  0999 V2000
    5.7438    0.9901    1.3975 C   0  0  0  0  0  0  0  0  0  0  0  0
    4.7307    1.7588    0.5580 C   0  0  0  0  0  0  0  0  0  0  0  0
    5.4040    2.2758   -0.6898 C   0  0  0  0  0  0  0  0  0  0  0  0
    4.2442    2.8373    1.2989 O   0  0  0  0  0  0  0  0  0  0  0  0
    3.5708    0.9121    0.2320 C   0  0  0  0  0  0  0  0  0  0  0  0
    2.6051    0.2235   -0.0328 C   0  0  0  0  0  0  0  0  0  0  0  0
    1.4498   -0.5892   -0.3254 C   0  0  0  0  0  0  0  0  0  0  0  0
    1.5591   -1.8539   -0.8608 C   0  0  0  0  0  0  0  0  0  0  0  0
    0.4520   -2.6440   -1.1460 C   0  0  0  0  0  0  0  0  0  0  0  0
   -0.7725   -2.0845   -0.8598 C   0  0  0  0  0  0  0  0  0  0  0  0
   -1.8808   -3.0168   -1.2044 C   0  0  0  0  0  0  0  0  0  0  0  0
   -2.8977   -2.2054   -1.9939 C   0  0  0  0  0  0  0  0  0  0  0  0
   -3.7514   -1.9671   -0.7417 C   0  0  0  0  0  0  0  0  0  0  0  0
   -2.9172   -3.0438   -0.0744 C   0  0  0  0  0  0  0  0  0  0  0  0
   -3.4464   -0.6452   -0.1683 N   0  0  0  0  0  0  0  0  0  0  0  0
   -4.3349    0.2599    0.2582 C   0  0  0  0  0  0  0  0  0  0  0  0
   -3.6292    1.3526    0.7181 C   0  0  0  0  0  0  0  0  0  0  0  0
   -2.3083    1.0754    0.5552 N   0  0  0  0  0  0  0  0  0  0  0  0
   -2.2054   -0.1310    0.0202 C   0  0  0  0  0  0  0  0  0  0  0  0
   -0.9212   -0.8080   -0.3178 C   0  0  0  0  0  0  0  0  0  0  0  0
    0.1869   -0.0620   -0.0512 C   0  0  0  0  0  0  0  0  0  0  0  0
   -4.2211    2.5537    1.2659 C   0  0  0  0  0  0  0  0  0  0  0  0
   -3.4250    3.6346    1.7178 N   0  0  0  0  0  0  0  0  0  0  0  0
   -5.4654    2.6457    1.3448 O   0  0  0  0  0  0  0  0  0  0  0  0
    6.4255    1.7173    1.8693 H   0  0  0  0  0  0  0  0  0  0  0  0
    6.3094    0.2835    0.7531 H   0  0  0  0  0  0  0  0  0  0  0  0
    5.2137    0.3759    2.1546 H   0  0  0  0  0  0  0  0  0  0  0  0
    6.4104    1.8151   -0.7777 H   0  0  0  0  0  0  0  0  0  0  0  0
    5.5568    3.3840   -0.5989 H   0  0  0  0  0  0  0  0  0  0  0  0
    4.8611    2.0225   -1.6149 H   0  0  0  0  0  0  0  0  0  0  0  0
    4.1043    2.5573    2.2425 H   0  0  0  0  0  0  0  0  0  0  0  0
    2.5486   -2.2251   -1.0582 H   0  0  0  0  0  0  0  0  0  0  0  0
    0.5686   -3.6152   -1.5585 H   0  0  0  0  0  0  0  0  0  0  0  0
   -1.5913   -3.9743   -1.6106 H   0  0  0  0  0  0  0  0  0  0  0  0
   -3.4145   -2.8453   -2.7169 H   0  0  0  0  0  0  0  0  0  0  0  0
   -2.4813   -1.2845   -2.4295 H   0  0  0  0  0  0  0  0  0  0  0  0
   -4.8105   -2.1606   -0.8512 H   0  0  0  0  0  0  0  0  0  0  0  0
   -3.4160   -4.0159    0.0481 H   0  0  0  0  0  0  0  0  0  0  0  0
   -2.4589   -2.6455    0.8652 H   0  0  0  0  0  0  0  0  0  0  0  0
   -5.4093    0.1451    0.2407 H   0  0  0  0  0  0  0  0  0  0  0  0
    0.0701    0.9098    0.3616 H   0  0  0  0  0  0  0  0  0  0  0  0
   -3.8144    4.3398    2.3754 H   0  0  0  0  0  0  0  0  0  0  0  0
   -2.4422    3.7474    1.4059 H   0  0  0  0  0  0  0  0  0  0  0  0
  1  2  1  0
  2  3  1  0
  2  4  1  0
  2  5  1  0
  5  6  3  0
  6  7  1  0
  7  8  2  0
  8  9  1  0
  9 10  2  0
 10 11  1  0
 11 12  1  0
 12 13  1  0
 13 14  1  0
 13 15  1  0
 15 16  1  0
 16 17  2  0
 17 18  1  0
 18 19  2  0
 19 20  1  0
 20 21  2  0
 17 22  1  0
 22 23  1  0
 22 24  2  0
 21  7  1  0
 20 10  1  0
 14 11  1  0
 19 15  1  0
  1 25  1  0
  1 26  1  0
  1 27  1  0
  3 28  1  0
  3 29  1  0
  3 30  1  0
  4 31  1  0
  8 32  1  0
  9 33  1  0
 11 34  1  0
 12 35  1  0
 12 36  1  0
 13 37  1  0
 14 38  1  0
 14 39  1  0
 16 40  1  0
 21 41  1  0
 23 42  1  0
 23 43  1  0
M  END
$$$$
[H]O[C@](C#Cc1c([H])c([H])c2c(c1[H])-n1nc(C(=O)N([H])[H])c(C(=O)N([H])C([H])([H])[H])c1[C@]([H])(F)C([H])([H])O2)(c1noc(C([H])([H])[H])c1[H])C([H])([H])[H]
     RDKit          3D

 53 56  0  0  0  0  0  0  0  0999 V2000
   -7.7817    1.1390   -0.6330 C   0  0  0  0  0  0  0  0  0  0  0  0
   -6.4427    0.6035   -0.7789 N   0  0  0  0  0  0  0  0  0  0  0  0
   -5.3437    1.2466   -0.2074 C   0  0  0  0  0  0  0  0  0  0  0  0
   -5.6344    2.3276    0.4266 O   0  0  0  0  0  0  0  0  0  0  0  0
   -3.9458    0.8458   -0.2451 C   0  0  0  0  0  0  0  0  0  0  0  0
   -2.8454    1.6438   -0.4135 C   0  0  0  0  0  0  0  0  0  0  0  0
   -1.7118    0.8627   -0.2714 N   0  0  0  0  0  0  0  0  0  0  0  0
   -2.0601   -0.3642   -0.0279 N   0  0  0  0  0  0  0  0  0  0  0  0
   -3.3982   -0.4453   -0.0007 C   0  0  0  0  0  0  0  0  0  0  0  0
   -4.3193   -1.5581    0.2388 C   0  0  2  0  0  0  0  0  0  0  0  0
   -5.0677   -1.2267    1.3644 F   0  0  0  0  0  0  0  0  0  0  0  0
   -3.7973   -2.9307    0.3542 C   0  0  0  0  0  0  0  0  0  0  0  0
   -2.5967   -3.1409    1.0266 O   0  0  0  0  0  0  0  0  0  0  0  0
   -1.3326   -2.6350    0.7127 C   0  0  0  0  0  0  0  0  0  0  0  0
   -0.3160   -3.5673    0.9588 C   0  0  0  0  0  0  0  0  0  0  0  0
    0.9460   -3.1277    0.6761 C   0  0  0  0  0  0  0  0  0  0  0  0
    1.2509   -1.8625    0.1795 C   0  0  0  0  0  0  0  0  0  0  0  0
    0.2333   -1.0000   -0.0462 C   0  0  0  0  0  0  0  0  0  0  0  0
   -1.0707   -1.3751    0.2184 C   0  0  0  0  0  0  0  0  0  0  0  0
    2.6308   -1.5069   -0.0215 C   0  0  0  0  0  0  0  0  0  0  0  0
    3.8184   -1.2662   -0.1398 C   0  0  0  0  0  0  0  0  0  0  0  0
    5.2478   -1.0514   -0.2281 C   0  0  1  0  0  0  0  0  0  0  0  0
    5.8743   -1.1780    1.1863 C   0  0  0  0  0  0  0  0  0  0  0  0
    5.8412   -2.1678   -0.9129 O   0  0  0  0  0  0  0  0  0  0  0  0
    5.6029    0.2035   -0.8466 C   0  0  0  0  0  0  0  0  0  0  0  0
    6.5182    1.1126   -0.3167 C   0  0  0  0  0  0  0  0  0  0  0  0
    6.6192    2.1618   -1.1877 C   0  0  0  0  0  0  0  0  0  0  0  0
    7.4731    3.3780   -1.0601 C   0  0  0  0  0  0  0  0  0  0  0  0
    5.8179    1.9195   -2.1915 O   0  0  0  0  0  0  0  0  0  0  0  0
    5.2067    0.7601   -1.9994 N   0  0  0  0  0  0  0  0  0  0  0  0
   -2.7611    3.0646   -0.6950 C   0  0  0  0  0  0  0  0  0  0  0  0
   -3.7814    4.0297   -0.6807 N   0  0  0  0  0  0  0  0  0  0  0  0
   -1.5947    3.5473   -1.0065 O   0  0  0  0  0  0  0  0  0  0  0  0
   -8.1172    1.7362   -1.5014 H   0  0  0  0  0  0  0  0  0  0  0  0
   -7.8134    1.6478    0.3373 H   0  0  0  0  0  0  0  0  0  0  0  0
   -8.5278    0.2881   -0.5766 H   0  0  0  0  0  0  0  0  0  0  0  0
   -6.3727   -0.2329   -1.3442 H   0  0  0  0  0  0  0  0  0  0  0  0
   -4.9906   -1.5778   -0.6814 H   0  0  0  0  0  0  0  0  0  0  0  0
   -4.5655   -3.5092    0.9501 H   0  0  0  0  0  0  0  0  0  0  0  0
   -3.8418   -3.4513   -0.6611 H   0  0  0  0  0  0  0  0  0  0  0  0
   -0.5468   -4.5537    1.3486 H   0  0  0  0  0  0  0  0  0  0  0  0
    1.7754   -3.7943    0.8496 H   0  0  0  0  0  0  0  0  0  0  0  0
    0.4112   -0.0208   -0.4257 H   0  0  0  0  0  0  0  0  0  0  0  0
    5.3287   -1.9884    1.6657 H   0  0  0  0  0  0  0  0  0  0  0  0
    6.9381   -1.3186    1.0404 H   0  0  0  0  0  0  0  0  0  0  0  0
    5.7249   -0.2160    1.7529 H   0  0  0  0  0  0  0  0  0  0  0  0
    5.4816   -2.1792   -1.8379 H   0  0  0  0  0  0  0  0  0  0  0  0
    7.0472    0.9722    0.6418 H   0  0  0  0  0  0  0  0  0  0  0  0
    6.9184    4.2694   -0.7896 H   0  0  0  0  0  0  0  0  0  0  0  0
    8.2674    3.1026   -0.3192 H   0  0  0  0  0  0  0  0  0  0  0  0
    7.9586    3.5829   -2.0520 H   0  0  0  0  0  0  0  0  0  0  0  0
   -3.9550    4.6576    0.1599 H   0  0  0  0  0  0  0  0  0  0  0  0
   -4.4002    4.1434   -1.5185 H   0  0  0  0  0  0  0  0  0  0  0  0
  1  2  1  0
  2  3  1  0
  3  4  2  0
  3  5  1  0
  5  6  1  0
  6  7  2  0
  7  8  1  0
  8  9  1  0
  9 10  1  0
 10 11  1  0
 10 12  1  0
 12 13  1  0
 13 14  1  0
 14 15  2  0
 15 16  1  0
 16 17  2  0
 17 18  1  0
 18 19  2  0
 17 20  1  0
 20 21  3  0
 22 21  1  1
 22 23  1  0
 22 24  1  0
 22 25  1  0
 25 26  1  0
 26 27  2  0
 27 28  1  0
 27 29  1  0
 29 30  1  0
  6 31  1  0
 31 32  1  0
 31 33  2  0
  9  5  2  0
 19 14  1  0
 30 25  2  0
  8 19  1  0
  1 34  1  0
  1 35  1  0
  1 36  1  0
  2 37  1  0
 10 38  1  6
 12 39  1  0
 12 40  1  0
 15 41  1  0
 16 42  1  0
 18 43  1  0
 23 44  1  0
 23 45  1  0
 23 46  1  0
 24 47  1  0
 26 48  1  0
 28 49  1  0
 28 50  1  0
 28 51  1  0
 32 52  1  0
 32 53  1  0
M  END
$$$$
[H]O[C@]1(C#Cc2c([H])c([H])c3c(c2[H])-c2nc(C(=O)N([H])[H])sc2[C@]([H])(C#N)C([H])([H])O3)C(=O)N(C([H])([H])[H])C([H])([H])C1([H])[H]
     RDKit          3D

 45 48  0  0  0  0  0  0  0  0999 V2000
    5.5918    2.7830   -0.8164 C   0  0  0  0  0  0  0  0  0  0  0  0
    5.2412    1.5050   -0.2147 N   0  0  0  0  0  0  0  0  0  0  0  0
    5.3024    1.1824    1.2167 C   0  0  0  0  0  0  0  0  0  0  0  0
    4.0755    0.3220    1.3962 C   0  0  0  0  0  0  0  0  0  0  0  0
    4.0713   -0.5141    0.1329 C   0  0  1  0  0  0  0  0  0  0  0  0
    4.7650   -1.6929    0.4370 O   0  0  0  0  0  0  0  0  0  0  0  0
    2.7094   -0.8033   -0.2440 C   0  0  0  0  0  0  0  0  0  0  0  0
    1.5663   -1.0602   -0.5468 C   0  0  0  0  0  0  0  0  0  0  0  0
    0.2035   -1.3861   -0.8920 C   0  0  0  0  0  0  0  0  0  0  0  0
   -0.1024   -2.3839   -1.7942 C   0  0  0  0  0  0  0  0  0  0  0  0
   -1.4036   -2.7013   -2.1294 C   0  0  0  0  0  0  0  0  0  0  0  0
   -2.4207   -1.9760   -1.5232 C   0  0  0  0  0  0  0  0  0  0  0  0
   -3.6878   -2.3831   -1.9373 O   0  0  0  0  0  0  0  0  0  0  0  0
   -4.9594   -2.1563   -1.3188 C   0  0  0  0  0  0  0  0  0  0  0  0
   -5.2201   -0.6675   -1.3336 C   0  0  1  0  0  0  0  0  0  0  0  0
   -6.6381   -0.3660   -1.1167 C   0  0  0  0  0  0  0  0  0  0  0  0
   -7.7557   -0.1107   -0.9554 N   0  0  0  0  0  0  0  0  0  0  0  0
   -4.4369   -0.0113   -0.2397 C   0  0  0  0  0  0  0  0  0  0  0  0
   -5.0448    1.0907    0.9108 S   0  0  0  0  0  0  0  0  0  0  0  0
   -3.5907    1.3727    1.7809 C   0  0  0  0  0  0  0  0  0  0  0  0
   -2.7283    0.6075    1.1395 N   0  0  0  0  0  0  0  0  0  0  0  0
   -3.1161   -0.0974    0.1259 C   0  0  0  0  0  0  0  0  0  0  0  0
   -2.1630   -0.9725   -0.6180 C   0  0  0  0  0  0  0  0  0  0  0  0
   -0.8508   -0.6922   -0.3153 C   0  0  0  0  0  0  0  0  0  0  0  0
   -3.3651    2.2517    2.9538 C   0  0  0  0  0  0  0  0  0  0  0  0
   -2.0486    2.2889    3.4682 N   0  0  0  0  0  0  0  0  0  0  0  0
   -4.2769    2.9158    3.4552 O   0  0  0  0  0  0  0  0  0  0  0  0
    4.7781    0.3225   -0.8442 C   0  0  0  0  0  0  0  0  0  0  0  0
    4.9534    0.0481   -2.0509 O   0  0  0  0  0  0  0  0  0  0  0  0
    6.3674    3.2459   -0.1697 H   0  0  0  0  0  0  0  0  0  0  0  0
    4.7286    3.4583   -0.8945 H   0  0  0  0  0  0  0  0  0  0  0  0
    5.9812    2.5789   -1.8427 H   0  0  0  0  0  0  0  0  0  0  0  0
    5.3071    2.0821    1.8436 H   0  0  0  0  0  0  0  0  0  0  0  0
    6.2477    0.5767    1.3364 H   0  0  0  0  0  0  0  0  0  0  0  0
    4.2409   -0.2892    2.3099 H   0  0  0  0  0  0  0  0  0  0  0  0
    3.2073    0.9891    1.4654 H   0  0  0  0  0  0  0  0  0  0  0  0
    4.6882   -2.2900   -0.3483 H   0  0  0  0  0  0  0  0  0  0  0  0
    0.7375   -2.9241   -2.2423 H   0  0  0  0  0  0  0  0  0  0  0  0
   -1.6449   -3.4837   -2.8368 H   0  0  0  0  0  0  0  0  0  0  0  0
   -4.9543   -2.4784   -0.2577 H   0  0  0  0  0  0  0  0  0  0  0  0
   -5.7299   -2.6560   -1.9174 H   0  0  0  0  0  0  0  0  0  0  0  0
   -4.8698   -0.2756   -2.3134 H   0  0  0  0  0  0  0  0  0  0  0  0
   -0.6475    0.0982    0.3977 H   0  0  0  0  0  0  0  0  0  0  0  0
   -1.7374    3.1451    3.9675 H   0  0  0  0  0  0  0  0  0  0  0  0
   -1.3711    1.5074    3.3760 H   0  0  0  0  0  0  0  0  0  0  0  0
  1  2  1  0
  2  3  1  0
  3  4  1  0
  4  5  1  0
  5  6  1  0
  5  7  1  6
  7  8  3  0
  8  9  1  0
  9 10  2  0
 10 11  1  0
 11 12  2  0
 12 13  1  0
 13 14  1  0
 14 15  1  0
 15 16  1  0
 16 17  3  0
 15 18  1  0
 18 19  1  0
 19 20  1  0
 20 21  2  0
 21 22  1  0
 22 23  1  0
 23 24  2  0
 20 25  1  0
 25 26  1  0
 25 27  2  0
  5 28  1  0
 28 29  2  0
 28  2  1  0
 24  9  1  0
 23 12  1  0
 22 18  2  0
  1 30  1  0
  1 31  1  0
  1 32  1  0
  3 33  1  0
  3 34  1  0
  4 35  1  0
  4 36  1  0
  6 37  1  0
 10 38  1  0
 11 39  1  0
 14 40  1  0
 14 41  1  0
 15 42  1  6
 24 43  1  0
 26 44  1  0
 26 45  1  0
M  END
$$$$
[H]OC([H])(c1c([H])c([H])nn1[H])c1c(C(=O)N([H])[H])nc2n1C1([H])C([H])([H])C([H])(c3c([H])c(F)c(C#CC(O[H])(C([H])([H])[H])C([H])([H])[H])c([H])c3-2)C1([H])[H]
     RDKit          3D

 54 58  0  0  0  0  0  0  0  0999 V2000
    6.3413    2.9191    0.7774 C   0  0  0  0  0  0  0  0  0  0  0  0
    6.1132    1.5665    1.4483 C   0  0  0  0  0  0  0  0  0  0  0  0
    7.4136    0.8170    1.3880 C   0  0  0  0  0  0  0  0  0  0  0  0
    5.7783    1.7381    2.7888 O   0  0  0  0  0  0  0  0  0  0  0  0
    5.0138    0.8514    0.8053 C   0  0  0  0  0  0  0  0  0  0  0  0
    4.0986    0.2789    0.2686 C   0  0  0  0  0  0  0  0  0  0  0  0
    2.9911   -0.3860   -0.3743 C   0  0  0  0  0  0  0  0  0  0  0  0
    1.6900   -0.2034    0.0892 C   0  0  0  0  0  0  0  0  0  0  0  0
    0.6243   -0.8112   -0.4909 C   0  0  0  0  0  0  0  0  0  0  0  0
   -0.6715   -0.4829    0.1554 C   0  0  0  0  0  0  0  0  0  0  0  0
   -0.8441    0.3307    1.1726 N   0  0  0  0  0  0  0  0  0  0  0  0
   -2.1796    0.3917    1.5030 C   0  0  0  0  0  0  0  0  0  0  0  0
   -2.6991    1.2038    2.5882 C   0  0  0  0  0  0  0  0  0  0  0  0
   -4.0120    1.3314    3.0294 N   0  0  0  0  0  0  0  0  0  0  0  0
   -1.8229    1.9030    3.2325 O   0  0  0  0  0  0  0  0  0  0  0  0
   -2.8430   -0.4377    0.6273 C   0  0  0  0  0  0  0  0  0  0  0  0
   -4.3188   -0.7175    0.5548 C   0  0  0  0  0  0  0  0  0  0  0  0
   -4.8104   -1.1820    1.7765 O   0  0  0  0  0  0  0  0  0  0  0  0
   -5.0821    0.3810   -0.0341 C   0  0  0  0  0  0  0  0  0  0  0  0
   -4.5795    1.4897   -0.6673 C   0  0  0  0  0  0  0  0  0  0  0  0
   -5.6346    2.2785   -1.0732 C   0  0  0  0  0  0  0  0  0  0  0  0
   -6.7335    1.6194   -0.6716 N   0  0  0  0  0  0  0  0  0  0  0  0
   -6.4145    0.4921   -0.0539 N   0  0  0  0  0  0  0  0  0  0  0  0
   -1.8905   -0.9575   -0.1844 N   0  0  0  0  0  0  0  0  0  0  0  0
   -2.1416   -1.8942   -1.2755 C   0  0  0  0  0  0  0  0  0  0  0  0
   -1.1051   -3.0285   -1.2356 C   0  0  0  0  0  0  0  0  0  0  0  0
   -0.2664   -2.3763   -2.3161 C   0  0  0  0  0  0  0  0  0  0  0  0
   -1.4346   -1.4375   -2.5604 C   0  0  0  0  0  0  0  0  0  0  0  0
    0.8312   -1.6427   -1.5812 C   0  0  0  0  0  0  0  0  0  0  0  0
    2.0913   -1.8645   -2.0872 C   0  0  0  0  0  0  0  0  0  0  0  0
    3.1564   -1.2188   -1.4591 C   0  0  0  0  0  0  0  0  0  0  0  0
    4.3906   -1.4206   -1.9348 F   0  0  0  0  0  0  0  0  0  0  0  0
    7.3383    2.9835    0.3059 H   0  0  0  0  0  0  0  0  0  0  0  0
    5.5921    3.0364   -0.0424 H   0  0  0  0  0  0  0  0  0  0  0  0
    6.2578    3.6969    1.5417 H   0  0  0  0  0  0  0  0  0  0  0  0
    7.5114    0.0522    2.1699 H   0  0  0  0  0  0  0  0  0  0  0  0
    7.6434    0.3962    0.3997 H   0  0  0  0  0  0  0  0  0  0  0  0
    8.2230    1.5766    1.5931 H   0  0  0  0  0  0  0  0  0  0  0  0
    6.3614    1.2363    3.3838 H   0  0  0  0  0  0  0  0  0  0  0  0
    1.5130    0.4440    0.9407 H   0  0  0  0  0  0  0  0  0  0  0  0
   -4.6513    2.0171    2.5698 H   0  0  0  0  0  0  0  0  0  0  0  0
   -4.3920    0.7654    3.8220 H   0  0  0  0  0  0  0  0  0  0  0  0
   -4.4657   -1.5994   -0.1437 H   0  0  0  0  0  0  0  0  0  0  0  0
   -5.4976   -1.8973    1.6603 H   0  0  0  0  0  0  0  0  0  0  0  0
   -3.5229    1.6937   -0.8130 H   0  0  0  0  0  0  0  0  0  0  0  0
   -5.5964    3.2279   -1.6030 H   0  0  0  0  0  0  0  0  0  0  0  0
   -7.1162   -0.1987    0.3530 H   0  0  0  0  0  0  0  0  0  0  0  0
   -3.1595   -2.2252   -1.4179 H   0  0  0  0  0  0  0  0  0  0  0  0
   -1.5269   -3.9987   -1.5988 H   0  0  0  0  0  0  0  0  0  0  0  0
   -0.6270   -3.0801   -0.2330 H   0  0  0  0  0  0  0  0  0  0  0  0
    0.0561   -2.9906   -3.1448 H   0  0  0  0  0  0  0  0  0  0  0  0
   -1.1850   -0.3686   -2.5810 H   0  0  0  0  0  0  0  0  0  0  0  0
   -2.0263   -1.7892   -3.4253 H   0  0  0  0  0  0  0  0  0  0  0  0
    2.2205   -2.5093   -2.9275 H   0  0  0  0  0  0  0  0  0  0  0  0
  1  2  1  0
  2  3  1  0
  2  4  1  0
  2  5  1  0
  5  6  3  0
  6  7  1  0
  7  8  1  0
  8  9  2  0
  9 10  1  0
 10 11  2  0
 11 12  1  0
 12 13  1  0
 13 14  1  0
 13 15  2  0
 12 16  2  0
 16 17  1  0
 17 18  1  0
 17 19  1  0
 19 20  2  0
 20 21  1  0
 21 22  2  0
 22 23  1  0
 16 24  1  0
 24 25  1  0
 25 26  1  0
 26 27  1  0
 27 28  1  0
 27 29  1  0
 29 30  2  0
 30 31  1  0
 31 32  1  0
 31  7  2  0
 29  9  1  0
 24 10  1  0
 28 25  1  0
 23 19  1  0
  1 33  1  0
  1 34  1  0
  1 35  1  0
  3 36  1  0
  3 37  1  0
  3 38  1  0
  4 39  1  0
  8 40  1  0
 14 41  1  0
 14 42  1  0
 17 43  1  0
 18 44  1  0
 20 45  1  0
 21 46  1  0
 23 47  1  0
 25 48  1  0
 26 49  1  0
 26 50  1  0
 27 51  1  0
 28 52  1  0
 28 53  1  0
 30 54  1  0
M  END
$$$$
[H]OC([H])([H])C(C#Cc1c([H])c([H])c2c(c1[H])-c1nc(C(=O)N([H])[H])c(C(=O)N([H])C([H])([H])[H])n1C([H])([H])C([H])([H])O2)(O[H])C([H])([H])[H]
     RDKit          3D

 48 50  0  0  0  0  0  0  0  0999 V2000
   -6.5665    2.0747    0.1064 C   0  0  0  0  0  0  0  0  0  0  0  0
   -5.1853    1.7217   -0.1465 N   0  0  0  0  0  0  0  0  0  0  0  0
   -4.6569    0.4501    0.1518 C   0  0  0  0  0  0  0  0  0  0  0  0
   -5.4844   -0.3720    0.6788 O   0  0  0  0  0  0  0  0  0  0  0  0
   -3.2647    0.1031   -0.1135 C   0  0  0  0  0  0  0  0  0  0  0  0
   -2.5031    0.3334   -1.2286 C   0  0  0  0  0  0  0  0  0  0  0  0
   -1.2099   -0.0741   -0.9515 N   0  0  0  0  0  0  0  0  0  0  0  0
   -1.2151   -0.5326    0.2867 C   0  0  0  0  0  0  0  0  0  0  0  0
   -0.0148   -1.0615    0.9344 C   0  0  0  0  0  0  0  0  0  0  0  0
    1.1389   -0.6753    0.2680 C   0  0  0  0  0  0  0  0  0  0  0  0
    2.3930   -1.0557    0.6957 C   0  0  0  0  0  0  0  0  0  0  0  0
    2.4328   -1.8449    1.8282 C   0  0  0  0  0  0  0  0  0  0  0  0
    1.2978   -2.2396    2.5049 C   0  0  0  0  0  0  0  0  0  0  0  0
    0.0559   -1.8488    2.0610 C   0  0  0  0  0  0  0  0  0  0  0  0
   -1.0109   -2.3046    2.8190 O   0  0  0  0  0  0  0  0  0  0  0  0
   -2.4103   -2.2552    2.4924 C   0  0  0  0  0  0  0  0  0  0  0  0
   -2.8231   -0.8349    2.1599 C   0  0  0  0  0  0  0  0  0  0  0  0
   -2.4447   -0.4459    0.8389 N   0  0  0  0  0  0  0  0  0  0  0  0
    3.5678   -0.6385   -0.0173 C   0  0  0  0  0  0  0  0  0  0  0  0
    4.5546   -0.2796   -0.6158 C   0  0  0  0  0  0  0  0  0  0  0  0
    5.7372    0.1656   -1.3588 C   0  0  0  0  0  0  0  0  0  0  0  0
    6.9516    0.2806   -0.4716 C   0  0  0  0  0  0  0  0  0  0  0  0
    5.9702   -0.7759   -2.3505 O   0  0  0  0  0  0  0  0  0  0  0  0
    5.4473    1.5428   -1.9194 C   0  0  0  0  0  0  0  0  0  0  0  0
    5.2322    2.3922   -0.8354 O   0  0  0  0  0  0  0  0  0  0  0  0
   -2.9314    0.8121   -2.5214 C   0  0  0  0  0  0  0  0  0  0  0  0
   -4.2684    0.8545   -2.9257 N   0  0  0  0  0  0  0  0  0  0  0  0
   -2.0691    1.2193   -3.3663 O   0  0  0  0  0  0  0  0  0  0  0  0
   -6.6757    2.3491    1.1879 H   0  0  0  0  0  0  0  0  0  0  0  0
   -7.2422    1.2176   -0.1349 H   0  0  0  0  0  0  0  0  0  0  0  0
   -6.9006    2.9270   -0.5016 H   0  0  0  0  0  0  0  0  0  0  0  0
   -4.5752    2.4649   -0.5412 H   0  0  0  0  0  0  0  0  0  0  0  0
    0.9885   -0.0521   -0.6149 H   0  0  0  0  0  0  0  0  0  0  0  0
    3.4327   -2.1413    2.1594 H   0  0  0  0  0  0  0  0  0  0  0  0
    1.3726   -2.8595    3.3903 H   0  0  0  0  0  0  0  0  0  0  0  0
   -2.9346   -2.5132    3.4438 H   0  0  0  0  0  0  0  0  0  0  0  0
   -2.6678   -2.9311    1.6733 H   0  0  0  0  0  0  0  0  0  0  0  0
   -3.8841   -0.7303    2.3744 H   0  0  0  0  0  0  0  0  0  0  0  0
   -2.2027   -0.1940    2.8615 H   0  0  0  0  0  0  0  0  0  0  0  0
    6.9268    1.2201    0.1359 H   0  0  0  0  0  0  0  0  0  0  0  0
    6.9157   -0.5552    0.2782 H   0  0  0  0  0  0  0  0  0  0  0  0
    7.8938    0.1743   -1.0076 H   0  0  0  0  0  0  0  0  0  0  0  0
    6.5093   -1.5119   -1.9406 H   0  0  0  0  0  0  0  0  0  0  0  0
    6.2916    1.8342   -2.5488 H   0  0  0  0  0  0  0  0  0  0  0  0
    4.5397    1.5519   -2.5514 H   0  0  0  0  0  0  0  0  0  0  0  0
    5.1236    3.3263   -1.0880 H   0  0  0  0  0  0  0  0  0  0  0  0
   -4.6970    1.6538   -3.4426 H   0  0  0  0  0  0  0  0  0  0  0  0
   -4.9352    0.0581   -2.7243 H   0  0  0  0  0  0  0  0  0  0  0  0
  1  2  1  0
  2  3  1  0
  3  4  2  0
  3  5  1  0
  5  6  2  0
  6  7  1  0
  7  8  2  0
  8  9  1  0
  9 10  2  0
 10 11  1  0
 11 12  2  0
 12 13  1  0
 13 14  2  0
 14 15  1  0
 15 16  1  0
 16 17  1  0
 17 18  1  0
 11 19  1  0
 19 20  3  0
 20 21  1  0
 21 22  1  0
 21 23  1  0
 21 24  1  0
 24 25  1  0
  6 26  1  0
 26 27  1  0
 26 28  2  0
 18  5  1  0
 18  8  1  0
 14  9  1  0
  1 29  1  0
  1 30  1  0
  1 31  1  0
  2 32  1  0
 10 33  1  0
 12 34  1  0
 13 35  1  0
 16 36  1  0
 16 37  1  0
 17 38  1  0
 17 39  1  0
 22 40  1  0
 22 41  1  0
 22 42  1  0
 23 43  1  0
 24 44  1  0
 24 45  1  0
 25 46  1  0
 27 47  1  0
 27 48  1  0
M  END
$$$$
[H]O[C@@](C#Cc1c([H])c2c(c([H])c1F)OC([H])([H])C([H])([H])n1c-2nc(C(=O)N([H])[H])c1[H])(c1noc(C([H])([H])[H])n1)C([H])([H])F
     RDKit          3D

 45 48  0  0  0  0  0  0  0  0999 V2000
    6.9573    0.6793   -0.3637 C   0  0  0  0  0  0  0  0  0  0  0  0
    5.9194   -0.3657   -0.6123 C   0  0  0  0  0  0  0  0  0  0  0  0
    5.0861   -0.9369    0.2672 N   0  0  0  0  0  0  0  0  0  0  0  0
    4.3115   -1.8282   -0.3747 C   0  0  0  0  0  0  0  0  0  0  0  0
    4.6840   -1.7936   -1.6580 N   0  0  0  0  0  0  0  0  0  0  0  0
    5.6457   -0.9147   -1.7848 O   0  0  0  0  0  0  0  0  0  0  0  0
    3.2401   -2.6908    0.2024 C   0  0  2  0  0  0  0  0  0  0  0  0
    3.7939   -3.4103    1.2490 O   0  0  0  0  0  0  0  0  0  0  0  0
    2.6998   -3.6431   -0.8125 C   0  0  0  0  0  0  0  0  0  0  0  0
    3.7240   -4.4527   -1.2701 F   0  0  0  0  0  0  0  0  0  0  0  0
    2.1042   -1.8386    0.6529 C   0  0  0  0  0  0  0  0  0  0  0  0
    1.1961   -1.1291    1.0022 C   0  0  0  0  0  0  0  0  0  0  0  0
    0.1198   -0.2484    1.4043 C   0  0  0  0  0  0  0  0  0  0  0  0
   -0.8798   -0.0124    0.4902 C   0  0  0  0  0  0  0  0  0  0  0  0
   -1.9128    0.8313    0.8348 C   0  0  0  0  0  0  0  0  0  0  0  0
   -2.8981    0.9844   -0.2551 C   0  0  0  0  0  0  0  0  0  0  0  0
   -3.0323    0.0854   -1.2243 N   0  0  0  0  0  0  0  0  0  0  0  0
   -4.0208    0.5563   -2.0347 C   0  0  0  0  0  0  0  0  0  0  0  0
   -4.4520    1.7502   -1.5075 C   0  0  0  0  0  0  0  0  0  0  0  0
   -3.7505    2.0072   -0.4041 N   0  0  0  0  0  0  0  0  0  0  0  0
   -3.8949    3.1748    0.4551 C   0  0  0  0  0  0  0  0  0  0  0  0
   -4.1283    2.8056    1.9037 C   0  0  0  0  0  0  0  0  0  0  0  0
   -2.9592    2.3188    2.5437 O   0  0  0  0  0  0  0  0  0  0  0  0
   -1.9648    1.4439    2.0790 C   0  0  0  0  0  0  0  0  0  0  0  0
   -0.9548    1.1947    2.9809 C   0  0  0  0  0  0  0  0  0  0  0  0
    0.0887    0.3545    2.6577 C   0  0  0  0  0  0  0  0  0  0  0  0
    1.0947    0.0910    3.5286 F   0  0  0  0  0  0  0  0  0  0  0  0
   -4.5348   -0.0865   -3.2413 C   0  0  0  0  0  0  0  0  0  0  0  0
   -4.0433   -1.3421   -3.6896 N   0  0  0  0  0  0  0  0  0  0  0  0
   -5.4278    0.4804   -3.8969 O   0  0  0  0  0  0  0  0  0  0  0  0
    6.9223    1.4089   -1.1879 H   0  0  0  0  0  0  0  0  0  0  0  0
    7.9742    0.2657   -0.2773 H   0  0  0  0  0  0  0  0  0  0  0  0
    6.7436    1.2221    0.5765 H   0  0  0  0  0  0  0  0  0  0  0  0
    4.2309   -2.7652    1.8853 H   0  0  0  0  0  0  0  0  0  0  0  0
    1.9315   -4.3290   -0.3990 H   0  0  0  0  0  0  0  0  0  0  0  0
    2.2196   -3.1335   -1.6787 H   0  0  0  0  0  0  0  0  0  0  0  0
   -0.8474   -0.4807   -0.4772 H   0  0  0  0  0  0  0  0  0  0  0  0
   -5.2427    2.3795   -1.9367 H   0  0  0  0  0  0  0  0  0  0  0  0
   -4.7488    3.7697    0.1086 H   0  0  0  0  0  0  0  0  0  0  0  0
   -2.9207    3.7082    0.4125 H   0  0  0  0  0  0  0  0  0  0  0  0
   -4.3573    3.7884    2.4109 H   0  0  0  0  0  0  0  0  0  0  0  0
   -4.9947    2.1407    2.0068 H   0  0  0  0  0  0  0  0  0  0  0  0
   -0.9902    1.6692    3.9497 H   0  0  0  0  0  0  0  0  0  0  0  0
   -3.1829   -1.4613   -4.2625 H   0  0  0  0  0  0  0  0  0  0  0  0
   -4.5488   -2.2474   -3.4509 H   0  0  0  0  0  0  0  0  0  0  0  0
  1  2  1  0
  2  3  2  0
  3  4  1  0
  4  5  2  0
  5  6  1  0
  4  7  1  0
  7  8  1  0
  7  9  1  0
  9 10  1  0
  7 11  1  1
 11 12  3  0
 12 13  1  0
 13 14  2  0
 14 15  1  0
 15 16  1  0
 16 17  2  0
 17 18  1  0
 18 19  2  0
 19 20  1  0
 20 21  1  0
 21 22  1  0
 22 23  1  0
 23 24  1  0
 24 25  1  0
 25 26  2  0
 26 27  1  0
 18 28  1  0
 28 29  1  0
 28 30  2  0
  6  2  1  0
 26 13  1  0
 24 15  2  0
 20 16  1  0
  1 31  1  0
  1 32  1  0
  1 33  1  0
  8 34  1  0
  9 35  1  0
  9 36  1  0
 14 37  1  0
 19 38  1  0
 21 39  1  0
 21 40  1  0
 22 41  1  0
 22 42  1  0
 25 43  1  0
 29 44  1  0
 29 45  1  0
M  END
$$$$
[H]O[C@](C#Cc1c([H])c2c(c([H])c1F)OC([H])([H])[C@]([H])(N(C([H])([H])[H])C([H])([H])[H])c1sc(C(=O)N([H])[H])nc1-2)(c1noc(C([H])([H])[H])n1)C([H])([H])[H]
     RDKit          3D

 52 55  0  0  0  0  0  0  0  0999 V2000
   -6.3510   -1.2399   -0.3237 C   0  0  0  0  0  0  0  0  0  0  0  0
   -5.0629   -0.6334   -0.5376 N   0  0  0  0  0  0  0  0  0  0  0  0
   -4.1992   -1.5123   -1.2145 C   0  0  0  0  0  0  0  0  0  0  0  0
   -4.5656    0.1687    0.5158 C   0  0  1  0  0  0  0  0  0  0  0  0
   -4.2959   -0.4825    1.8188 C   0  0  0  0  0  0  0  0  0  0  0  0
   -3.1400   -1.2197    1.9697 O   0  0  0  0  0  0  0  0  0  0  0  0
   -1.8802   -1.1713    1.4169 C   0  0  0  0  0  0  0  0  0  0  0  0
   -1.0697   -2.2346    1.7783 C   0  0  0  0  0  0  0  0  0  0  0  0
    0.2389   -2.3027    1.2788 C   0  0  0  0  0  0  0  0  0  0  0  0
    1.0411   -3.3333    1.6240 F   0  0  0  0  0  0  0  0  0  0  0  0
    0.7155   -1.3307    0.4419 C   0  0  0  0  0  0  0  0  0  0  0  0
   -0.1300   -0.2896    0.1108 C   0  0  0  0  0  0  0  0  0  0  0  0
   -1.4121   -0.1848    0.5753 C   0  0  0  0  0  0  0  0  0  0  0  0
   -2.1278    1.0189    0.0575 C   0  0  0  0  0  0  0  0  0  0  0  0
   -1.4586    2.0149   -0.4234 N   0  0  0  0  0  0  0  0  0  0  0  0
   -2.1007    3.0699   -0.9028 C   0  0  0  0  0  0  0  0  0  0  0  0
   -3.7385    2.6390   -0.6637 S   0  0  0  0  0  0  0  0  0  0  0  0
   -3.5014    1.1049    0.0487 C   0  0  0  0  0  0  0  0  0  0  0  0
   -1.5304    4.3124   -1.4762 C   0  0  0  0  0  0  0  0  0  0  0  0
   -2.4028    5.2301   -2.0589 N   0  0  0  0  0  0  0  0  0  0  0  0
   -0.2588    4.4697   -1.4043 O   0  0  0  0  0  0  0  0  0  0  0  0
    2.0600   -1.3897   -0.1121 C   0  0  0  0  0  0  0  0  0  0  0  0
    3.1585   -1.4481   -0.6017 C   0  0  0  0  0  0  0  0  0  0  0  0
    4.4929   -1.5190   -1.2378 C   0  0  1  0  0  0  0  0  0  0  0  0
    5.2395   -2.7698   -0.8409 C   0  0  0  0  0  0  0  0  0  0  0  0
    4.2726   -1.5663   -2.6325 O   0  0  0  0  0  0  0  0  0  0  0  0
    5.2016   -0.2759   -0.8627 C   0  0  0  0  0  0  0  0  0  0  0  0
    4.7580    0.9789   -1.0616 N   0  0  0  0  0  0  0  0  0  0  0  0
    5.6521    1.8283   -0.6071 O   0  0  0  0  0  0  0  0  0  0  0  0
    6.6733    1.1867   -0.1133 C   0  0  0  0  0  0  0  0  0  0  0  0
    7.8866    1.7798    0.4942 C   0  0  0  0  0  0  0  0  0  0  0  0
    6.3969   -0.1424   -0.2705 N   0  0  0  0  0  0  0  0  0  0  0  0
   -6.8533   -0.8066    0.5875 H   0  0  0  0  0  0  0  0  0  0  0  0
   -6.3282   -2.3463   -0.2329 H   0  0  0  0  0  0  0  0  0  0  0  0
   -7.0613   -1.0565   -1.1853 H   0  0  0  0  0  0  0  0  0  0  0  0
   -4.7877   -1.9258   -2.0937 H   0  0  0  0  0  0  0  0  0  0  0  0
   -3.3578   -0.9724   -1.7383 H   0  0  0  0  0  0  0  0  0  0  0  0
   -3.8519   -2.4045   -0.6851 H   0  0  0  0  0  0  0  0  0  0  0  0
   -5.4323    0.8860    0.7477 H   0  0  0  0  0  0  0  0  0  0  0  0
   -5.1781   -1.1646    2.0113 H   0  0  0  0  0  0  0  0  0  0  0  0
   -4.4194    0.3058    2.6277 H   0  0  0  0  0  0  0  0  0  0  0  0
   -1.4441   -2.9910    2.4269 H   0  0  0  0  0  0  0  0  0  0  0  0
    0.2441    0.4859   -0.5544 H   0  0  0  0  0  0  0  0  0  0  0  0
   -3.2376    5.5599   -1.5454 H   0  0  0  0  0  0  0  0  0  0  0  0
   -2.2247    5.5858   -3.0145 H   0  0  0  0  0  0  0  0  0  0  0  0
    5.7805   -3.1378   -1.7539 H   0  0  0  0  0  0  0  0  0  0  0  0
    4.6059   -3.5606   -0.4270 H   0  0  0  0  0  0  0  0  0  0  0  0
    6.0440   -2.4530   -0.1260 H   0  0  0  0  0  0  0  0  0  0  0  0
    4.4174   -0.6464   -2.9857 H   0  0  0  0  0  0  0  0  0  0  0  0
    8.1225    2.7115   -0.0909 H   0  0  0  0  0  0  0  0  0  0  0  0
    7.6751    2.1129    1.5496 H   0  0  0  0  0  0  0  0  0  0  0  0
    8.7252    1.0619    0.5019 H   0  0  0  0  0  0  0  0  0  0  0  0
  1  2  1  0
  2  3  1  0
  2  4  1  0
  4  5  1  0
  5  6  1  0
  6  7  1  0
  7  8  2  0
  8  9  1  0
  9 10  1  0
  9 11  2  0
 11 12  1  0
 12 13  2  0
 13 14  1  0
 14 15  1  0
 15 16  2  0
 16 17  1  0
 17 18  1  0
 16 19  1  0
 19 20  1  0
 19 21  2  0
 11 22  1  0
 22 23  3  0
 24 23  1  1
 24 25  1  0
 24 26  1  0
 24 27  1  0
 27 28  2  0
 28 29  1  0
 29 30  1  0
 30 31  1  0
 30 32  2  0
 18  4  1  0
 32 27  1  0
 13  7  1  0
 18 14  2  0
  1 33  1  0
  1 34  1  0
  1 35  1  0
  3 36  1  0
  3 37  1  0
  3 38  1  0
  4 39  1  1
  5 40  1  0
  5 41  1  0
  8 42  1  0
 12 43  1  0
 20 44  1  0
 20 45  1  0
 25 46  1  0
 25 47  1  0
 25 48  1  0
 26 49  1  0
 31 50  1  0
 31 51  1  0
 31 52  1  0
M  END
$$$$
[H]O[C@](C#Cc1c([H])c([H])c2c(c1[H])-c1nc(C(=O)N([H])[H])n(C([H])([H])[H])c1C1([H])C([H])([H])C2([H])C1([H])[H])(c1noc(C([H])([H])[H])n1)C([H])([H])[H]
     RDKit          3D

 51 55  0  0  0  0  0  0  0  0999 V2000
    7.1229    2.9554    0.3640 C   0  0  0  0  0  0  0  0  0  0  0  0
    6.6176    1.5311    0.3125 C   0  0  0  0  0  0  0  0  0  0  0  0
    5.6480    1.0106   -0.4431 N   0  0  0  0  0  0  0  0  0  0  0  0
    5.5268   -0.2985   -0.1836 C   0  0  0  0  0  0  0  0  0  0  0  0
    6.4812   -0.5375    0.7812 N   0  0  0  0  0  0  0  0  0  0  0  0
    7.1015    0.5632    1.0486 O   0  0  0  0  0  0  0  0  0  0  0  0
    4.7203   -1.3557   -0.7489 C   0  0  2  0  0  0  0  0  0  0  0  0
    5.2735   -2.7283   -0.2492 C   0  0  0  0  0  0  0  0  0  0  0  0
    4.8821   -1.4521   -2.1549 O   0  0  0  0  0  0  0  0  0  0  0  0
    3.3100   -1.2790   -0.4423 C   0  0  0  0  0  0  0  0  0  0  0  0
    2.1069   -1.3145   -0.1899 C   0  0  0  0  0  0  0  0  0  0  0  0
    0.7105   -1.4544    0.1008 C   0  0  0  0  0  0  0  0  0  0  0  0
    0.2638   -2.7256    0.5582 C   0  0  0  0  0  0  0  0  0  0  0  0
   -1.0408   -2.9703    0.8760 C   0  0  0  0  0  0  0  0  0  0  0  0
   -1.9015   -1.9334    0.7345 C   0  0  0  0  0  0  0  0  0  0  0  0
   -3.2810   -2.3512    1.1645 C   0  0  0  0  0  0  0  0  0  0  0  0
   -4.3662   -1.7838    0.2912 C   0  0  0  0  0  0  0  0  0  0  0  0
   -4.5139   -0.5604    1.2334 C   0  0  0  0  0  0  0  0  0  0  0  0
   -3.7349   -1.3393    2.2411 C   0  0  0  0  0  0  0  0  0  0  0  0
   -3.7427    0.5570    0.5886 C   0  0  0  0  0  0  0  0  0  0  0  0
   -2.4201    0.4857    0.1234 C   0  0  0  0  0  0  0  0  0  0  0  0
   -2.1801    1.6648   -0.4685 N   0  0  0  0  0  0  0  0  0  0  0  0
   -3.2617    2.4587   -0.3941 C   0  0  0  0  0  0  0  0  0  0  0  0
   -3.5477    3.7649   -0.9563 C   0  0  0  0  0  0  0  0  0  0  0  0
   -3.0003    4.1694   -2.1993 N   0  0  0  0  0  0  0  0  0  0  0  0
   -4.3116    4.5723   -0.3398 O   0  0  0  0  0  0  0  0  0  0  0  0
   -4.2253    1.7427    0.2723 N   0  0  0  0  0  0  0  0  0  0  0  0
   -5.5432    2.2342    0.5727 C   0  0  0  0  0  0  0  0  0  0  0  0
   -1.5289   -0.6631    0.2912 C   0  0  0  0  0  0  0  0  0  0  0  0
   -0.1930   -0.4555   -0.0211 C   0  0  0  0  0  0  0  0  0  0  0  0
    6.5960    3.4529    1.1861 H   0  0  0  0  0  0  0  0  0  0  0  0
    8.2243    3.0021    0.5128 H   0  0  0  0  0  0  0  0  0  0  0  0
    6.8550    3.4448   -0.5813 H   0  0  0  0  0  0  0  0  0  0  0  0
    6.3414   -2.7281   -0.4487 H   0  0  0  0  0  0  0  0  0  0  0  0
    5.0442   -2.7326    0.8488 H   0  0  0  0  0  0  0  0  0  0  0  0
    4.6517   -3.4683   -0.7398 H   0  0  0  0  0  0  0  0  0  0  0  0
    4.1927   -2.0935   -2.4321 H   0  0  0  0  0  0  0  0  0  0  0  0
    0.9953   -3.5010    0.6428 H   0  0  0  0  0  0  0  0  0  0  0  0
   -1.3154   -3.9590    1.2156 H   0  0  0  0  0  0  0  0  0  0  0  0
   -3.3604   -3.3956    1.4354 H   0  0  0  0  0  0  0  0  0  0  0  0
   -3.9135   -1.4837   -0.7007 H   0  0  0  0  0  0  0  0  0  0  0  0
   -5.2634   -2.3866    0.1818 H   0  0  0  0  0  0  0  0  0  0  0  0
   -5.5496   -0.3374    1.4722 H   0  0  0  0  0  0  0  0  0  0  0  0
   -4.3470   -1.8215    3.0320 H   0  0  0  0  0  0  0  0  0  0  0  0
   -2.8952   -0.7651    2.6653 H   0  0  0  0  0  0  0  0  0  0  0  0
   -2.7980    5.1572   -2.4284 H   0  0  0  0  0  0  0  0  0  0  0  0
   -2.7793    3.4843   -2.9691 H   0  0  0  0  0  0  0  0  0  0  0  0
   -5.5246    3.1906    1.1562 H   0  0  0  0  0  0  0  0  0  0  0  0
   -6.1489    2.3897   -0.3571 H   0  0  0  0  0  0  0  0  0  0  0  0
   -6.1102    1.5374    1.1946 H   0  0  0  0  0  0  0  0  0  0  0  0
    0.1328    0.5063   -0.3647 H   0  0  0  0  0  0  0  0  0  0  0  0
  1  2  1  0
  2  3  2  0
  3  4  1  0
  4  5  2  0
  5  6  1  0
  4  7  1  0
  7  8  1  0
  7  9  1  0
  7 10  1  6
 10 11  3  0
 11 12  1  0
 12 13  2  0
 13 14  1  0
 14 15  2  0
 15 16  1  0
 16 17  1  0
 17 18  1  0
 18 19  1  0
 18 20  1  0
 20 21  2  0
 21 22  1  0
 22 23  2  0
 23 24  1  0
 24 25  1  0
 24 26  2  0
 23 27  1  0
 27 28  1  0
 21 29  1  0
 29 30  2  0
  6  2  1  0
 30 12  1  0
 29 15  1  0
 19 16  1  0
 27 20  1  0
  1 31  1  0
  1 32  1  0
  1 33  1  0
  8 34  1  0
  8 35  1  0
  8 36  1  0
  9 37  1  0
 13 38  1  0
 14 39  1  0
 16 40  1  0
 17 41  1  0
 17 42  1  0
 18 43  1  0
 19 44  1  0
 19 45  1  0
 25 46  1  0
 25 47  1  0
 28 48  1  0
 28 49  1  0
 28 50  1  0
 30 51  1  0
M  END
$$$$
[H]OC(C#Cc1c([H])c2c(c([H])c1F)OC([H])([H])C([H])([H])n1c-2nc(C(=O)N([H])[H])c1[H])(C([H])([H])[H])C([H])([H])[H]
     RDKit          3D

 40 42  0  0  0  0  0  0  0  0999 V2000
   -4.6342   -2.5526   -0.4080 C   0  0  0  0  0  0  0  0  0  0  0  0
   -4.7995   -1.0579   -0.5143 C   0  0  0  0  0  0  0  0  0  0  0  0
   -5.0870   -0.6126   -1.9208 C   0  0  0  0  0  0  0  0  0  0  0  0
   -5.8745   -0.7005    0.2925 O   0  0  0  0  0  0  0  0  0  0  0  0
   -3.5557   -0.4164   -0.0794 C   0  0  0  0  0  0  0  0  0  0  0  0
   -2.5386    0.1288    0.2681 C   0  0  0  0  0  0  0  0  0  0  0  0
   -1.3110    0.8042    0.6689 C   0  0  0  0  0  0  0  0  0  0  0  0
   -0.0892    0.3283    0.2552 C   0  0  0  0  0  0  0  0  0  0  0  0
    1.0472    0.9910    0.6528 C   0  0  0  0  0  0  0  0  0  0  0  0
    2.2720    0.3535    0.1245 C   0  0  0  0  0  0  0  0  0  0  0  0
    2.2840   -0.9133   -0.3502 N   0  0  0  0  0  0  0  0  0  0  0  0
    3.5378   -1.1801   -0.7473 C   0  0  0  0  0  0  0  0  0  0  0  0
    4.2853   -0.0481   -0.5033 C   0  0  0  0  0  0  0  0  0  0  0  0
    3.4964    0.9051    0.0391 N   0  0  0  0  0  0  0  0  0  0  0  0
    3.8883    2.2333    0.4406 C   0  0  0  0  0  0  0  0  0  0  0  0
    3.4448    2.5702    1.8412 C   0  0  0  0  0  0  0  0  0  0  0  0
    2.0618    2.8676    1.9173 O   0  0  0  0  0  0  0  0  0  0  0  0
    1.0029    2.1282    1.4605 C   0  0  0  0  0  0  0  0  0  0  0  0
   -0.2244    2.6005    1.8720 C   0  0  0  0  0  0  0  0  0  0  0  0
   -1.3475    1.9192    1.4605 C   0  0  0  0  0  0  0  0  0  0  0  0
   -2.5578    2.3995    1.8767 F   0  0  0  0  0  0  0  0  0  0  0  0
    4.0714   -2.4083   -1.3314 C   0  0  0  0  0  0  0  0  0  0  0  0
    3.2515   -3.5432   -1.5593 N   0  0  0  0  0  0  0  0  0  0  0  0
    5.2829   -2.5215   -1.6613 O   0  0  0  0  0  0  0  0  0  0  0  0
   -4.4477   -2.8159    0.6409 H   0  0  0  0  0  0  0  0  0  0  0  0
   -5.5829   -3.0552   -0.7074 H   0  0  0  0  0  0  0  0  0  0  0  0
   -3.7991   -2.8313   -1.0879 H   0  0  0  0  0  0  0  0  0  0  0  0
   -4.6575    0.4193   -2.0364 H   0  0  0  0  0  0  0  0  0  0  0  0
   -6.1927   -0.5770   -2.0584 H   0  0  0  0  0  0  0  0  0  0  0  0
   -4.6645   -1.3022   -2.6837 H   0  0  0  0  0  0  0  0  0  0  0  0
   -5.6401    0.0756    0.8507 H   0  0  0  0  0  0  0  0  0  0  0  0
    0.0041   -0.5432   -0.3676 H   0  0  0  0  0  0  0  0  0  0  0  0
    5.3448    0.1330   -0.6875 H   0  0  0  0  0  0  0  0  0  0  0  0
    3.4169    2.9637   -0.2448 H   0  0  0  0  0  0  0  0  0  0  0  0
    4.9750    2.3797    0.3650 H   0  0  0  0  0  0  0  0  0  0  0  0
    3.9705    3.5302    2.1129 H   0  0  0  0  0  0  0  0  0  0  0  0
    3.7557    1.7922    2.5671 H   0  0  0  0  0  0  0  0  0  0  0  0
   -0.2474    3.4823    2.4977 H   0  0  0  0  0  0  0  0  0  0  0  0
    2.4108   -3.6723   -0.9645 H   0  0  0  0  0  0  0  0  0  0  0  0
    3.4472   -4.2538   -2.2908 H   0  0  0  0  0  0  0  0  0  0  0  0
  1  2  1  0
  2  3  1  0
  2  4  1  0
  2  5  1  0
  5  6  3  0
  6  7  1  0
  7  8  2  0
  8  9  1  0
  9 10  1  0
 10 11  2  0
 11 12  1  0
 12 13  2  0
 13 14  1  0
 14 15  1  0
 15 16  1  0
 16 17  1  0
 17 18  1  0
 18 19  1  0
 19 20  2  0
 20 21  1  0
 12 22  1  0
 22 23  1  0
 22 24  2  0
 20  7  1  0
 18  9  2  0
 14 10  1  0
  1 25  1  0
  1 26  1  0
  1 27  1  0
  3 28  1  0
  3 29  1  0
  3 30  1  0
  4 31  1  0
  8 32  1  0
 13 33  1  0
 15 34  1  0
 15 35  1  0
 16 36  1  0
 16 37  1  0
 19 38  1  0
 23 39  1  0
 23 40  1  0
M  END
$$$$
[H]OC1(C#Cc2c([H])c3c(c([H])c2F)OC([H])([H])C([H])([H])n2c-3nc(C(=O)N([H])[H])c2[H])C(=O)N([H])C([H])([H])C1([H])[H]
     RDKit          3D

 42 45  0  0  0  0  0  0  0  0999 V2000
    3.1783    4.0195   -0.9803 N   0  0  0  0  0  0  0  0  0  0  0  0
    4.1970    3.0937   -0.7106 C   0  0  0  0  0  0  0  0  0  0  0  0
    5.3936    3.4489   -0.7709 O   0  0  0  0  0  0  0  0  0  0  0  0
    3.8759    1.7196   -0.3600 C   0  0  0  0  0  0  0  0  0  0  0  0
    4.7466    0.6820   -0.0651 C   0  0  0  0  0  0  0  0  0  0  0  0
    4.0761   -0.4491    0.2124 N   0  0  0  0  0  0  0  0  0  0  0  0
    4.7207   -1.7026    0.5577 C   0  0  0  0  0  0  0  0  0  0  0  0
    4.0663   -2.8790   -0.1164 C   0  0  0  0  0  0  0  0  0  0  0  0
    2.8556   -3.1740    0.5577 O   0  0  0  0  0  0  0  0  0  0  0  0
    1.6941   -2.3991    0.5048 C   0  0  0  0  0  0  0  0  0  0  0  0
    0.5312   -3.1249    0.6835 C   0  0  0  0  0  0  0  0  0  0  0  0
   -0.6704   -2.4417    0.6470 C   0  0  0  0  0  0  0  0  0  0  0  0
   -1.8620   -3.1042    0.8176 F   0  0  0  0  0  0  0  0  0  0  0  0
   -0.7135   -1.0771    0.4389 C   0  0  0  0  0  0  0  0  0  0  0  0
    0.4302   -0.3552    0.2619 C   0  0  0  0  0  0  0  0  0  0  0  0
    1.6413   -1.0146    0.2942 C   0  0  0  0  0  0  0  0  0  0  0  0
    2.7765   -0.1233    0.0920 C   0  0  0  0  0  0  0  0  0  0  0  0
    2.6327    1.1644   -0.2486 N   0  0  0  0  0  0  0  0  0  0  0  0
   -1.9709   -0.3852    0.4042 C   0  0  0  0  0  0  0  0  0  0  0  0
   -3.0015    0.2043    0.3691 C   0  0  0  0  0  0  0  0  0  0  0  0
   -4.2558    0.9435    0.3090 C   0  0  0  0  0  0  0  0  0  0  0  0
   -4.0671    2.3046    0.1396 O   0  0  0  0  0  0  0  0  0  0  0  0
   -5.0550    0.4180   -0.8650 C   0  0  0  0  0  0  0  0  0  0  0  0
   -6.4675    0.8082   -0.4827 C   0  0  0  0  0  0  0  0  0  0  0  0
   -6.4718    0.7066    0.9562 N   0  0  0  0  0  0  0  0  0  0  0  0
   -5.1439    0.6301    1.4566 C   0  0  0  0  0  0  0  0  0  0  0  0
   -4.7331    0.3604    2.6119 O   0  0  0  0  0  0  0  0  0  0  0  0
    3.1303    4.4670   -1.9161 H   0  0  0  0  0  0  0  0  0  0  0  0
    2.4755    4.2598   -0.2557 H   0  0  0  0  0  0  0  0  0  0  0  0
    5.8197    0.8121   -0.0699 H   0  0  0  0  0  0  0  0  0  0  0  0
    5.8001   -1.6226    0.3167 H   0  0  0  0  0  0  0  0  0  0  0  0
    4.6689   -1.9023    1.6664 H   0  0  0  0  0  0  0  0  0  0  0  0
    3.9233   -2.6202   -1.1797 H   0  0  0  0  0  0  0  0  0  0  0  0
    4.7664   -3.7441   -0.1020 H   0  0  0  0  0  0  0  0  0  0  0  0
    0.5751   -4.1916    0.8456 H   0  0  0  0  0  0  0  0  0  0  0  0
    0.4553    0.7165    0.0951 H   0  0  0  0  0  0  0  0  0  0  0  0
   -3.2288    2.5446   -0.2847 H   0  0  0  0  0  0  0  0  0  0  0  0
   -4.9281   -0.6757   -0.9536 H   0  0  0  0  0  0  0  0  0  0  0  0
   -4.7106    0.9559   -1.7752 H   0  0  0  0  0  0  0  0  0  0  0  0
   -6.5846    1.8772   -0.7401 H   0  0  0  0  0  0  0  0  0  0  0  0
   -7.2275    0.1575   -0.9627 H   0  0  0  0  0  0  0  0  0  0  0  0
   -7.3382    0.6921    1.5399 H   0  0  0  0  0  0  0  0  0  0  0  0
  1  2  1  0
  2  3  2  0
  2  4  1  0
  4  5  2  0
  5  6  1  0
  6  7  1  0
  7  8  1  0
  8  9  1  0
  9 10  1  0
 10 11  2  0
 11 12  1  0
 12 13  1  0
 12 14  2  0
 14 15  1  0
 15 16  2  0
 16 17  1  0
 17 18  2  0
 14 19  1  0
 19 20  3  0
 20 21  1  0
 21 22  1  0
 21 23  1  0
 23 24  1  0
 24 25  1  0
 25 26  1  0
 26 27  2  0
 18  4  1  0
 26 21  1  0
 17  6  1  0
 16 10  1  0
  1 28  1  0
  1 29  1  0
  5 30  1  0
  7 31  1  0
  7 32  1  0
  8 33  1  0
  8 34  1  0
 11 35  1  0
 15 36  1  0
 22 37  1  0
 23 38  1  0
 23 39  1  0
 24 40  1  0
 24 41  1  0
 25 42  1  0
M  END
$$$$
[H]O[C@](C#Cc1c([H])c([H])c2c(c1[H])-c1nc(C(=O)N([H])[H])sc1C(F)(F)C([H])([H])O2)(c1nc([H])c([H])c([H])n1)C([H])([H])[H]
     RDKit          3D

 44 47  0  0  0  0  0  0  0  0999 V2000
    3.6333   -0.6370    2.2695 C   0  0  0  0  0  0  0  0  0  0  0  0
    3.7801   -0.5682    0.7390 C   0  0  1  0  0  0  0  0  0  0  0  0
    4.4965   -1.7466    0.4092 O   0  0  0  0  0  0  0  0  0  0  0  0
    2.4830   -0.5542    0.1059 C   0  0  0  0  0  0  0  0  0  0  0  0
    1.3985   -0.6264   -0.4024 C   0  0  0  0  0  0  0  0  0  0  0  0
    0.0759   -0.8019   -0.9725 C   0  0  0  0  0  0  0  0  0  0  0  0
   -0.0994   -1.4994   -2.1462 C   0  0  0  0  0  0  0  0  0  0  0  0
   -1.3469   -1.7897   -2.6921 C   0  0  0  0  0  0  0  0  0  0  0  0
   -2.4361   -1.3525   -2.0179 C   0  0  0  0  0  0  0  0  0  0  0  0
   -3.6692   -1.6783   -2.6111 O   0  0  0  0  0  0  0  0  0  0  0  0
   -4.8975   -2.0713   -2.0579 C   0  0  0  0  0  0  0  0  0  0  0  0
   -4.9508   -2.1702   -0.5617 C   0  0  0  0  0  0  0  0  0  0  0  0
   -6.1733   -2.5914   -0.1266 F   0  0  0  0  0  0  0  0  0  0  0  0
   -3.9640   -3.0956   -0.1970 F   0  0  0  0  0  0  0  0  0  0  0  0
   -4.5970   -0.8709    0.1256 C   0  0  0  0  0  0  0  0  0  0  0  0
   -5.4957    0.0725    1.2044 S   0  0  0  0  0  0  0  0  0  0  0  0
   -4.3388    1.3367    1.4858 C   0  0  0  0  0  0  0  0  0  0  0  0
   -3.3284    0.9444    0.7220 N   0  0  0  0  0  0  0  0  0  0  0  0
   -3.4086   -0.1425    0.0307 C   0  0  0  0  0  0  0  0  0  0  0  0
   -2.3072   -0.6473   -0.8401 C   0  0  0  0  0  0  0  0  0  0  0  0
   -1.0574   -0.3686   -0.3144 C   0  0  0  0  0  0  0  0  0  0  0  0
   -4.5055    2.4969    2.3613 C   0  0  0  0  0  0  0  0  0  0  0  0
   -3.5644    3.5331    2.3636 N   0  0  0  0  0  0  0  0  0  0  0  0
   -5.5245    2.5399    3.1124 O   0  0  0  0  0  0  0  0  0  0  0  0
    4.6338    0.5637    0.3977 C   0  0  0  0  0  0  0  0  0  0  0  0
    4.3178    1.6697   -0.2417 N   0  0  0  0  0  0  0  0  0  0  0  0
    5.2461    2.6218   -0.4806 C   0  0  0  0  0  0  0  0  0  0  0  0
    6.5839    2.4879   -0.0644 C   0  0  0  0  0  0  0  0  0  0  0  0
    6.9012    1.3211    0.6061 C   0  0  0  0  0  0  0  0  0  0  0  0
    5.9497    0.4198    0.8125 N   0  0  0  0  0  0  0  0  0  0  0  0
    2.5485   -0.7373    2.5380 H   0  0  0  0  0  0  0  0  0  0  0  0
    3.9909    0.3384    2.6970 H   0  0  0  0  0  0  0  0  0  0  0  0
    4.2388   -1.4416    2.7048 H   0  0  0  0  0  0  0  0  0  0  0  0
    3.9467   -2.2296   -0.2689 H   0  0  0  0  0  0  0  0  0  0  0  0
    0.8055   -1.8333   -2.6624 H   0  0  0  0  0  0  0  0  0  0  0  0
   -1.4355   -2.3389   -3.6400 H   0  0  0  0  0  0  0  0  0  0  0  0
   -5.7708   -1.4933   -2.4055 H   0  0  0  0  0  0  0  0  0  0  0  0
   -5.0965   -3.1232   -2.4220 H   0  0  0  0  0  0  0  0  0  0  0  0
   -1.0053    0.1907    0.6038 H   0  0  0  0  0  0  0  0  0  0  0  0
   -3.3928    4.2060    1.5517 H   0  0  0  0  0  0  0  0  0  0  0  0
   -2.9597    3.7049    3.2065 H   0  0  0  0  0  0  0  0  0  0  0  0
    5.0259    3.5561   -0.9989 H   0  0  0  0  0  0  0  0  0  0  0  0
    7.3332    3.2337   -0.2383 H   0  0  0  0  0  0  0  0  0  0  0  0
    7.9359    1.1722    0.9521 H   0  0  0  0  0  0  0  0  0  0  0  0
  1  2  1  0
  2  3  1  0
  2  4  1  6
  4  5  3  0
  5  6  1  0
  6  7  2  0
  7  8  1  0
  8  9  2  0
  9 10  1  0
 10 11  1  0
 11 12  1  0
 12 13  1  0
 12 14  1  0
 12 15  1  0
 15 16  1  0
 16 17  1  0
 17 18  2  0
 18 19  1  0
 19 20  1  0
 20 21  2  0
 17 22  1  0
 22 23  1  0
 22 24  2  0
  2 25  1  0
 25 26  2  0
 26 27  1  0
 27 28  2  0
 28 29  1  0
 29 30  2  0
 21  6  1  0
 30 25  1  0
 20  9  1  0
 19 15  2  0
  1 31  1  0
  1 32  1  0
  1 33  1  0
  3 34  1  0
  7 35  1  0
  8 36  1  0
 11 37  1  0
 11 38  1  0
 21 39  1  0
 23 40  1  0
 23 41  1  0
 27 42  1  0
 28 43  1  0
 29 44  1  0
M  END
$$$$
[H]O[C@@]([H])(c1c([H])c([H])nn1C([H])([H])[H])c1c(C(=O)N([H])[H])nc2n1C1([H])C([H])([H])C([H])(c3c([H])c([H])c(C#C[C@@](O[H])(c4noc(C([H])([H])[H])c4[H])C([H])([H])[H])c([H])c3-2)C1([H])[H]
     RDKit          3D

 63 68  0  0  0  0  0  0  0  0999 V2000
    9.1889    1.8494    0.5568 C   0  0  0  0  0  0  0  0  0  0  0  0
    8.0237    0.9332    0.5232 C   0  0  0  0  0  0  0  0  0  0  0  0
    7.6245   -0.0399    1.4273 C   0  0  0  0  0  0  0  0  0  0  0  0
    6.4940   -0.5795    0.9187 C   0  0  0  0  0  0  0  0  0  0  0  0
    6.2531    0.0724   -0.2519 N   0  0  0  0  0  0  0  0  0  0  0  0
    7.1536    0.9527   -0.4706 O   0  0  0  0  0  0  0  0  0  0  0  0
    5.6100   -1.6682    1.4812 C   0  0  2  0  0  0  0  0  0  0  0  0
    5.2212   -1.2510    2.8771 C   0  0  0  0  0  0  0  0  0  0  0  0
    6.2568   -2.8549    1.3796 O   0  0  0  0  0  0  0  0  0  0  0  0
    4.3444   -1.6083    0.6851 C   0  0  0  0  0  0  0  0  0  0  0  0
    3.3504   -1.4849    0.0348 C   0  0  0  0  0  0  0  0  0  0  0  0
    2.1758   -1.2386   -0.7496 C   0  0  0  0  0  0  0  0  0  0  0  0
    2.2442   -1.2107   -2.1409 C   0  0  0  0  0  0  0  0  0  0  0  0
    1.1238   -0.8571   -2.8654 C   0  0  0  0  0  0  0  0  0  0  0  0
   -0.0239   -0.5440   -2.2052 C   0  0  0  0  0  0  0  0  0  0  0  0
   -1.1443   -0.0636   -3.1095 C   0  0  0  0  0  0  0  0  0  0  0  0
   -2.4629   -0.5916   -2.6247 C   0  0  0  0  0  0  0  0  0  0  0  0
   -2.7321    0.6982   -1.7919 C   0  0  0  0  0  0  0  0  0  0  0  0
   -1.6021    1.3130   -2.5640 C   0  0  0  0  0  0  0  0  0  0  0  0
   -2.4334    0.3794   -0.4089 N   0  0  0  0  0  0  0  0  0  0  0  0
   -1.2899   -0.2408    0.0150 C   0  0  0  0  0  0  0  0  0  0  0  0
   -1.3929   -0.4483    1.3143 N   0  0  0  0  0  0  0  0  0  0  0  0
   -2.6047    0.0440    1.7291 C   0  0  0  0  0  0  0  0  0  0  0  0
   -3.0875   -0.0517    3.1116 C   0  0  0  0  0  0  0  0  0  0  0  0
   -2.3305   -0.7537    4.0732 N   0  0  0  0  0  0  0  0  0  0  0  0
   -4.1787    0.4801    3.4525 O   0  0  0  0  0  0  0  0  0  0  0  0
   -3.2596    0.5702    0.6432 C   0  0  0  0  0  0  0  0  0  0  0  0
   -4.5594    1.2328    0.6061 C   0  0  1  0  0  0  0  0  0  0  0  0
   -4.6154    2.3522   -0.2575 O   0  0  0  0  0  0  0  0  0  0  0  0
   -5.7144    0.3766    0.2990 C   0  0  0  0  0  0  0  0  0  0  0  0
   -5.7869   -0.9623    0.0650 C   0  0  0  0  0  0  0  0  0  0  0  0
   -7.1061   -1.2917   -0.1656 C   0  0  0  0  0  0  0  0  0  0  0  0
   -7.7828   -0.1405   -0.0611 N   0  0  0  0  0  0  0  0  0  0  0  0
   -6.9678    0.8668    0.2153 N   0  0  0  0  0  0  0  0  0  0  0  0
   -7.3852    2.2566    0.3930 C   0  0  0  0  0  0  0  0  0  0  0  0
   -0.1287   -0.5668   -0.8291 C   0  0  0  0  0  0  0  0  0  0  0  0
    0.9924   -0.9214   -0.0988 C   0  0  0  0  0  0  0  0  0  0  0  0
    8.9069    2.8355    0.9809 H   0  0  0  0  0  0  0  0  0  0  0  0
    9.5325    2.0401   -0.4864 H   0  0  0  0  0  0  0  0  0  0  0  0
   10.0126    1.3520    1.0890 H   0  0  0  0  0  0  0  0  0  0  0  0
    8.1457   -0.2879    2.3326 H   0  0  0  0  0  0  0  0  0  0  0  0
    4.2727   -1.7027    3.2037 H   0  0  0  0  0  0  0  0  0  0  0  0
    5.1660   -0.1355    2.9740 H   0  0  0  0  0  0  0  0  0  0  0  0
    6.0146   -1.5635    3.5833 H   0  0  0  0  0  0  0  0  0  0  0  0
    6.0016   -3.4434    0.6244 H   0  0  0  0  0  0  0  0  0  0  0  0
    3.1337   -1.4580   -2.6615 H   0  0  0  0  0  0  0  0  0  0  0  0
    1.1130   -0.8176   -3.9305 H   0  0  0  0  0  0  0  0  0  0  0  0
   -0.9133   -0.0945   -4.1660 H   0  0  0  0  0  0  0  0  0  0  0  0
   -3.2361   -0.7408   -3.4076 H   0  0  0  0  0  0  0  0  0  0  0  0
   -2.3736   -1.4798   -1.9649 H   0  0  0  0  0  0  0  0  0  0  0  0
   -3.7315    1.0989   -1.9990 H   0  0  0  0  0  0  0  0  0  0  0  0
   -0.8017    1.7965   -1.9641 H   0  0  0  0  0  0  0  0  0  0  0  0
   -1.9848    1.9333   -3.3975 H   0  0  0  0  0  0  0  0  0  0  0  0
   -1.3138   -0.5884    4.2131 H   0  0  0  0  0  0  0  0  0  0  0  0
   -2.7267   -1.4998    4.7284 H   0  0  0  0  0  0  0  0  0  0  0  0
   -4.8243    1.7118    1.6079 H   0  0  0  0  0  0  0  0  0  0  0  0
   -3.8680    2.9781   -0.0729 H   0  0  0  0  0  0  0  0  0  0  0  0
   -4.9303   -1.6174    0.0735 H   0  0  0  0  0  0  0  0  0  0  0  0
   -7.5421   -2.2823   -0.3922 H   0  0  0  0  0  0  0  0  0  0  0  0
   -8.4521    2.3319    0.6600 H   0  0  0  0  0  0  0  0  0  0  0  0
   -7.2128    2.8565   -0.5023 H   0  0  0  0  0  0  0  0  0  0  0  0
   -6.8166    2.7228    1.2524 H   0  0  0  0  0  0  0  0  0  0  0  0
    0.9609   -0.9537    0.9703 H   0  0  0  0  0  0  0  0  0  0  0  0
  1  2  1  0
  2  3  2  0
  3  4  1  0
  4  5  2  0
  5  6  1  0
  4  7  1  0
  7  8  1  0
  7  9  1  0
  7 10  1  6
 10 11  3  0
 11 12  1  0
 12 13  2  0
 13 14  1  0
 14 15  2  0
 15 16  1  0
 16 17  1  0
 17 18  1  0
 18 19  1  0
 18 20  1  0
 20 21  1  0
 21 22  2  0
 22 23  1  0
 23 24  1  0
 24 25  1  0
 24 26  2  0
 23 27  2  0
 27 28  1  0
 28 29  1  0
 28 30  1  0
 30 31  2  0
 31 32  1  0
 32 33  2  0
 33 34  1  0
 34 35  1  0
 21 36  1  0
 36 37  2  0
  6  2  1  0
 37 12  1  0
 36 15  1  0
 19 16  1  0
 27 20  1  0
 34 30  1  0
  1 38  1  0
  1 39  1  0
  1 40  1  0
  3 41  1  0
  8 42  1  0
  8 43  1  0
  8 44  1  0
  9 45  1  0
 13 46  1  0
 14 47  1  0
 16 48  1  0
 17 49  1  0
 17 50  1  0
 18 51  1  0
 19 52  1  0
 19 53  1  0
 25 54  1  0
 25 55  1  0
 28 56  1  1
 29 57  1  0
 31 58  1  0
 32 59  1  0
 35 60  1  0
 35 61  1  0
 35 62  1  0
 37 63  1  0
M  END
$$$$
[H]OC(C#Cc1c([H])c2c(c([H])c1F)OC([H])([H])C([H])([H])n1c-2nc(C(=O)N([H])[H])c1-c1nc(C2([H])C([H])([H])C2([H])[H])nn1[H])(C([H])([H])[H])C([H])([H])[H]
     RDKit          3D

 53 57  0  0  0  0  0  0  0  0999 V2000
    6.6055   -2.5252   -0.2597 C   0  0  0  0  0  0  0  0  0  0  0  0
    7.0314   -1.1160    0.0651 C   0  0  0  0  0  0  0  0  0  0  0  0
    7.9636   -0.6027   -1.0094 C   0  0  0  0  0  0  0  0  0  0  0  0
    7.6964   -1.1065    1.2673 O   0  0  0  0  0  0  0  0  0  0  0  0
    5.7874   -0.3124    0.1046 C   0  0  0  0  0  0  0  0  0  0  0  0
    4.7757    0.3428    0.1157 C   0  0  0  0  0  0  0  0  0  0  0  0
    3.5873    1.1427    0.1306 C   0  0  0  0  0  0  0  0  0  0  0  0
    2.3738    0.4586    0.0033 C   0  0  0  0  0  0  0  0  0  0  0  0
    1.1832    1.1426    0.0072 C   0  0  0  0  0  0  0  0  0  0  0  0
   -0.0159    0.2931   -0.1105 C   0  0  0  0  0  0  0  0  0  0  0  0
    0.0992   -1.0404   -0.1586 N   0  0  0  0  0  0  0  0  0  0  0  0
   -1.1647   -1.6064   -0.2327 C   0  0  0  0  0  0  0  0  0  0  0  0
   -1.3857   -3.0416   -0.2679 C   0  0  0  0  0  0  0  0  0  0  0  0
   -2.6003   -3.5975    0.1619 N   0  0  0  0  0  0  0  0  0  0  0  0
   -0.4349   -3.7744   -0.6930 O   0  0  0  0  0  0  0  0  0  0  0  0
   -2.0436   -0.5617   -0.2323 C   0  0  0  0  0  0  0  0  0  0  0  0
   -3.4949   -0.5342   -0.4162 C   0  0  0  0  0  0  0  0  0  0  0  0
   -4.3232    0.3638    0.2225 N   0  0  0  0  0  0  0  0  0  0  0  0
   -5.5623    0.0497   -0.0954 C   0  0  0  0  0  0  0  0  0  0  0  0
   -5.5196   -1.0017   -0.9013 N   0  0  0  0  0  0  0  0  0  0  0  0
   -4.2537   -1.3573   -1.0976 N   0  0  0  0  0  0  0  0  0  0  0  0
   -6.8262    0.7084    0.3334 C   0  0  0  0  0  0  0  0  0  0  0  0
   -8.0692   -0.1524    0.4603 C   0  0  0  0  0  0  0  0  0  0  0  0
   -7.9220    0.7747   -0.7105 C   0  0  0  0  0  0  0  0  0  0  0  0
   -1.3105    0.6084   -0.1552 N   0  0  0  0  0  0  0  0  0  0  0  0
   -1.9490    1.8877   -0.1614 C   0  0  0  0  0  0  0  0  0  0  0  0
   -1.1292    3.0507   -0.6150 C   0  0  0  0  0  0  0  0  0  0  0  0
    0.0270    3.2934    0.1494 O   0  0  0  0  0  0  0  0  0  0  0  0
    1.1996    2.5176    0.1380 C   0  0  0  0  0  0  0  0  0  0  0  0
    2.3695    3.2332    0.2664 C   0  0  0  0  0  0  0  0  0  0  0  0
    3.5502    2.5015    0.2579 C   0  0  0  0  0  0  0  0  0  0  0  0
    4.7239    3.1558    0.3807 F   0  0  0  0  0  0  0  0  0  0  0  0
    6.0634   -2.5630   -1.2404 H   0  0  0  0  0  0  0  0  0  0  0  0
    7.5269   -3.1280   -0.3971 H   0  0  0  0  0  0  0  0  0  0  0  0
    5.9908   -2.9273    0.5497 H   0  0  0  0  0  0  0  0  0  0  0  0
    7.8406    0.4814   -1.1704 H   0  0  0  0  0  0  0  0  0  0  0  0
    7.7929   -1.1847   -1.9554 H   0  0  0  0  0  0  0  0  0  0  0  0
    9.0078   -0.7813   -0.6808 H   0  0  0  0  0  0  0  0  0  0  0  0
    7.9826   -0.1986    1.5387 H   0  0  0  0  0  0  0  0  0  0  0  0
    2.3724   -0.5967   -0.0970 H   0  0  0  0  0  0  0  0  0  0  0  0
   -3.0062   -4.3824   -0.3795 H   0  0  0  0  0  0  0  0  0  0  0  0
   -3.1155   -3.2626    0.9970 H   0  0  0  0  0  0  0  0  0  0  0  0
   -4.0467   -2.1547   -1.7377 H   0  0  0  0  0  0  0  0  0  0  0  0
   -6.6996    1.5653    1.0005 H   0  0  0  0  0  0  0  0  0  0  0  0
   -8.8521    0.1495    1.1787 H   0  0  0  0  0  0  0  0  0  0  0  0
   -7.8965   -1.2363    0.3530 H   0  0  0  0  0  0  0  0  0  0  0  0
   -7.7625    0.2655   -1.6814 H   0  0  0  0  0  0  0  0  0  0  0  0
   -8.5626    1.6677   -0.7734 H   0  0  0  0  0  0  0  0  0  0  0  0
   -2.8017    1.8225   -0.9309 H   0  0  0  0  0  0  0  0  0  0  0  0
   -2.4391    2.1430    0.8118 H   0  0  0  0  0  0  0  0  0  0  0  0
   -1.8089    3.9464   -0.5320 H   0  0  0  0  0  0  0  0  0  0  0  0
   -0.8930    2.8805   -1.6964 H   0  0  0  0  0  0  0  0  0  0  0  0
    2.3383    4.2999    0.3661 H   0  0  0  0  0  0  0  0  0  0  0  0
  1  2  1  0
  2  3  1  0
  2  4  1  0
  2  5  1  0
  5  6  3  0
  6  7  1  0
  7  8  2  0
  8  9  1  0
  9 10  1  0
 10 11  2  0
 11 12  1  0
 12 13  1  0
 13 14  1  0
 13 15  2  0
 12 16  2  0
 16 17  1  0
 17 18  2  0
 18 19  1  0
 19 20  2  0
 20 21  1  0
 19 22  1  0
 22 23  1  0
 23 24  1  0
 16 25  1  0
 25 26  1  0
 26 27  1  0
 27 28  1  0
 28 29  1  0
 29 30  1  0
 30 31  2  0
 31 32  1  0
 31  7  1  0
 29  9  2  0
 25 10  1  0
 21 17  1  0
 24 22  1  0
  1 33  1  0
  1 34  1  0
  1 35  1  0
  3 36  1  0
  3 37  1  0
  3 38  1  0
  4 39  1  0
  8 40  1  0
 14 41  1  0
 14 42  1  0
 21 43  1  0
 22 44  1  0
 23 45  1  0
 23 46  1  0
 24 47  1  0
 24 48  1  0
 26 49  1  0
 26 50  1  0
 27 51  1  0
 27 52  1  0
 30 53  1  0
M  END
$$$$
[H]O[C@]1(C#Cc2c([H])c([H])c3c(c2[H])-n2nc(C(=O)N([H])[H])c([H])c2[C@@](F)(C([H])([H])[H])C([H])([H])O3)C(=O)N(C([H])([H])[H])C([H])([H])C1([H])[H]
     RDKit          3D

 48 51  0  0  0  0  0  0  0  0999 V2000
    7.8260    0.1560    0.1093 C   0  0  0  0  0  0  0  0  0  0  0  0
    6.4430    0.5471   -0.0656 N   0  0  0  0  0  0  0  0  0  0  0  0
    5.9701    1.5689   -0.9538 C   0  0  0  0  0  0  0  0  0  0  0  0
    4.4834    1.6723   -0.6851 C   0  0  0  0  0  0  0  0  0  0  0  0
    4.2432    0.9440    0.6160 C   0  0  1  0  0  0  0  0  0  0  0  0
    4.2799    1.8086    1.6865 O   0  0  0  0  0  0  0  0  0  0  0  0
    2.9661    0.2399    0.4845 C   0  0  0  0  0  0  0  0  0  0  0  0
    1.8994   -0.3286    0.3878 C   0  0  0  0  0  0  0  0  0  0  0  0
    0.6343   -1.0042    0.2975 C   0  0  0  0  0  0  0  0  0  0  0  0
    0.5520   -2.3899    0.1860 C   0  0  0  0  0  0  0  0  0  0  0  0
   -0.6701   -3.0244    0.1003 C   0  0  0  0  0  0  0  0  0  0  0  0
   -1.8569   -2.3174    0.1212 C   0  0  0  0  0  0  0  0  0  0  0  0
   -2.9844   -3.1114    0.0257 O   0  0  0  0  0  0  0  0  0  0  0  0
   -4.3689   -2.7458    0.1234 C   0  0  0  0  0  0  0  0  0  0  0  0
   -4.6882   -1.5356   -0.7067 C   0  0  1  0  0  0  0  0  0  0  0  0
   -4.2105   -1.7440   -2.1367 C   0  0  0  0  0  0  0  0  0  0  0  0
   -6.0572   -1.4134   -0.7615 F   0  0  0  0  0  0  0  0  0  0  0  0
   -4.1362   -0.2828   -0.1335 C   0  0  0  0  0  0  0  0  0  0  0  0
   -4.8247    0.8884    0.0971 C   0  0  0  0  0  0  0  0  0  0  0  0
   -3.9594    1.8129    0.6360 C   0  0  0  0  0  0  0  0  0  0  0  0
   -2.7557    1.1935    0.7268 N   0  0  0  0  0  0  0  0  0  0  0  0
   -2.8792   -0.0340    0.2710 N   0  0  0  0  0  0  0  0  0  0  0  0
   -1.7800   -0.9559    0.2306 C   0  0  0  0  0  0  0  0  0  0  0  0
   -0.5600   -0.3136    0.3169 C   0  0  0  0  0  0  0  0  0  0  0  0
   -4.2384    3.1912    1.0420 C   0  0  0  0  0  0  0  0  0  0  0  0
   -5.5669    3.6662    0.8698 N   0  0  0  0  0  0  0  0  0  0  0  0
   -3.3550    3.9224    1.5187 O   0  0  0  0  0  0  0  0  0  0  0  0
    5.3552   -0.0359    0.6276 C   0  0  0  0  0  0  0  0  0  0  0  0
    5.2766   -1.1783    1.1805 O   0  0  0  0  0  0  0  0  0  0  0  0
    7.9161   -0.9625    0.1808 H   0  0  0  0  0  0  0  0  0  0  0  0
    8.3966    0.4563   -0.7703 H   0  0  0  0  0  0  0  0  0  0  0  0
    8.2537    0.5443    1.0720 H   0  0  0  0  0  0  0  0  0  0  0  0
    6.4982    2.5204   -0.7275 H   0  0  0  0  0  0  0  0  0  0  0  0
    6.1202    1.3282   -2.0306 H   0  0  0  0  0  0  0  0  0  0  0  0
    3.8860    1.2571   -1.5165 H   0  0  0  0  0  0  0  0  0  0  0  0
    4.2409    2.7448   -0.5365 H   0  0  0  0  0  0  0  0  0  0  0  0
    3.3488    1.8955    2.0348 H   0  0  0  0  0  0  0  0  0  0  0  0
    1.5000   -2.9186    0.1721 H   0  0  0  0  0  0  0  0  0  0  0  0
   -0.7104   -4.0984    0.0146 H   0  0  0  0  0  0  0  0  0  0  0  0
   -4.6607   -2.5359    1.1646 H   0  0  0  0  0  0  0  0  0  0  0  0
   -5.0017   -3.5756   -0.2483 H   0  0  0  0  0  0  0  0  0  0  0  0
   -4.1820   -2.8119   -2.4190 H   0  0  0  0  0  0  0  0  0  0  0  0
   -3.1940   -1.3447   -2.3028 H   0  0  0  0  0  0  0  0  0  0  0  0
   -4.8959   -1.1929   -2.8282 H   0  0  0  0  0  0  0  0  0  0  0  0
   -5.8635    1.0750   -0.1016 H   0  0  0  0  0  0  0  0  0  0  0  0
   -0.5269    0.7604    0.4025 H   0  0  0  0  0  0  0  0  0  0  0  0
   -6.3362    3.2193    1.4149 H   0  0  0  0  0  0  0  0  0  0  0  0
   -5.8267    4.4430    0.2251 H   0  0  0  0  0  0  0  0  0  0  0  0
  1  2  1  0
  2  3  1  0
  3  4  1  0
  4  5  1  0
  5  6  1  0
  5  7  1  6
  7  8  3  0
  8  9  1  0
  9 10  2  0
 10 11  1  0
 11 12  2  0
 12 13  1  0
 13 14  1  0
 14 15  1  0
 15 16  1  0
 15 17  1  6
 15 18  1  0
 18 19  2  0
 19 20  1  0
 20 21  2  0
 21 22  1  0
 22 23  1  0
 23 24  2  0
 20 25  1  0
 25 26  1  0
 25 27  2  0
  5 28  1  0
 28 29  2  0
 28  2  1  0
 24  9  1  0
 23 12  1  0
 22 18  1  0
  1 30  1  0
  1 31  1  0
  1 32  1  0
  3 33  1  0
  3 34  1  0
  4 35  1  0
  4 36  1  0
  6 37  1  0
 10 38  1  0
 11 39  1  0
 14 40  1  0
 14 41  1  0
 16 42  1  0
 16 43  1  0
 16 44  1  0
 19 45  1  0
 24 46  1  0
 26 47  1  0
 26 48  1  0
M  END
$$$$
[H]O[C@](C#Cc1c([H])c2c(c([H])c1F)C1([H])C([H])([H])C([H])(c3c-2nc(C(=O)N([H])[H])n3C([H])([H])[H])C1([H])[H])(c1nc([H])c([H])c([H])n1)C([H])([H])[H]
     RDKit          3D

 51 55  0  0  0  0  0  0  0  0999 V2000
   -5.7456    1.1516    0.5801 C   0  0  0  0  0  0  0  0  0  0  0  0
   -4.3406    0.9652    0.2860 N   0  0  0  0  0  0  0  0  0  0  0  0
   -3.4816    1.9409   -0.0484 C   0  0  0  0  0  0  0  0  0  0  0  0
   -2.2637    1.3774   -0.2484 N   0  0  0  0  0  0  0  0  0  0  0  0
   -2.3713    0.0553   -0.0375 C   0  0  0  0  0  0  0  0  0  0  0  0
   -3.7007   -0.1990    0.3033 C   0  0  0  0  0  0  0  0  0  0  0  0
   -4.2706   -1.5563    0.6271 C   0  0  0  0  0  0  0  0  0  0  0  0
   -3.8105   -2.5880   -0.4004 C   0  0  0  0  0  0  0  0  0  0  0  0
   -2.6507   -3.0321    0.4937 C   0  0  0  0  0  0  0  0  0  0  0  0
   -3.3472   -2.2763    1.6178 C   0  0  0  0  0  0  0  0  0  0  0  0
   -1.3912   -2.3106    0.0821 C   0  0  0  0  0  0  0  0  0  0  0  0
   -0.2953   -3.0931   -0.0649 C   0  0  0  0  0  0  0  0  0  0  0  0
    0.9135   -2.5209   -0.4421 C   0  0  0  0  0  0  0  0  0  0  0  0
    1.9826   -3.3290   -0.5791 F   0  0  0  0  0  0  0  0  0  0  0  0
    1.0577   -1.1649   -0.6797 C   0  0  0  0  0  0  0  0  0  0  0  0
   -0.0718   -0.3917   -0.5230 C   0  0  0  0  0  0  0  0  0  0  0  0
   -1.2810   -0.9390   -0.1497 C   0  0  0  0  0  0  0  0  0  0  0  0
    2.3262   -0.6163   -1.0684 C   0  0  0  0  0  0  0  0  0  0  0  0
    3.4098   -0.1665   -1.4124 C   0  0  0  0  0  0  0  0  0  0  0  0
    4.7050    0.3592   -1.8467 C   0  0  1  0  0  0  0  0  0  0  0  0
    5.4411   -0.7834   -2.5075 C   0  0  0  0  0  0  0  0  0  0  0  0
    4.5437    1.3446   -2.8427 O   0  0  0  0  0  0  0  0  0  0  0  0
    5.4398    0.8917   -0.6802 C   0  0  0  0  0  0  0  0  0  0  0  0
    6.6342    0.4058   -0.2778 N   0  0  0  0  0  0  0  0  0  0  0  0
    7.2935    0.8985    0.7844 C   0  0  0  0  0  0  0  0  0  0  0  0
    6.7516    1.9469    1.5161 C   0  0  0  0  0  0  0  0  0  0  0  0
    5.5344    2.4373    1.1009 C   0  0  0  0  0  0  0  0  0  0  0  0
    4.9166    1.9033    0.0256 N   0  0  0  0  0  0  0  0  0  0  0  0
   -3.7294    3.3702   -0.1922 C   0  0  0  0  0  0  0  0  0  0  0  0
   -5.0106    3.9527    0.0197 N   0  0  0  0  0  0  0  0  0  0  0  0
   -2.8133    4.1688   -0.5142 O   0  0  0  0  0  0  0  0  0  0  0  0
   -6.2434    1.7042   -0.2664 H   0  0  0  0  0  0  0  0  0  0  0  0
   -5.8112    1.7366    1.5197 H   0  0  0  0  0  0  0  0  0  0  0  0
   -6.2943    0.1943    0.6456 H   0  0  0  0  0  0  0  0  0  0  0  0
   -5.3210   -1.5672    0.8852 H   0  0  0  0  0  0  0  0  0  0  0  0
   -3.5116   -2.1911   -1.3687 H   0  0  0  0  0  0  0  0  0  0  0  0
   -4.5645   -3.4155   -0.4022 H   0  0  0  0  0  0  0  0  0  0  0  0
   -2.5242   -4.0982    0.6256 H   0  0  0  0  0  0  0  0  0  0  0  0
   -2.6321   -1.5754    2.1235 H   0  0  0  0  0  0  0  0  0  0  0  0
   -3.8679   -2.9653    2.2908 H   0  0  0  0  0  0  0  0  0  0  0  0
   -0.3965   -4.1606    0.1192 H   0  0  0  0  0  0  0  0  0  0  0  0
    0.0147    0.6696   -0.7029 H   0  0  0  0  0  0  0  0  0  0  0  0
    6.5360   -0.5509   -2.4211 H   0  0  0  0  0  0  0  0  0  0  0  0
    5.1981   -0.8513   -3.5935 H   0  0  0  0  0  0  0  0  0  0  0  0
    5.2624   -1.7522   -1.9920 H   0  0  0  0  0  0  0  0  0  0  0  0
    4.1804    2.1348   -2.4118 H   0  0  0  0  0  0  0  0  0  0  0  0
    8.2498    0.5133    1.1107 H   0  0  0  0  0  0  0  0  0  0  0  0
    7.2611    2.3648    2.3779 H   0  0  0  0  0  0  0  0  0  0  0  0
    5.0855    3.2597    1.6557 H   0  0  0  0  0  0  0  0  0  0  0  0
   -5.3649    4.0981    1.0029 H   0  0  0  0  0  0  0  0  0  0  0  0
   -5.6309    4.2499   -0.7588 H   0  0  0  0  0  0  0  0  0  0  0  0
  1  2  1  0
  2  3  1  0
  3  4  2  0
  4  5  1  0
  5  6  2  0
  6  7  1  0
  7  8  1  0
  8  9  1  0
  9 10  1  0
  9 11  1  0
 11 12  2  0
 12 13  1  0
 13 14  1  0
 13 15  2  0
 15 16  1  0
 16 17  2  0
 15 18  1  0
 18 19  3  0
 20 19  1  1
 20 21  1  0
 20 22  1  0
 20 23  1  0
 23 24  2  0
 24 25  1  0
 25 26  2  0
 26 27  1  0
 27 28  2  0
  3 29  1  0
 29 30  1  0
 29 31  2  0
  6  2  1  0
 10  7  1  0
 17 11  1  0
 28 23  1  0
  5 17  1  0
  1 32  1  0
  1 33  1  0
  1 34  1  0
  7 35  1  0
  8 36  1  0
  8 37  1  0
  9 38  1  0
 10 39  1  0
 10 40  1  0
 12 41  1  0
 16 42  1  0
 21 43  1  0
 21 44  1  0
 21 45  1  0
 22 46  1  0
 25 47  1  0
 26 48  1  0
 27 49  1  0
 30 50  1  0
 30 51  1  0
M  END
$$$$
[H]OC(C#Cc1c([H])c2c(c([H])c1F)OC([H])([H])C([H])([H])n1c-2nc(C(=O)N([H])[H])c1[H])(c1nc([H])c([H])c(C([H])([H])[H])c1[H])C([H])([H])[H]
     RDKit          3D

 49 52  0  0  0  0  0  0  0  0999 V2000
   -5.1414    2.1820    0.5476 C   0  0  0  0  0  0  0  0  0  0  0  0
   -5.0169    0.7388    0.8574 C   0  0  0  0  0  0  0  0  0  0  0  0
   -5.7125    0.2132    1.9243 C   0  0  0  0  0  0  0  0  0  0  0  0
   -5.5792   -1.1315    2.1861 C   0  0  0  0  0  0  0  0  0  0  0  0
   -4.7913   -1.9213    1.4242 N   0  0  0  0  0  0  0  0  0  0  0  0
   -4.0985   -1.4455    0.3766 C   0  0  0  0  0  0  0  0  0  0  0  0
   -4.2236   -0.1066    0.1061 C   0  0  0  0  0  0  0  0  0  0  0  0
   -3.2577   -2.3737   -0.4108 C   0  0  0  0  0  0  0  0  0  0  0  0
   -4.0644   -2.9327   -1.5838 C   0  0  0  0  0  0  0  0  0  0  0  0
   -2.8575   -3.4787    0.3364 O   0  0  0  0  0  0  0  0  0  0  0  0
   -2.0876   -1.6259   -0.8708 C   0  0  0  0  0  0  0  0  0  0  0  0
   -1.1088   -1.0255   -1.2422 C   0  0  0  0  0  0  0  0  0  0  0  0
    0.0710   -0.3311   -1.6779 C   0  0  0  0  0  0  0  0  0  0  0  0
    1.1060   -0.1792   -0.7738 C   0  0  0  0  0  0  0  0  0  0  0  0
    2.2496    0.4834   -1.1783 C   0  0  0  0  0  0  0  0  0  0  0  0
    3.2011    0.5228   -0.0657 C   0  0  0  0  0  0  0  0  0  0  0  0
    2.9962   -0.1692    1.0877 N   0  0  0  0  0  0  0  0  0  0  0  0
    4.0569    0.0980    1.8707 C   0  0  0  0  0  0  0  0  0  0  0  0
    4.8986    0.9494    1.1899 C   0  0  0  0  0  0  0  0  0  0  0  0
    4.3387    1.2037   -0.0290 N   0  0  0  0  0  0  0  0  0  0  0  0
    4.9618    2.0734   -1.0204 C   0  0  0  0  0  0  0  0  0  0  0  0
    4.8336    1.5341   -2.4283 C   0  0  0  0  0  0  0  0  0  0  0  0
    3.5090    1.6708   -2.9201 O   0  0  0  0  0  0  0  0  0  0  0  0
    2.3733    0.9903   -2.4547 C   0  0  0  0  0  0  0  0  0  0  0  0
    1.3684    0.8550   -3.3653 C   0  0  0  0  0  0  0  0  0  0  0  0
    0.2240    0.1826   -2.9361 C   0  0  0  0  0  0  0  0  0  0  0  0
   -0.7722    0.0464   -3.8288 F   0  0  0  0  0  0  0  0  0  0  0  0
    4.3345   -0.3909    3.2170 C   0  0  0  0  0  0  0  0  0  0  0  0
    5.5051   -0.0291    3.9326 N   0  0  0  0  0  0  0  0  0  0  0  0
    3.5353   -1.1688    3.8170 O   0  0  0  0  0  0  0  0  0  0  0  0
   -4.5830    2.4602   -0.3584 H   0  0  0  0  0  0  0  0  0  0  0  0
   -4.7369    2.7380    1.4215 H   0  0  0  0  0  0  0  0  0  0  0  0
   -6.2089    2.4831    0.3769 H   0  0  0  0  0  0  0  0  0  0  0  0
   -6.3553    0.8264    2.5568 H   0  0  0  0  0  0  0  0  0  0  0  0
   -6.1397   -1.5357    3.0433 H   0  0  0  0  0  0  0  0  0  0  0  0
   -3.6533    0.2823   -0.7558 H   0  0  0  0  0  0  0  0  0  0  0  0
   -4.9047   -3.4863   -1.1244 H   0  0  0  0  0  0  0  0  0  0  0  0
   -4.3836   -2.0658   -2.1863 H   0  0  0  0  0  0  0  0  0  0  0  0
   -3.4011   -3.5508   -2.1923 H   0  0  0  0  0  0  0  0  0  0  0  0
   -1.8804   -3.6354    0.3067 H   0  0  0  0  0  0  0  0  0  0  0  0
    0.9861   -0.5824    0.2198 H   0  0  0  0  0  0  0  0  0  0  0  0
    5.8476    1.3840    1.4935 H   0  0  0  0  0  0  0  0  0  0  0  0
    4.4218    3.0522   -1.0119 H   0  0  0  0  0  0  0  0  0  0  0  0
    6.0359    2.2030   -0.8285 H   0  0  0  0  0  0  0  0  0  0  0  0
    5.5076    2.1380   -3.0663 H   0  0  0  0  0  0  0  0  0  0  0  0
    5.1568    0.4778   -2.3963 H   0  0  0  0  0  0  0  0  0  0  0  0
    1.4852    1.2559   -4.3487 H   0  0  0  0  0  0  0  0  0  0  0  0
    6.1992   -0.7958    4.1777 H   0  0  0  0  0  0  0  0  0  0  0  0
    5.7553    0.9173    4.2434 H   0  0  0  0  0  0  0  0  0  0  0  0
  1  2  1  0
  2  3  2  0
  3  4  1  0
  4  5  2  0
  5  6  1  0
  6  7  2  0
  6  8  1  0
  8  9  1  0
  8 10  1  0
  8 11  1  0
 11 12  3  0
 12 13  1  0
 13 14  2  0
 14 15  1  0
 15 16  1  0
 16 17  2  0
 17 18  1  0
 18 19  2  0
 19 20  1  0
 20 21  1  0
 21 22  1  0
 22 23  1  0
 23 24  1  0
 24 25  1  0
 25 26  2  0
 26 27  1  0
 18 28  1  0
 28 29  1  0
 28 30  2  0
  7  2  1  0
 26 13  1  0
 24 15  2  0
 20 16  1  0
  1 31  1  0
  1 32  1  0
  1 33  1  0
  3 34  1  0
  4 35  1  0
  7 36  1  0
  9 37  1  0
  9 38  1  0
  9 39  1  0
 10 40  1  0
 14 41  1  0
 19 42  1  0
 21 43  1  0
 21 44  1  0
 22 45  1  0
 22 46  1  0
 25 47  1  0
 29 48  1  0
 29 49  1  0
M  END
$$$$
[H]O[C@]1(C#Cc2c([H])c([H])c3c(c2[H])-n2nc(C(=O)N([H])[H])c(C(F)(F)F)c2[C@@]([H])(F)C([H])([H])O3)C(=O)N(C([H])([H])[H])C([H])([H])C1([H])[H]
     RDKit          3D

 48 51  0  0  0  0  0  0  0  0999 V2000
    6.6204   -1.4867   -1.5756 C   0  0  0  0  0  0  0  0  0  0  0  0
    5.7987   -0.8440   -0.5455 N   0  0  0  0  0  0  0  0  0  0  0  0
    6.0647    0.5145   -0.1064 C   0  0  0  0  0  0  0  0  0  0  0  0
    5.5176    0.5132    1.2918 C   0  0  0  0  0  0  0  0  0  0  0  0
    4.4274   -0.5502    1.3154 C   0  0  1  0  0  0  0  0  0  0  0  0
    4.4784   -1.2026    2.5246 O   0  0  0  0  0  0  0  0  0  0  0  0
    3.0975    0.0712    1.1200 C   0  0  0  0  0  0  0  0  0  0  0  0
    2.0193    0.5855    0.9422 C   0  0  0  0  0  0  0  0  0  0  0  0
    0.7449    1.2183    0.7189 C   0  0  0  0  0  0  0  0  0  0  0  0
    0.5948    2.5978    0.7829 C   0  0  0  0  0  0  0  0  0  0  0  0
   -0.6091    3.2466    0.5756 C   0  0  0  0  0  0  0  0  0  0  0  0
   -1.7199    2.4953    0.2910 C   0  0  0  0  0  0  0  0  0  0  0  0
   -2.9012    3.2145    0.0940 O   0  0  0  0  0  0  0  0  0  0  0  0
   -4.2178    2.6551   -0.0914 C   0  0  0  0  0  0  0  0  0  0  0  0
   -4.1947    1.6280   -1.2500 C   0  0  2  0  0  0  0  0  0  0  0  0
   -5.2229    1.7744   -2.0710 F   0  0  0  0  0  0  0  0  0  0  0  0
   -3.7988    0.3428   -0.7166 C   0  0  0  0  0  0  0  0  0  0  0  0
   -4.4543   -0.9148   -0.7218 C   0  0  0  0  0  0  0  0  0  0  0  0
   -3.6539   -1.8008   -0.0684 C   0  0  0  0  0  0  0  0  0  0  0  0
   -2.5373   -1.0909    0.3186 N   0  0  0  0  0  0  0  0  0  0  0  0
   -2.6316    0.1433   -0.0595 N   0  0  0  0  0  0  0  0  0  0  0  0
   -1.5878    1.1307    0.2241 C   0  0  0  0  0  0  0  0  0  0  0  0
   -0.3869    0.4845    0.4310 C   0  0  0  0  0  0  0  0  0  0  0  0
   -3.8216   -3.1973    0.2973 C   0  0  0  0  0  0  0  0  0  0  0  0
   -5.0014   -3.9297    0.3958 N   0  0  0  0  0  0  0  0  0  0  0  0
   -2.7455   -3.8708    0.5815 O   0  0  0  0  0  0  0  0  0  0  0  0
   -5.7404   -1.0682   -1.3907 C   0  0  0  0  0  0  0  0  0  0  0  0
   -6.7593   -0.2738   -0.8832 F   0  0  0  0  0  0  0  0  0  0  0  0
   -5.6001   -0.8557   -2.7967 F   0  0  0  0  0  0  0  0  0  0  0  0
   -6.2392   -2.3301   -1.3644 F   0  0  0  0  0  0  0  0  0  0  0  0
    4.6890   -1.3890    0.1487 C   0  0  0  0  0  0  0  0  0  0  0  0
    4.0664   -2.4136   -0.2071 O   0  0  0  0  0  0  0  0  0  0  0  0
    6.1824   -1.1206   -2.5498 H   0  0  0  0  0  0  0  0  0  0  0  0
    7.6524   -1.0792   -1.5558 H   0  0  0  0  0  0  0  0  0  0  0  0
    6.5815   -2.5791   -1.5179 H   0  0  0  0  0  0  0  0  0  0  0  0
    7.1570    0.7162   -0.1032 H   0  0  0  0  0  0  0  0  0  0  0  0
    5.5199    1.1939   -0.7822 H   0  0  0  0  0  0  0  0  0  0  0  0
    6.2670    0.3715    2.0689 H   0  0  0  0  0  0  0  0  0  0  0  0
    4.9994    1.4967    1.4511 H   0  0  0  0  0  0  0  0  0  0  0  0
    4.5877   -0.5022    3.2294 H   0  0  0  0  0  0  0  0  0  0  0  0
    1.5002    3.1736    1.0124 H   0  0  0  0  0  0  0  0  0  0  0  0
   -0.7022    4.3318    0.6313 H   0  0  0  0  0  0  0  0  0  0  0  0
   -4.8862    3.4932   -0.3245 H   0  0  0  0  0  0  0  0  0  0  0  0
   -4.5535    2.1574    0.8400 H   0  0  0  0  0  0  0  0  0  0  0  0
   -3.2879    1.9980   -1.8520 H   0  0  0  0  0  0  0  0  0  0  0  0
   -0.3502   -0.5866    0.3646 H   0  0  0  0  0  0  0  0  0  0  0  0
   -5.2135   -4.7545   -0.2226 H   0  0  0  0  0  0  0  0  0  0  0  0
   -5.7494   -3.7076    1.1049 H   0  0  0  0  0  0  0  0  0  0  0  0
  1  2  1  0
  2  3  1  0
  3  4  1  0
  4  5  1  0
  5  6  1  0
  5  7  1  6
  7  8  3  0
  8  9  1  0
  9 10  2  0
 10 11  1  0
 11 12  2  0
 12 13  1  0
 13 14  1  0
 14 15  1  0
 15 16  1  0
 15 17  1  0
 17 18  2  0
 18 19  1  0
 19 20  2  0
 20 21  1  0
 21 22  1  0
 22 23  2  0
 19 24  1  0
 24 25  1  0
 24 26  2  0
 18 27  1  0
 27 28  1  0
 27 29  1  0
 27 30  1  0
  5 31  1  0
 31 32  2  0
 31  2  1  0
 23  9  1  0
 22 12  1  0
 21 17  1  0
  1 33  1  0
  1 34  1  0
  1 35  1  0
  3 36  1  0
  3 37  1  0
  4 38  1  0
  4 39  1  0
  6 40  1  0
 10 41  1  0
 11 42  1  0
 14 43  1  0
 14 44  1  0
 15 45  1  6
 23 46  1  0
 25 47  1  0
 25 48  1  0
M  END
$$$$
[H]OC(C#Cc1c([H])c2c(c([H])c1F)OC([H])([H])C([H])([H])n1c-2nc(C(=O)N([H])[H])c1C([H])([H])[H])(C([H])([H])[H])C([H])([H])[H]
     RDKit          3D

 43 45  0  0  0  0  0  0  0  0999 V2000
   -5.3193    0.2701   -0.4831 C   0  0  0  0  0  0  0  0  0  0  0  0
   -3.8626    0.3220   -0.3103 C   0  0  0  0  0  0  0  0  0  0  0  0
   -3.0505    1.4520   -0.1378 C   0  0  0  0  0  0  0  0  0  0  0  0
   -1.7753    1.0359   -0.0169 N   0  0  0  0  0  0  0  0  0  0  0  0
   -1.7364   -0.3050   -0.1043 C   0  0  0  0  0  0  0  0  0  0  0  0
   -0.4923   -1.0711   -0.0108 C   0  0  0  0  0  0  0  0  0  0  0  0
    0.6386   -0.2962   -0.1519 C   0  0  0  0  0  0  0  0  0  0  0  0
    1.8575   -0.9383   -0.0770 C   0  0  0  0  0  0  0  0  0  0  0  0
    3.0452   -0.1446   -0.2221 C   0  0  0  0  0  0  0  0  0  0  0  0
    4.0472    0.5352   -0.3257 C   0  0  0  0  0  0  0  0  0  0  0  0
    5.2696    1.3350   -0.4452 C   0  0  0  0  0  0  0  0  0  0  0  0
    5.2255    2.3410    0.6981 C   0  0  0  0  0  0  0  0  0  0  0  0
    6.5082    0.4766   -0.2161 C   0  0  0  0  0  0  0  0  0  0  0  0
    5.3308    1.9770   -1.6869 O   0  0  0  0  0  0  0  0  0  0  0  0
    1.9545   -2.3177    0.1330 C   0  0  0  0  0  0  0  0  0  0  0  0
    3.1579   -2.9404    0.2052 F   0  0  0  0  0  0  0  0  0  0  0  0
    0.8057   -3.0837    0.2731 C   0  0  0  0  0  0  0  0  0  0  0  0
   -0.4079   -2.4328    0.1967 C   0  0  0  0  0  0  0  0  0  0  0  0
   -1.4652   -3.3482    0.3580 O   0  0  0  0  0  0  0  0  0  0  0  0
   -2.8053   -2.9637    0.6908 C   0  0  0  0  0  0  0  0  0  0  0  0
   -3.3734   -2.1142   -0.4231 C   0  0  0  0  0  0  0  0  0  0  0  0
   -3.0257   -0.7201   -0.2839 N   0  0  0  0  0  0  0  0  0  0  0  0
   -3.5195    2.8315   -0.1015 C   0  0  0  0  0  0  0  0  0  0  0  0
   -4.8792    3.2067   -0.2471 N   0  0  0  0  0  0  0  0  0  0  0  0
   -2.6882    3.7603    0.0675 O   0  0  0  0  0  0  0  0  0  0  0  0
   -5.6639   -0.7688   -0.3260 H   0  0  0  0  0  0  0  0  0  0  0  0
   -5.8851    0.8862    0.2431 H   0  0  0  0  0  0  0  0  0  0  0  0
   -5.6390    0.5409   -1.5191 H   0  0  0  0  0  0  0  0  0  0  0  0
    0.5390    0.7685   -0.3134 H   0  0  0  0  0  0  0  0  0  0  0  0
    4.2938    2.9354    0.6884 H   0  0  0  0  0  0  0  0  0  0  0  0
    5.4050    1.7969    1.6325 H   0  0  0  0  0  0  0  0  0  0  0  0
    6.0880    3.0361    0.5222 H   0  0  0  0  0  0  0  0  0  0  0  0
    6.9531    0.1343   -1.1704 H   0  0  0  0  0  0  0  0  0  0  0  0
    6.1669   -0.4218    0.3512 H   0  0  0  0  0  0  0  0  0  0  0  0
    7.2575    0.9857    0.4162 H   0  0  0  0  0  0  0  0  0  0  0  0
    4.4463    1.8481   -2.1257 H   0  0  0  0  0  0  0  0  0  0  0  0
    0.8794   -4.1505    0.4355 H   0  0  0  0  0  0  0  0  0  0  0  0
   -3.3877   -3.9081    0.7138 H   0  0  0  0  0  0  0  0  0  0  0  0
   -2.7942   -2.4513    1.6636 H   0  0  0  0  0  0  0  0  0  0  0  0
   -4.4300   -2.3325   -0.5191 H   0  0  0  0  0  0  0  0  0  0  0  0
   -2.8980   -2.4660   -1.3830 H   0  0  0  0  0  0  0  0  0  0  0  0
   -5.2281    3.4129   -1.2219 H   0  0  0  0  0  0  0  0  0  0  0  0
   -5.5430    3.2867    0.5606 H   0  0  0  0  0  0  0  0  0  0  0  0
  1  2  1  0
  2  3  2  0
  3  4  1  0
  4  5  2  0
  5  6  1  0
  6  7  2  0
  7  8  1  0
  8  9  1  0
  9 10  3  0
 10 11  1  0
 11 12  1  0
 11 13  1  0
 11 14  1  0
  8 15  2  0
 15 16  1  0
 15 17  1  0
 17 18  2  0
 18 19  1  0
 19 20  1  0
 20 21  1  0
 21 22  1  0
  3 23  1  0
 23 24  1  0
 23 25  2  0
 22  2  1  0
 22  5  1  0
 18  6  1  0
  1 26  1  0
  1 27  1  0
  1 28  1  0
  7 29  1  0
 12 30  1  0
 12 31  1  0
 12 32  1  0
 13 33  1  0
 13 34  1  0
 13 35  1  0
 14 36  1  0
 17 37  1  0
 20 38  1  0
 20 39  1  0
 21 40  1  0
 21 41  1  0
 24 42  1  0
 24 43  1  0
M  END
$$$$
[H]OC(C#Cc1c([H])c2c(c([H])c1F)OC([H])([H])C([H])([H])n1c-2nc(C(=O)N([H])[H])c1[H])(c1nc([H])n([H])n1)C([H])([H])[H]
     RDKit          3D

 43 46  0  0  0  0  0  0  0  0999 V2000
    4.9134    0.1211    1.9186 C   0  0  0  0  0  0  0  0  0  0  0  0
    4.1916    1.0544    0.8778 C   0  0  0  0  0  0  0  0  0  0  0  0
    3.9847    2.2175    1.5884 O   0  0  0  0  0  0  0  0  0  0  0  0
    2.9000    0.4412    0.5935 C   0  0  0  0  0  0  0  0  0  0  0  0
    1.8561   -0.1188    0.4297 C   0  0  0  0  0  0  0  0  0  0  0  0
    0.6359   -0.8572    0.2994 C   0  0  0  0  0  0  0  0  0  0  0  0
   -0.5781   -0.2749    0.0615 C   0  0  0  0  0  0  0  0  0  0  0  0
   -1.7279   -1.0332    0.0091 C   0  0  0  0  0  0  0  0  0  0  0  0
   -2.9533   -0.2567   -0.2358 C   0  0  0  0  0  0  0  0  0  0  0  0
   -3.0305    1.0687   -0.0071 N   0  0  0  0  0  0  0  0  0  0  0  0
   -4.2987    1.3931   -0.2995 C   0  0  0  0  0  0  0  0  0  0  0  0
   -5.0058    0.2729   -0.7098 C   0  0  0  0  0  0  0  0  0  0  0  0
   -4.1193   -0.7604   -0.6639 N   0  0  0  0  0  0  0  0  0  0  0  0
   -4.4297   -2.0868   -1.0810 C   0  0  0  0  0  0  0  0  0  0  0  0
   -4.0649   -3.1984   -0.1723 C   0  0  0  0  0  0  0  0  0  0  0  0
   -2.7226   -3.2826    0.1805 O   0  0  0  0  0  0  0  0  0  0  0  0
   -1.6460   -2.4053    0.1997 C   0  0  0  0  0  0  0  0  0  0  0  0
   -0.4467   -2.9999    0.4308 C   0  0  0  0  0  0  0  0  0  0  0  0
    0.6984   -2.2535    0.4844 C   0  0  0  0  0  0  0  0  0  0  0  0
    1.9047   -2.8320    0.7120 F   0  0  0  0  0  0  0  0  0  0  0  0
   -4.8733    2.7363   -0.2805 C   0  0  0  0  0  0  0  0  0  0  0  0
   -4.0575    3.8920   -0.3639 N   0  0  0  0  0  0  0  0  0  0  0  0
   -6.1345    2.8848   -0.1948 O   0  0  0  0  0  0  0  0  0  0  0  0
    5.0996    1.1738   -0.2366 C   0  0  0  0  0  0  0  0  0  0  0  0
    5.7735    2.3231   -0.5360 N   0  0  0  0  0  0  0  0  0  0  0  0
    6.5638    2.0845   -1.5927 C   0  0  0  0  0  0  0  0  0  0  0  0
    6.3852    0.8265   -1.9368 N   0  0  0  0  0  0  0  0  0  0  0  0
    5.5071    0.2713   -1.1267 N   0  0  0  0  0  0  0  0  0  0  0  0
    4.2844    0.1551    2.8218 H   0  0  0  0  0  0  0  0  0  0  0  0
    4.8627   -0.9052    1.5082 H   0  0  0  0  0  0  0  0  0  0  0  0
    5.9025    0.5490    2.0224 H   0  0  0  0  0  0  0  0  0  0  0  0
    3.6537    2.9151    0.9512 H   0  0  0  0  0  0  0  0  0  0  0  0
   -0.6461    0.8020   -0.0920 H   0  0  0  0  0  0  0  0  0  0  0  0
   -6.0309    0.2145   -0.9934 H   0  0  0  0  0  0  0  0  0  0  0  0
   -3.9755   -2.3056   -2.0930 H   0  0  0  0  0  0  0  0  0  0  0  0
   -5.5332   -2.1504   -1.2522 H   0  0  0  0  0  0  0  0  0  0  0  0
   -4.2757   -4.1497   -0.7713 H   0  0  0  0  0  0  0  0  0  0  0  0
   -4.7759   -3.3171    0.6984 H   0  0  0  0  0  0  0  0  0  0  0  0
   -0.4146   -4.0498    0.5807 H   0  0  0  0  0  0  0  0  0  0  0  0
   -3.7032    4.1863   -1.3299 H   0  0  0  0  0  0  0  0  0  0  0  0
   -3.8015    4.4640    0.4464 H   0  0  0  0  0  0  0  0  0  0  0  0
    7.2276    2.7995   -2.0693 H   0  0  0  0  0  0  0  0  0  0  0  0
    6.9004    0.3909   -2.7488 H   0  0  0  0  0  0  0  0  0  0  0  0
  1  2  1  0
  2  3  1  0
  2  4  1  0
  4  5  3  0
  5  6  1  0
  6  7  2  0
  7  8  1  0
  8  9  1  0
  9 10  2  0
 10 11  1  0
 11 12  2  0
 12 13  1  0
 13 14  1  0
 14 15  1  0
 15 16  1  0
 16 17  1  0
 17 18  1  0
 18 19  2  0
 19 20  1  0
 11 21  1  0
 21 22  1  0
 21 23  2  0
  2 24  1  0
 24 25  1  0
 25 26  2  0
 26 27  1  0
 27 28  1  0
 19  6  1  0
 28 24  2  0
 17  8  2  0
 13  9  1  0
  1 29  1  0
  1 30  1  0
  1 31  1  0
  3 32  1  0
  7 33  1  0
 12 34  1  0
 14 35  1  0
 14 36  1  0
 15 37  1  0
 15 38  1  0
 18 39  1  0
 22 40  1  0
 22 41  1  0
 26 42  1  0
 27 43  1  0
M  END
$$$$
[H]O[C@]1(C#Cc2c([H])c([H])c3c(c2[H])-n2nc(C(=O)N([H])[H])c(C(=O)N([H])C([H])([H])[H])c2[C@@]([H])(F)C([H])([H])O3)C(=O)N(C([H])([H])[H])C([H])([H])C1([H])[H]
     RDKit          3D

 52 55  0  0  0  0  0  0  0  0999 V2000
    7.3864    1.4837    1.2042 C   0  0  0  0  0  0  0  0  0  0  0  0
    5.9553    1.3461    1.0021 N   0  0  0  0  0  0  0  0  0  0  0  0
    5.3777    0.2647    0.2999 C   0  0  0  0  0  0  0  0  0  0  0  0
    6.1764   -0.5988   -0.1407 O   0  0  0  0  0  0  0  0  0  0  0  0
    3.9402    0.1451    0.1019 C   0  0  0  0  0  0  0  0  0  0  0  0
    3.0598    1.1284   -0.2950 C   0  0  0  0  0  0  0  0  0  0  0  0
    1.7964    0.5689   -0.2231 N   0  0  0  0  0  0  0  0  0  0  0  0
    1.8949   -0.6661    0.1839 N   0  0  0  0  0  0  0  0  0  0  0  0
    3.1836   -1.0002    0.4040 C   0  0  0  0  0  0  0  0  0  0  0  0
    3.8065   -2.2320    0.8634 C   0  0  1  0  0  0  0  0  0  0  0  0
    3.6023   -2.2807    2.2540 F   0  0  0  0  0  0  0  0  0  0  0  0
    3.1405   -3.4810    0.3337 C   0  0  0  0  0  0  0  0  0  0  0  0
    1.8458   -3.6971    0.8399 O   0  0  0  0  0  0  0  0  0  0  0  0
    0.7458   -2.8766    0.6602 C   0  0  0  0  0  0  0  0  0  0  0  0
   -0.4649   -3.5097    0.7970 C   0  0  0  0  0  0  0  0  0  0  0  0
   -1.6313   -2.7970    0.6407 C   0  0  0  0  0  0  0  0  0  0  0  0
   -1.6669   -1.4490    0.3470 C   0  0  0  0  0  0  0  0  0  0  0  0
   -0.4355   -0.8394    0.2154 C   0  0  0  0  0  0  0  0  0  0  0  0
    0.7584   -1.5344    0.3679 C   0  0  0  0  0  0  0  0  0  0  0  0
   -2.8988   -0.7162    0.1865 C   0  0  0  0  0  0  0  0  0  0  0  0
   -3.9285   -0.0971    0.0726 C   0  0  0  0  0  0  0  0  0  0  0  0
   -5.1827    0.6651   -0.0415 C   0  0  2  0  0  0  0  0  0  0  0  0
   -5.4525    1.3752    1.1260 O   0  0  0  0  0  0  0  0  0  0  0  0
   -6.3328   -0.1724   -0.4894 C   0  0  0  0  0  0  0  0  0  0  0  0
   -6.8287    0.3932   -1.7894 C   0  0  0  0  0  0  0  0  0  0  0  0
   -6.1792    1.6584   -1.9297 N   0  0  0  0  0  0  0  0  0  0  0  0
   -6.7016    2.7341   -2.7686 C   0  0  0  0  0  0  0  0  0  0  0  0
   -5.0132    1.6379   -1.1407 C   0  0  0  0  0  0  0  0  0  0  0  0
   -3.9900    2.3261   -1.3266 O   0  0  0  0  0  0  0  0  0  0  0  0
    3.3095    2.4684   -0.8030 C   0  0  0  0  0  0  0  0  0  0  0  0
    4.5747    2.8665   -1.2462 N   0  0  0  0  0  0  0  0  0  0  0  0
    2.3598    3.3225   -0.8618 O   0  0  0  0  0  0  0  0  0  0  0  0
    7.6407    2.0945    2.0683 H   0  0  0  0  0  0  0  0  0  0  0  0
    7.8006    0.4372    1.2736 H   0  0  0  0  0  0  0  0  0  0  0  0
    7.8557    1.9266    0.3016 H   0  0  0  0  0  0  0  0  0  0  0  0
    5.3717    2.0961    1.4372 H   0  0  0  0  0  0  0  0  0  0  0  0
    4.8787   -2.3458    0.7258 H   0  0  0  0  0  0  0  0  0  0  0  0
    3.8123   -4.3439    0.5301 H   0  0  0  0  0  0  0  0  0  0  0  0
    3.0791   -3.3836   -0.7578 H   0  0  0  0  0  0  0  0  0  0  0  0
   -0.4733   -4.5680    1.0277 H   0  0  0  0  0  0  0  0  0  0  0  0
   -2.6000   -3.2789    0.7448 H   0  0  0  0  0  0  0  0  0  0  0  0
   -0.3643    0.2199   -0.0153 H   0  0  0  0  0  0  0  0  0  0  0  0
   -5.1783    0.7919    1.8869 H   0  0  0  0  0  0  0  0  0  0  0  0
   -7.1268   -0.1002    0.2903 H   0  0  0  0  0  0  0  0  0  0  0  0
   -6.0110   -1.2327   -0.6110 H   0  0  0  0  0  0  0  0  0  0  0  0
   -7.9412    0.4668   -1.8209 H   0  0  0  0  0  0  0  0  0  0  0  0
   -6.4849   -0.2979   -2.6074 H   0  0  0  0  0  0  0  0  0  0  0  0
   -6.9443    2.3905   -3.7851 H   0  0  0  0  0  0  0  0  0  0  0  0
   -7.6520    3.0636   -2.2669 H   0  0  0  0  0  0  0  0  0  0  0  0
   -6.0199    3.5807   -2.8343 H   0  0  0  0  0  0  0  0  0  0  0  0
    5.1584    2.2588   -1.8596 H   0  0  0  0  0  0  0  0  0  0  0  0
    4.9912    3.7878   -0.9837 H   0  0  0  0  0  0  0  0  0  0  0  0
  1  2  1  0
  2  3  1  0
  3  4  2  0
  3  5  1  0
  5  6  1  0
  6  7  2  0
  7  8  1  0
  8  9  1  0
  9 10  1  0
 10 11  1  0
 10 12  1  0
 12 13  1  0
 13 14  1  0
 14 15  2  0
 15 16  1  0
 16 17  2  0
 17 18  1  0
 18 19  2  0
 17 20  1  0
 20 21  3  0
 22 21  1  1
 22 23  1  0
 22 24  1  0
 24 25  1  0
 25 26  1  0
 26 27  1  0
 26 28  1  0
 28 29  2  0
  6 30  1  0
 30 31  1  0
 30 32  2  0
  9  5  2  0
 19 14  1  0
 28 22  1  0
  8 19  1  0
  1 33  1  0
  1 34  1  0
  1 35  1  0
  2 36  1  0
 10 37  1  1
 12 38  1  0
 12 39  1  0
 15 40  1  0
 16 41  1  0
 18 42  1  0
 23 43  1  0
 24 44  1  0
 24 45  1  0
 25 46  1  0
 25 47  1  0
 27 48  1  0
 27 49  1  0
 27 50  1  0
 31 51  1  0
 31 52  1  0
M  END
$$$$
[H]O[C@]1(C#Cc2c([H])c([H])c([H])c(-c3nc(C(=O)N([H])[H])n4c([H])c(OC([H])([H])[H])c([H])c([H])c34)c2[H])C(=O)N(C([H])([H])[H])C([H])([H])C1([H])[H]
     RDKit          3D

 50 53  0  0  0  0  0  0  0  0999 V2000
    4.5278    3.6895    2.1060 C   0  0  0  0  0  0  0  0  0  0  0  0
    4.9591    2.3823    1.8752 O   0  0  0  0  0  0  0  0  0  0  0  0
    4.2348    1.4228    1.2030 C   0  0  0  0  0  0  0  0  0  0  0  0
    2.9935    1.7297    0.7067 C   0  0  0  0  0  0  0  0  0  0  0  0
    2.3285    0.7081    0.0420 C   0  0  0  0  0  0  0  0  0  0  0  0
    2.8511   -0.5550   -0.1300 C   0  0  0  0  0  0  0  0  0  0  0  0
    2.3600   -1.6835   -0.7486 C   0  0  0  0  0  0  0  0  0  0  0  0
    3.3130   -2.6185   -0.6045 N   0  0  0  0  0  0  0  0  0  0  0  0
    4.3788   -2.1052    0.0840 C   0  0  0  0  0  0  0  0  0  0  0  0
    5.5963   -2.8158    0.4314 C   0  0  0  0  0  0  0  0  0  0  0  0
    5.7495   -4.1716    0.0442 N   0  0  0  0  0  0  0  0  0  0  0  0
    6.5183   -2.2675    1.0642 O   0  0  0  0  0  0  0  0  0  0  0  0
    4.0929   -0.8165    0.3817 N   0  0  0  0  0  0  0  0  0  0  0  0
    4.7606    0.1610    1.0327 C   0  0  0  0  0  0  0  0  0  0  0  0
    1.0614   -1.8366   -1.4327 C   0  0  0  0  0  0  0  0  0  0  0  0
    1.0028   -2.4449   -2.6861 C   0  0  0  0  0  0  0  0  0  0  0  0
   -0.1982   -2.5942   -3.3215 C   0  0  0  0  0  0  0  0  0  0  0  0
   -1.3484   -2.1426   -2.7206 C   0  0  0  0  0  0  0  0  0  0  0  0
   -1.3505   -1.5322   -1.4796 C   0  0  0  0  0  0  0  0  0  0  0  0
   -0.1052   -1.4046   -0.8759 C   0  0  0  0  0  0  0  0  0  0  0  0
   -2.5425   -1.0545   -0.8381 C   0  0  0  0  0  0  0  0  0  0  0  0
   -3.5371   -0.6340   -0.3026 C   0  0  0  0  0  0  0  0  0  0  0  0
   -4.7638   -0.0995    0.3400 C   0  0  2  0  0  0  0  0  0  0  0  0
   -5.3026   -1.0643    1.1633 O   0  0  0  0  0  0  0  0  0  0  0  0
   -5.7812    0.3003   -0.6964 C   0  0  0  0  0  0  0  0  0  0  0  0
   -6.1280    1.7186   -0.3925 C   0  0  0  0  0  0  0  0  0  0  0  0
   -5.0975    2.2130    0.5082 N   0  0  0  0  0  0  0  0  0  0  0  0
   -4.8909    3.6200    0.7800 C   0  0  0  0  0  0  0  0  0  0  0  0
   -4.3689    1.1241    1.0445 C   0  0  0  0  0  0  0  0  0  0  0  0
   -3.5326    1.2064    1.9639 O   0  0  0  0  0  0  0  0  0  0  0  0
    4.6377    4.3266    1.1939 H   0  0  0  0  0  0  0  0  0  0  0  0
    5.1132    4.1603    2.9183 H   0  0  0  0  0  0  0  0  0  0  0  0
    3.4317    3.7013    2.3698 H   0  0  0  0  0  0  0  0  0  0  0  0
    2.5510    2.7068    0.8217 H   0  0  0  0  0  0  0  0  0  0  0  0
    1.3401    0.8912   -0.3777 H   0  0  0  0  0  0  0  0  0  0  0  0
    5.0028   -4.8927    0.1544 H   0  0  0  0  0  0  0  0  0  0  0  0
    6.6529   -4.5256   -0.3866 H   0  0  0  0  0  0  0  0  0  0  0  0
    5.7402   -0.0090    1.4486 H   0  0  0  0  0  0  0  0  0  0  0  0
    1.9545   -2.7853   -3.1154 H   0  0  0  0  0  0  0  0  0  0  0  0
   -0.2239   -3.0653   -4.2867 H   0  0  0  0  0  0  0  0  0  0  0  0
   -2.3267   -2.2468   -3.2030 H   0  0  0  0  0  0  0  0  0  0  0  0
   -0.1105   -0.9312    0.0956 H   0  0  0  0  0  0  0  0  0  0  0  0
   -5.7847   -1.7318    0.6151 H   0  0  0  0  0  0  0  0  0  0  0  0
   -5.3357    0.2467   -1.7123 H   0  0  0  0  0  0  0  0  0  0  0  0
   -6.6900   -0.3376   -0.6057 H   0  0  0  0  0  0  0  0  0  0  0  0
   -6.0815    2.3488   -1.3100 H   0  0  0  0  0  0  0  0  0  0  0  0
   -7.1362    1.7718    0.0613 H   0  0  0  0  0  0  0  0  0  0  0  0
   -5.4752    3.9539    1.6835 H   0  0  0  0  0  0  0  0  0  0  0  0
   -3.8123    3.7468    1.0134 H   0  0  0  0  0  0  0  0  0  0  0  0
   -5.2281    4.2362   -0.0565 H   0  0  0  0  0  0  0  0  0  0  0  0
  1  2  1  0
  2  3  1  0
  3  4  1  0
  4  5  2  0
  5  6  1  0
  6  7  2  0
  7  8  1  0
  8  9  2  0
  9 10  1  0
 10 11  1  0
 10 12  2  0
  9 13  1  0
 13 14  1  0
  7 15  1  0
 15 16  2  0
 16 17  1  0
 17 18  2  0
 18 19  1  0
 19 20  2  0
 19 21  1  0
 21 22  3  0
 23 22  1  6
 23 24  1  0
 23 25  1  0
 25 26  1  0
 26 27  1  0
 27 28  1  0
 27 29  1  0
 29 30  2  0
 14  3  2  0
 20 15  1  0
 29 23  1  0
 13  6  1  0
  1 31  1  0
  1 32  1  0
  1 33  1  0
  4 34  1  0
  5 35  1  0
 11 36  1  0
 11 37  1  0
 14 38  1  0
 16 39  1  0
 17 40  1  0
 18 41  1  0
 20 42  1  0
 24 43  1  0
 25 44  1  0
 25 45  1  0
 26 46  1  0
 26 47  1  0
 28 48  1  0
 28 49  1  0
 28 50  1  0
M  END
$$$$
[H]O[C@]1(C#Cc2c([H])c([H])c([H])c(-c3nc(C(=O)N([H])[H])c4c([H])c([H])c([H])c([H])n34)c2[H])C(=O)N(C([H])([H])[H])C([H])([H])C1([H])[H]
     RDKit          3D

 46 49  0  0  0  0  0  0  0  0999 V2000
    7.3227    2.1170   -0.2022 C   0  0  0  0  0  0  0  0  0  0  0  0
    6.2362    1.1987   -0.4674 N   0  0  0  0  0  0  0  0  0  0  0  0
    6.3921    0.0439   -1.3470 C   0  0  0  0  0  0  0  0  0  0  0  0
    5.0652   -0.6429   -1.3361 C   0  0  0  0  0  0  0  0  0  0  0  0
    4.0874    0.4680   -0.9313 C   0  0  1  0  0  0  0  0  0  0  0  0
    3.7229    1.2178   -2.0509 O   0  0  0  0  0  0  0  0  0  0  0  0
    2.9096   -0.0943   -0.2645 C   0  0  0  0  0  0  0  0  0  0  0  0
    1.9330   -0.5757    0.2737 C   0  0  0  0  0  0  0  0  0  0  0  0
    0.7815   -1.1654    0.8959 C   0  0  0  0  0  0  0  0  0  0  0  0
    0.8548   -2.1815    1.8226 C   0  0  0  0  0  0  0  0  0  0  0  0
   -0.2797   -2.7164    2.3930 C   0  0  0  0  0  0  0  0  0  0  0  0
   -1.5161   -2.2579    2.0610 C   0  0  0  0  0  0  0  0  0  0  0  0
   -1.6533   -1.2232    1.1229 C   0  0  0  0  0  0  0  0  0  0  0  0
   -0.5119   -0.7149    0.5739 C   0  0  0  0  0  0  0  0  0  0  0  0
   -3.0197   -0.8125    0.7454 C   0  0  0  0  0  0  0  0  0  0  0  0
   -4.0983   -1.6320    0.9607 N   0  0  0  0  0  0  0  0  0  0  0  0
   -5.2245   -1.0451    0.5773 C   0  0  0  0  0  0  0  0  0  0  0  0
   -6.5804   -1.6134    0.6503 C   0  0  0  0  0  0  0  0  0  0  0  0
   -7.7412   -0.9600    0.2277 N   0  0  0  0  0  0  0  0  0  0  0  0
   -6.7244   -2.7880    1.1321 O   0  0  0  0  0  0  0  0  0  0  0  0
   -4.8950    0.1985    0.0948 C   0  0  0  0  0  0  0  0  0  0  0  0
   -5.6711    1.2177   -0.4081 C   0  0  0  0  0  0  0  0  0  0  0  0
   -5.0531    2.3827   -0.7987 C   0  0  0  0  0  0  0  0  0  0  0  0
   -3.6925    2.4639   -0.6638 C   0  0  0  0  0  0  0  0  0  0  0  0
   -2.9161    1.4233   -0.1529 C   0  0  0  0  0  0  0  0  0  0  0  0
   -3.5338    0.2957    0.2196 N   0  0  0  0  0  0  0  0  0  0  0  0
    4.8925    1.2261    0.0342 C   0  0  0  0  0  0  0  0  0  0  0  0
    4.5808    1.8140    1.1012 O   0  0  0  0  0  0  0  0  0  0  0  0
    7.7992    2.3976   -1.1848 H   0  0  0  0  0  0  0  0  0  0  0  0
    7.0032    3.0013    0.3677 H   0  0  0  0  0  0  0  0  0  0  0  0
    8.1449    1.6409    0.3803 H   0  0  0  0  0  0  0  0  0  0  0  0
    6.6525    0.3465   -2.3768 H   0  0  0  0  0  0  0  0  0  0  0  0
    7.1626   -0.6595   -0.9313 H   0  0  0  0  0  0  0  0  0  0  0  0
    4.7427   -1.0296   -2.3017 H   0  0  0  0  0  0  0  0  0  0  0  0
    4.9862   -1.4112   -0.5139 H   0  0  0  0  0  0  0  0  0  0  0  0
    2.8859    0.8096   -2.4025 H   0  0  0  0  0  0  0  0  0  0  0  0
    1.8559   -2.5494    2.0893 H   0  0  0  0  0  0  0  0  0  0  0  0
   -0.1632   -3.5244    3.1249 H   0  0  0  0  0  0  0  0  0  0  0  0
   -2.4362   -2.6478    2.4870 H   0  0  0  0  0  0  0  0  0  0  0  0
   -0.5341    0.0474   -0.1816 H   0  0  0  0  0  0  0  0  0  0  0  0
   -8.4100   -0.5256    0.8967 H   0  0  0  0  0  0  0  0  0  0  0  0
   -7.9406   -0.9082   -0.7959 H   0  0  0  0  0  0  0  0  0  0  0  0
   -6.7265    1.1740   -0.5199 H   0  0  0  0  0  0  0  0  0  0  0  0
   -5.6364    3.2155   -1.2041 H   0  0  0  0  0  0  0  0  0  0  0  0
   -3.2025    3.3822   -0.9701 H   0  0  0  0  0  0  0  0  0  0  0  0
   -1.8511    1.5967   -0.0577 H   0  0  0  0  0  0  0  0  0  0  0  0
  1  2  1  0
  2  3  1  0
  3  4  1  0
  4  5  1  0
  5  6  1  0
  5  7  1  1
  7  8  3  0
  8  9  1  0
  9 10  2  0
 10 11  1  0
 11 12  2  0
 12 13  1  0
 13 14  2  0
 13 15  1  0
 15 16  2  0
 16 17  1  0
 17 18  1  0
 18 19  1  0
 18 20  2  0
 17 21  2  0
 21 22  1  0
 22 23  2  0
 23 24  1  0
 24 25  2  0
 25 26  1  0
  5 27  1  0
 27 28  2  0
 27  2  1  0
 14  9  1  0
 26 15  1  0
 26 21  1  0
  1 29  1  0
  1 30  1  0
  1 31  1  0
  3 32  1  0
  3 33  1  0
  4 34  1  0
  4 35  1  0
  6 36  1  0
 10 37  1  0
 11 38  1  0
 12 39  1  0
 14 40  1  0
 19 41  1  0
 19 42  1  0
 22 43  1  0
 23 44  1  0
 24 45  1  0
 25 46  1  0
M  END
$$$$
[H]O[C@]1(C([H])([H])[H])c2sc(C(=O)N([H])[H])nc2-c2c([H])c(C#C[C@@]3(O[H])C(=O)N(C([H])([H])[H])C([H])([H])C3([H])[H])c(F)c([H])c2OC1([H])[H]
     RDKit          3D

 48 51  0  0  0  0  0  0  0  0999 V2000
    6.1066    2.8763   -0.7466 C   0  0  0  0  0  0  0  0  0  0  0  0
    5.4331    1.6076   -0.4899 N   0  0  0  0  0  0  0  0  0  0  0  0
    5.6014    0.8591    0.7260 C   0  0  0  0  0  0  0  0  0  0  0  0
    5.3178   -0.5820    0.3915 C   0  0  0  0  0  0  0  0  0  0  0  0
    4.5719   -0.5168   -0.9137 C   0  0  1  0  0  0  0  0  0  0  0  0
    5.2080   -1.2426   -1.9201 O   0  0  0  0  0  0  0  0  0  0  0  0
    3.1690   -0.9477   -0.7566 C   0  0  0  0  0  0  0  0  0  0  0  0
    2.0168   -1.2815   -0.6246 C   0  0  0  0  0  0  0  0  0  0  0  0
    0.6268   -1.6613   -0.4536 C   0  0  0  0  0  0  0  0  0  0  0  0
   -0.3478   -0.7289   -0.1767 C   0  0  0  0  0  0  0  0  0  0  0  0
   -1.6718   -1.1119   -0.0165 C   0  0  0  0  0  0  0  0  0  0  0  0
   -2.5360    0.0692    0.2765 C   0  0  0  0  0  0  0  0  0  0  0  0
   -1.9969    1.2084    0.5794 N   0  0  0  0  0  0  0  0  0  0  0  0
   -2.7581    2.2540    0.8382 C   0  0  0  0  0  0  0  0  0  0  0  0
   -4.3340    1.6139    0.6485 S   0  0  0  0  0  0  0  0  0  0  0  0
   -3.9086    0.0131    0.2410 C   0  0  0  0  0  0  0  0  0  0  0  0
   -4.8527   -1.0967   -0.0595 C   0  0  1  0  0  0  0  0  0  0  0  0
   -6.2267   -0.7154    0.4351 C   0  0  0  0  0  0  0  0  0  0  0  0
   -4.9220   -1.3813   -1.4182 O   0  0  0  0  0  0  0  0  0  0  0  0
   -4.4398   -2.3632    0.6531 C   0  0  0  0  0  0  0  0  0  0  0  0
   -3.3426   -2.9795    0.0042 O   0  0  0  0  0  0  0  0  0  0  0  0
   -2.0524   -2.4314   -0.1288 C   0  0  0  0  0  0  0  0  0  0  0  0
   -1.0941   -3.3783   -0.4050 C   0  0  0  0  0  0  0  0  0  0  0  0
    0.2144   -2.9726   -0.5597 C   0  0  0  0  0  0  0  0  0  0  0  0
    1.1974   -3.8894   -0.8358 F   0  0  0  0  0  0  0  0  0  0  0  0
   -2.3505    3.6339    1.2013 C   0  0  0  0  0  0  0  0  0  0  0  0
   -3.3338    4.6087    1.4387 N   0  0  0  0  0  0  0  0  0  0  0  0
   -1.1505    3.9244    1.2946 O   0  0  0  0  0  0  0  0  0  0  0  0
    4.5399    0.8966   -1.3163 C   0  0  0  0  0  0  0  0  0  0  0  0
    3.8464    1.3849   -2.2278 O   0  0  0  0  0  0  0  0  0  0  0  0
    6.1364    3.1026   -1.8327 H   0  0  0  0  0  0  0  0  0  0  0  0
    7.1476    2.7610   -0.3796 H   0  0  0  0  0  0  0  0  0  0  0  0
    5.6456    3.6888   -0.1512 H   0  0  0  0  0  0  0  0  0  0  0  0
    6.6202    0.9518    1.1507 H   0  0  0  0  0  0  0  0  0  0  0  0
    4.8559    1.2290    1.4507 H   0  0  0  0  0  0  0  0  0  0  0  0
    4.6552   -1.0551    1.1570 H   0  0  0  0  0  0  0  0  0  0  0  0
    6.2305   -1.1999    0.3065 H   0  0  0  0  0  0  0  0  0  0  0  0
    4.5333   -1.8296   -2.3331 H   0  0  0  0  0  0  0  0  0  0  0  0
   -0.0876    0.3143   -0.0815 H   0  0  0  0  0  0  0  0  0  0  0  0
   -6.8095   -1.6519    0.5520 H   0  0  0  0  0  0  0  0  0  0  0  0
   -6.1771   -0.1707    1.3942 H   0  0  0  0  0  0  0  0  0  0  0  0
   -6.7254   -0.1245   -0.3536 H   0  0  0  0  0  0  0  0  0  0  0  0
   -4.3894   -2.1798   -1.6426 H   0  0  0  0  0  0  0  0  0  0  0  0
   -5.2759   -3.0445    0.7889 H   0  0  0  0  0  0  0  0  0  0  0  0
   -4.1140   -2.0452    1.6801 H   0  0  0  0  0  0  0  0  0  0  0  0
   -1.3945   -4.4095   -0.4923 H   0  0  0  0  0  0  0  0  0  0  0  0
   -4.2497    4.6605    0.9298 H   0  0  0  0  0  0  0  0  0  0  0  0
   -3.1328    5.3333    2.1778 H   0  0  0  0  0  0  0  0  0  0  0  0
  1  2  1  0
  2  3  1  0
  3  4  1  0
  4  5  1  0
  5  6  1  0
  5  7  1  1
  7  8  3  0
  8  9  1  0
  9 10  2  0
 10 11  1  0
 11 12  1  0
 12 13  1  0
 13 14  2  0
 14 15  1  0
 15 16  1  0
 16 17  1  0
 17 18  1  0
 17 19  1  6
 17 20  1  0
 20 21  1  0
 21 22  1  0
 22 23  1  0
 23 24  2  0
 24 25  1  0
 14 26  1  0
 26 27  1  0
 26 28  2  0
  5 29  1  0
 29 30  2  0
 29  2  1  0
 24  9  1  0
 22 11  2  0
 16 12  2  0
  1 31  1  0
  1 32  1  0
  1 33  1  0
  3 34  1  0
  3 35  1  0
  4 36  1  0
  4 37  1  0
  6 38  1  0
 10 39  1  0
 18 40  1  0
 18 41  1  0
 18 42  1  0
 19 43  1  0
 20 44  1  0
 20 45  1  0
 23 46  1  0
 27 47  1  0
 27 48  1  0
M  END
$$$$
[H]O[C@]([H])(c1c([H])c([H])nn1C([H])([H])[H])c1c(C(=O)N([H])[H])nc2n1C1([H])C([H])([H])C([H])(c3c([H])c(F)c(C#C[C@](O[H])(C([H])([H])[H])C([H])([H])OC([H])([H])[H])c([H])c3-2)C1([H])[H]
     RDKit          3D

 61 65  0  0  0  0  0  0  0  0999 V2000
    7.9060    1.7270    1.0599 C   0  0  0  0  0  0  0  0  0  0  0  0
    6.8367    0.8683    1.2353 O   0  0  0  0  0  0  0  0  0  0  0  0
    7.1044   -0.4062    0.7305 C   0  0  0  0  0  0  0  0  0  0  0  0
    5.9470   -1.3346    0.9206 C   0  0  2  0  0  0  0  0  0  0  0  0
    5.7126   -1.5061    2.4055 C   0  0  0  0  0  0  0  0  0  0  0  0
    6.2947   -2.5761    0.3931 O   0  0  0  0  0  0  0  0  0  0  0  0
    4.7058   -0.8138    0.3470 C   0  0  0  0  0  0  0  0  0  0  0  0
    3.6742   -0.4035   -0.1233 C   0  0  0  0  0  0  0  0  0  0  0  0
    2.4211    0.0679   -0.6919 C   0  0  0  0  0  0  0  0  0  0  0  0
    1.2126   -0.3908   -0.2116 C   0  0  0  0  0  0  0  0  0  0  0  0
    0.0522    0.0855   -0.7830 C   0  0  0  0  0  0  0  0  0  0  0  0
   -1.1660   -0.4974   -0.1658 C   0  0  0  0  0  0  0  0  0  0  0  0
   -1.1957   -1.3840    0.8313 N   0  0  0  0  0  0  0  0  0  0  0  0
   -2.4935   -1.6938    1.1341 C   0  0  0  0  0  0  0  0  0  0  0  0
   -2.8704   -2.6431    2.1924 C   0  0  0  0  0  0  0  0  0  0  0  0
   -1.8393   -3.2811    2.9340 N   0  0  0  0  0  0  0  0  0  0  0  0
   -4.0374   -2.9414    2.5001 O   0  0  0  0  0  0  0  0  0  0  0  0
   -3.2807   -0.9602    0.2800 C   0  0  0  0  0  0  0  0  0  0  0  0
   -4.7514   -0.9788    0.2097 C   0  0  2  0  0  0  0  0  0  0  0  0
   -5.0288   -1.3812   -1.1254 O   0  0  0  0  0  0  0  0  0  0  0  0
   -5.4267    0.3058    0.4567 C   0  0  0  0  0  0  0  0  0  0  0  0
   -6.6257    0.6204   -0.1554 C   0  0  0  0  0  0  0  0  0  0  0  0
   -7.0034    1.8547    0.2875 C   0  0  0  0  0  0  0  0  0  0  0  0
   -6.0604    2.2614    1.1357 N   0  0  0  0  0  0  0  0  0  0  0  0
   -5.1023    1.3220    1.2403 N   0  0  0  0  0  0  0  0  0  0  0  0
   -3.9714    1.4986    2.1123 C   0  0  0  0  0  0  0  0  0  0  0  0
   -2.4451   -0.2439   -0.4964 N   0  0  0  0  0  0  0  0  0  0  0  0
   -2.8832    0.6678   -1.5378 C   0  0  0  0  0  0  0  0  0  0  0  0
   -2.0718    0.4315   -2.8228 C   0  0  0  0  0  0  0  0  0  0  0  0
   -1.1449    1.5867   -2.5070 C   0  0  0  0  0  0  0  0  0  0  0  0
   -2.1728    2.0063   -1.4575 C   0  0  0  0  0  0  0  0  0  0  0  0
    0.0704    1.0153   -1.8294 C   0  0  0  0  0  0  0  0  0  0  0  0
    1.2571    1.4678   -2.3034 C   0  0  0  0  0  0  0  0  0  0  0  0
    2.4130    0.9842   -1.7240 C   0  0  0  0  0  0  0  0  0  0  0  0
    3.6079    1.4352   -2.1960 F   0  0  0  0  0  0  0  0  0  0  0  0
    8.8279    1.3747    1.5677 H   0  0  0  0  0  0  0  0  0  0  0  0
    8.1734    1.8757   -0.0039 H   0  0  0  0  0  0  0  0  0  0  0  0
    7.6730    2.7160    1.4899 H   0  0  0  0  0  0  0  0  0  0  0  0
    7.4607   -0.3599   -0.3251 H   0  0  0  0  0  0  0  0  0  0  0  0
    7.9570   -0.8060    1.3166 H   0  0  0  0  0  0  0  0  0  0  0  0
    5.9388   -0.5559    2.9386 H   0  0  0  0  0  0  0  0  0  0  0  0
    4.6589   -1.7612    2.6301 H   0  0  0  0  0  0  0  0  0  0  0  0
    6.3516   -2.3348    2.7846 H   0  0  0  0  0  0  0  0  0  0  0  0
    6.6602   -2.5168   -0.5150 H   0  0  0  0  0  0  0  0  0  0  0  0
    1.1804   -1.1084    0.5955 H   0  0  0  0  0  0  0  0  0  0  0  0
   -1.4455   -2.7683    3.7570 H   0  0  0  0  0  0  0  0  0  0  0  0
   -1.4595   -4.2254    2.7010 H   0  0  0  0  0  0  0  0  0  0  0  0
   -5.2033   -1.7302    0.8361 H   0  0  0  0  0  0  0  0  0  0  0  0
   -5.8484   -1.9346   -1.1536 H   0  0  0  0  0  0  0  0  0  0  0  0
   -7.1810   -0.0092   -0.8730 H   0  0  0  0  0  0  0  0  0  0  0  0
   -7.8761    2.4405    0.0415 H   0  0  0  0  0  0  0  0  0  0  0  0
   -4.1981    2.3013    2.8616 H   0  0  0  0  0  0  0  0  0  0  0  0
   -3.7463    0.6095    2.7387 H   0  0  0  0  0  0  0  0  0  0  0  0
   -3.1179    1.8459    1.5318 H   0  0  0  0  0  0  0  0  0  0  0  0
   -3.9331    0.6972   -1.7867 H   0  0  0  0  0  0  0  0  0  0  0  0
   -2.6420    0.6466   -3.7477 H   0  0  0  0  0  0  0  0  0  0  0  0
   -1.6045   -0.5652   -2.8462 H   0  0  0  0  0  0  0  0  0  0  0  0
   -0.9406    2.2939   -3.2927 H   0  0  0  0  0  0  0  0  0  0  0  0
   -1.7394    2.1197   -0.4429 H   0  0  0  0  0  0  0  0  0  0  0  0
   -2.8492    2.8001   -1.7980 H   0  0  0  0  0  0  0  0  0  0  0  0
    1.2583    2.1845   -3.1104 H   0  0  0  0  0  0  0  0  0  0  0  0
  1  2  1  0
  2  3  1  0
  3  4  1  0
  4  5  1  0
  4  6  1  0
  4  7  1  6
  7  8  3  0
  8  9  1  0
  9 10  1  0
 10 11  2  0
 11 12  1  0
 12 13  2  0
 13 14  1  0
 14 15  1  0
 15 16  1  0
 15 17  2  0
 14 18  2  0
 18 19  1  0
 19 20  1  0
 19 21  1  0
 21 22  2  0
 22 23  1  0
 23 24  2  0
 24 25  1  0
 25 26  1  0
 18 27  1  0
 27 28  1  0
 28 29  1  0
 29 30  1  0
 30 31  1  0
 30 32  1  0
 32 33  2  0
 33 34  1  0
 34 35  1  0
 34  9  2  0
 32 11  1  0
 27 12  1  0
 31 28  1  0
 25 21  1  0
  1 36  1  0
  1 37  1  0
  1 38  1  0
  3 39  1  0
  3 40  1  0
  5 41  1  0
  5 42  1  0
  5 43  1  0
  6 44  1  0
 10 45  1  0
 16 46  1  0
 16 47  1  0
 19 48  1  1
 20 49  1  0
 22 50  1  0
 23 51  1  0
 26 52  1  0
 26 53  1  0
 26 54  1  0
 28 55  1  0
 29 56  1  0
 29 57  1  0
 30 58  1  0
 31 59  1  0
 31 60  1  0
 33 61  1  0
M  END
$$$$
[H]O[C@](C#Cc1c([H])c([H])c2c(c1[H])-c1nc(C(=O)N([H])[H])sc1[C@@]([H])(C([H])([H])[H])C([H])([H])O2)(c1nc([H])c([H])c([H])n1)C([H])([H])[H]
     RDKit          3D

 47 50  0  0  0  0  0  0  0  0999 V2000
   -6.1163    0.8544    0.2973 C   0  0  0  0  0  0  0  0  0  0  0  0
   -4.6605    1.1912    0.5592 C   0  0  1  0  0  0  0  0  0  0  0  0
   -4.4779    1.3278    2.0390 C   0  0  0  0  0  0  0  0  0  0  0  0
   -3.2142    1.6802    2.4829 O   0  0  0  0  0  0  0  0  0  0  0  0
   -1.9599    1.5197    1.9524 C   0  0  0  0  0  0  0  0  0  0  0  0
   -0.9796    2.2721    2.5622 C   0  0  0  0  0  0  0  0  0  0  0  0
    0.3089    2.1832    2.1048 C   0  0  0  0  0  0  0  0  0  0  0  0
    0.7112    1.3826    1.0588 C   0  0  0  0  0  0  0  0  0  0  0  0
   -0.2844    0.6328    0.4560 C   0  0  0  0  0  0  0  0  0  0  0  0
   -1.5935    0.6982    0.8917 C   0  0  0  0  0  0  0  0  0  0  0  0
   -2.4933   -0.1900    0.0969 C   0  0  0  0  0  0  0  0  0  0  0  0
   -2.0297   -1.2338   -0.5089 N   0  0  0  0  0  0  0  0  0  0  0  0
   -2.8478   -2.0057   -1.2096 C   0  0  0  0  0  0  0  0  0  0  0  0
   -4.3529   -1.2272   -1.0112 S   0  0  0  0  0  0  0  0  0  0  0  0
   -3.8397    0.0672   -0.0221 C   0  0  0  0  0  0  0  0  0  0  0  0
   -2.5186   -3.2363   -1.9665 C   0  0  0  0  0  0  0  0  0  0  0  0
   -3.5490   -3.8814   -2.6617 N   0  0  0  0  0  0  0  0  0  0  0  0
   -1.3457   -3.6296   -1.9409 O   0  0  0  0  0  0  0  0  0  0  0  0
    2.0602    1.3079    0.5734 C   0  0  0  0  0  0  0  0  0  0  0  0
    3.2000    1.2623    0.1421 C   0  0  0  0  0  0  0  0  0  0  0  0
    4.5785    1.2206   -0.4114 C   0  0  1  0  0  0  0  0  0  0  0  0
    4.5322    1.8669   -1.7994 C   0  0  0  0  0  0  0  0  0  0  0  0
    5.4517    1.9763    0.3551 O   0  0  0  0  0  0  0  0  0  0  0  0
    4.9465   -0.2015   -0.4976 C   0  0  0  0  0  0  0  0  0  0  0  0
    5.1291   -0.9416    0.6016 N   0  0  0  0  0  0  0  0  0  0  0  0
    5.4636   -2.2444    0.5553 C   0  0  0  0  0  0  0  0  0  0  0  0
    5.6322   -2.8720   -0.6604 C   0  0  0  0  0  0  0  0  0  0  0  0
    5.4428   -2.1087   -1.7955 C   0  0  0  0  0  0  0  0  0  0  0  0
    5.1121   -0.8216   -1.6786 N   0  0  0  0  0  0  0  0  0  0  0  0
   -6.2388    0.0825   -0.4729 H   0  0  0  0  0  0  0  0  0  0  0  0
   -6.6270    0.4788    1.2213 H   0  0  0  0  0  0  0  0  0  0  0  0
   -6.6793    1.7883   -0.0013 H   0  0  0  0  0  0  0  0  0  0  0  0
   -4.4596    2.1383    0.0049 H   0  0  0  0  0  0  0  0  0  0  0  0
   -4.9011    0.3980    2.4900 H   0  0  0  0  0  0  0  0  0  0  0  0
   -5.1933    2.1384    2.3625 H   0  0  0  0  0  0  0  0  0  0  0  0
   -1.2754    2.9087    3.3847 H   0  0  0  0  0  0  0  0  0  0  0  0
    1.0978    2.7694    2.5672 H   0  0  0  0  0  0  0  0  0  0  0  0
   -0.0287   -0.0273   -0.3811 H   0  0  0  0  0  0  0  0  0  0  0  0
   -3.9066   -3.5113   -3.5803 H   0  0  0  0  0  0  0  0  0  0  0  0
   -4.0208   -4.7609   -2.3210 H   0  0  0  0  0  0  0  0  0  0  0  0
    3.7819    2.6525   -1.7628 H   0  0  0  0  0  0  0  0  0  0  0  0
    5.5606    2.2322   -1.9895 H   0  0  0  0  0  0  0  0  0  0  0  0
    4.3311    1.0726   -2.5599 H   0  0  0  0  0  0  0  0  0  0  0  0
    5.1829    2.0969    1.2866 H   0  0  0  0  0  0  0  0  0  0  0  0
    5.6090   -2.8307    1.4466 H   0  0  0  0  0  0  0  0  0  0  0  0
    5.8976   -3.9079   -0.7711 H   0  0  0  0  0  0  0  0  0  0  0  0
    5.5634   -2.5680   -2.7631 H   0  0  0  0  0  0  0  0  0  0  0  0
  1  2  1  0
  2  3  1  0
  3  4  1  0
  4  5  1  0
  5  6  2  0
  6  7  1  0
  7  8  2  0
  8  9  1  0
  9 10  2  0
 10 11  1  0
 11 12  1  0
 12 13  2  0
 13 14  1  0
 14 15  1  0
 13 16  1  0
 16 17  1  0
 16 18  2  0
  8 19  1  0
 19 20  3  0
 21 20  1  1
 21 22  1  0
 21 23  1  0
 21 24  1  0
 24 25  2  0
 25 26  1  0
 26 27  2  0
 27 28  1  0
 28 29  2  0
 15  2  1  0
 29 24  1  0
 10  5  1  0
 15 11  2  0
  1 30  1  0
  1 31  1  0
  1 32  1  0
  2 33  1  6
  3 34  1  0
  3 35  1  0
  6 36  1  0
  7 37  1  0
  9 38  1  0
 17 39  1  0
 17 40  1  0
 22 41  1  0
 22 42  1  0
 22 43  1  0
 23 44  1  0
 26 45  1  0
 27 46  1  0
 28 47  1  0
M  END
$$$$
[H]OC(c1c(C(=O)N([H])[H])nc2n1C1([H])C([H])([H])C([H])(c3c([H])c(F)c(C#C[C@@]4(O[H])C(=O)N(C([H])([H])[H])C([H])([H])C4([H])[H])c([H])c3-2)C1([H])[H])(C([H])([H])[H])C([H])([H])[H]
     RDKit          3D

 58 62  0  0  0  0  0  0  0  0999 V2000
   -6.6194    2.1294   -4.5686 C   0  0  0  0  0  0  0  0  0  0  0  0
   -5.8989    2.4665   -3.3468 N   0  0  0  0  0  0  0  0  0  0  0  0
   -6.3725    3.4714   -2.4145 C   0  0  0  0  0  0  0  0  0  0  0  0
   -5.2723    3.6125   -1.3928 C   0  0  0  0  0  0  0  0  0  0  0  0
   -4.0484    2.9416   -2.0307 C   0  0  1  0  0  0  0  0  0  0  0  0
   -3.3361    3.8917   -2.7685 O   0  0  0  0  0  0  0  0  0  0  0  0
   -3.1652    2.3801   -1.0080 C   0  0  0  0  0  0  0  0  0  0  0  0
   -2.4165    1.9200   -0.1724 C   0  0  0  0  0  0  0  0  0  0  0  0
   -1.5054    1.3710    0.8073 C   0  0  0  0  0  0  0  0  0  0  0  0
   -0.4469    0.5998    0.3764 C   0  0  0  0  0  0  0  0  0  0  0  0
    0.4615    0.0466    1.2817 C   0  0  0  0  0  0  0  0  0  0  0  0
    1.5237   -0.7275    0.6169 C   0  0  0  0  0  0  0  0  0  0  0  0
    1.5980   -0.8796   -0.6996 N   0  0  0  0  0  0  0  0  0  0  0  0
    2.7200   -1.6156   -0.9650 C   0  0  0  0  0  0  0  0  0  0  0  0
    3.1319   -1.9767   -2.3049 C   0  0  0  0  0  0  0  0  0  0  0  0
    2.2560   -1.5752   -3.4246 N   0  0  0  0  0  0  0  0  0  0  0  0
    4.1283   -2.5878   -2.7021 O   0  0  0  0  0  0  0  0  0  0  0  0
    3.3517   -1.9205    0.2584 C   0  0  0  0  0  0  0  0  0  0  0  0
    2.5945   -1.3660    1.2113 N   0  0  0  0  0  0  0  0  0  0  0  0
    2.7461   -1.4170    2.6577 C   0  0  0  0  0  0  0  0  0  0  0  0
    2.6119   -0.0326    3.2913 C   0  0  0  0  0  0  0  0  0  0  0  0
    1.1788   -0.2687    3.6911 C   0  0  0  0  0  0  0  0  0  0  0  0
    1.3717   -1.7262    3.3269 C   0  0  0  0  0  0  0  0  0  0  0  0
    0.2537    0.3040    2.6200 C   0  0  0  0  0  0  0  0  0  0  0  0
   -0.7650    1.0515    3.0932 C   0  0  0  0  0  0  0  0  0  0  0  0
   -1.6512    1.5866    2.1515 C   0  0  0  0  0  0  0  0  0  0  0  0
   -2.6938    2.3457    2.5662 F   0  0  0  0  0  0  0  0  0  0  0  0
    4.5653   -2.7139    0.3714 C   0  0  0  0  0  0  0  0  0  0  0  0
    4.5032   -4.1144   -0.1450 C   0  0  0  0  0  0  0  0  0  0  0  0
    5.3331   -2.6916    1.6784 C   0  0  0  0  0  0  0  0  0  0  0  0
    5.5177   -2.0043   -0.4717 O   0  0  0  0  0  0  0  0  0  0  0  0
   -4.6790    1.9154   -2.8656 C   0  0  0  0  0  0  0  0  0  0  0  0
   -4.2685    0.7408   -3.1458 O   0  0  0  0  0  0  0  0  0  0  0  0
   -7.6560    1.8601   -4.2610 H   0  0  0  0  0  0  0  0  0  0  0  0
   -6.1715    1.1717   -4.9544 H   0  0  0  0  0  0  0  0  0  0  0  0
   -6.5781    2.9324   -5.3106 H   0  0  0  0  0  0  0  0  0  0  0  0
   -7.2882    3.0859   -1.9300 H   0  0  0  0  0  0  0  0  0  0  0  0
   -6.5612    4.4466   -2.9393 H   0  0  0  0  0  0  0  0  0  0  0  0
   -5.1035    4.6775   -1.1989 H   0  0  0  0  0  0  0  0  0  0  0  0
   -5.4837    3.0181   -0.4698 H   0  0  0  0  0  0  0  0  0  0  0  0
   -3.1707    3.4638   -3.6680 H   0  0  0  0  0  0  0  0  0  0  0  0
   -0.3142    0.4173   -0.6868 H   0  0  0  0  0  0  0  0  0  0  0  0
    2.3358   -0.5695   -3.6667 H   0  0  0  0  0  0  0  0  0  0  0  0
    1.6672   -2.2938   -3.8509 H   0  0  0  0  0  0  0  0  0  0  0  0
    3.4773   -2.0527    3.1025 H   0  0  0  0  0  0  0  0  0  0  0  0
    2.7636    0.7926    2.5677 H   0  0  0  0  0  0  0  0  0  0  0  0
    3.2464    0.0057    4.1988 H   0  0  0  0  0  0  0  0  0  0  0  0
    0.8906   -0.0443    4.7079 H   0  0  0  0  0  0  0  0  0  0  0  0
    0.6476   -2.1353    2.6108 H   0  0  0  0  0  0  0  0  0  0  0  0
    1.5259   -2.3002    4.2531 H   0  0  0  0  0  0  0  0  0  0  0  0
   -0.8696    1.2141    4.1511 H   0  0  0  0  0  0  0  0  0  0  0  0
    5.3052   -4.3891   -0.8581 H   0  0  0  0  0  0  0  0  0  0  0  0
    3.5366   -4.4010   -0.6109 H   0  0  0  0  0  0  0  0  0  0  0  0
    4.7091   -4.8143    0.7367 H   0  0  0  0  0  0  0  0  0  0  0  0
    5.0268   -3.4171    2.4176 H   0  0  0  0  0  0  0  0  0  0  0  0
    5.4107   -1.6745    2.0867 H   0  0  0  0  0  0  0  0  0  0  0  0
    6.3898   -3.0459    1.3862 H   0  0  0  0  0  0  0  0  0  0  0  0
    5.5562   -1.1048   -0.0281 H   0  0  0  0  0  0  0  0  0  0  0  0
  1  2  1  0
  2  3  1  0
  3  4  1  0
  4  5  1  0
  5  6  1  0
  5  7  1  1
  7  8  3  0
  8  9  1  0
  9 10  1  0
 10 11  2  0
 11 12  1  0
 12 13  2  0
 13 14  1  0
 14 15  1  0
 15 16  1  0
 15 17  2  0
 14 18  2  0
 18 19  1  0
 19 20  1  0
 20 21  1  0
 21 22  1  0
 22 23  1  0
 22 24  1  0
 24 25  2  0
 25 26  1  0
 26 27  1  0
 18 28  1  0
 28 29  1  0
 28 30  1  0
 28 31  1  0
  5 32  1  0
 32 33  2  0
 32  2  1  0
 26  9  2  0
 24 11  1  0
 19 12  1  0
 23 20  1  0
  1 34  1  0
  1 35  1  0
  1 36  1  0
  3 37  1  0
  3 38  1  0
  4 39  1  0
  4 40  1  0
  6 41  1  0
 10 42  1  0
 16 43  1  0
 16 44  1  0
 20 45  1  0
 21 46  1  0
 21 47  1  0
 22 48  1  0
 23 49  1  0
 23 50  1  0
 25 51  1  0
 29 52  1  0
 29 53  1  0
 29 54  1  0
 30 55  1  0
 30 56  1  0
 30 57  1  0
 31 58  1  0
M  END
$$$$
[H]O[C@]1(C#Cc2c([H])c([H])nc(-n3nc(C(=O)N([H])[H])c([H])c3[H])c2[H])C(=O)N(C([H])([H])[H])C([H])([H])C1([H])[H]
     RDKit          3D

 39 41  0  0  0  0  0  0  0  0999 V2000
    6.2790    1.9708    0.5699 C   0  0  0  0  0  0  0  0  0  0  0  0
    5.3444    0.9167    0.2108 N   0  0  0  0  0  0  0  0  0  0  0  0
    5.6549   -0.4813    0.1912 C   0  0  0  0  0  0  0  0  0  0  0  0
    4.4089   -1.1488   -0.3091 C   0  0  0  0  0  0  0  0  0  0  0  0
    3.4419   -0.0865   -0.7206 C   0  0  1  0  0  0  0  0  0  0  0  0
    3.3236    0.0433   -2.0960 O   0  0  0  0  0  0  0  0  0  0  0  0
    2.0825   -0.3549   -0.2008 C   0  0  0  0  0  0  0  0  0  0  0  0
    0.9773   -0.5943    0.2216 C   0  0  0  0  0  0  0  0  0  0  0  0
   -0.3386   -0.9047    0.7238 C   0  0  0  0  0  0  0  0  0  0  0  0
   -0.4746   -1.5864    1.9147 C   0  0  0  0  0  0  0  0  0  0  0  0
   -1.7424   -1.8639    2.3608 C   0  0  0  0  0  0  0  0  0  0  0  0
   -2.8499   -1.5003    1.6881 N   0  0  0  0  0  0  0  0  0  0  0  0
   -2.7499   -0.8306    0.5172 C   0  0  0  0  0  0  0  0  0  0  0  0
   -1.4927   -0.5437    0.0542 C   0  0  0  0  0  0  0  0  0  0  0  0
   -3.9465   -0.4628   -0.1657 N   0  0  0  0  0  0  0  0  0  0  0  0
   -4.3870   -1.0780   -1.2813 C   0  0  0  0  0  0  0  0  0  0  0  0
   -5.5496   -0.4976   -1.6880 C   0  0  0  0  0  0  0  0  0  0  0  0
   -5.8231    0.5103   -0.7806 C   0  0  0  0  0  0  0  0  0  0  0  0
   -4.8099    0.4850    0.1271 N   0  0  0  0  0  0  0  0  0  0  0  0
   -6.9510    1.4102   -0.7875 C   0  0  0  0  0  0  0  0  0  0  0  0
   -7.0734    2.3867    0.2236 N   0  0  0  0  0  0  0  0  0  0  0  0
   -7.8100    1.2892   -1.7210 O   0  0  0  0  0  0  0  0  0  0  0  0
    3.9966    1.1575   -0.1672 C   0  0  0  0  0  0  0  0  0  0  0  0
    3.3357    2.2369   -0.0678 O   0  0  0  0  0  0  0  0  0  0  0  0
    6.0726    2.9098    0.0157 H   0  0  0  0  0  0  0  0  0  0  0  0
    7.3137    1.6697    0.3190 H   0  0  0  0  0  0  0  0  0  0  0  0
    6.1723    2.1918    1.6551 H   0  0  0  0  0  0  0  0  0  0  0  0
    6.4921   -0.6426   -0.5449 H   0  0  0  0  0  0  0  0  0  0  0  0
    5.9682   -0.8388    1.2026 H   0  0  0  0  0  0  0  0  0  0  0  0
    4.6117   -1.8533   -1.1460 H   0  0  0  0  0  0  0  0  0  0  0  0
    3.9660   -1.7186    0.5396 H   0  0  0  0  0  0  0  0  0  0  0  0
    3.6966   -0.7237   -2.5924 H   0  0  0  0  0  0  0  0  0  0  0  0
    0.4017   -1.8878    2.4709 H   0  0  0  0  0  0  0  0  0  0  0  0
   -1.8600   -2.3971    3.2918 H   0  0  0  0  0  0  0  0  0  0  0  0
   -1.4055   -0.0069   -0.8840 H   0  0  0  0  0  0  0  0  0  0  0  0
   -3.9000   -1.9047   -1.7828 H   0  0  0  0  0  0  0  0  0  0  0  0
   -6.1448   -0.7763   -2.5593 H   0  0  0  0  0  0  0  0  0  0  0  0
   -6.8928    3.3854   -0.0043 H   0  0  0  0  0  0  0  0  0  0  0  0
   -7.3377    2.1204    1.1761 H   0  0  0  0  0  0  0  0  0  0  0  0
  1  2  1  0
  2  3  1  0
  3  4  1  0
  4  5  1  0
  5  6  1  0
  5  7  1  1
  7  8  3  0
  8  9  1  0
  9 10  2  0
 10 11  1  0
 11 12  2  0
 12 13  1  0
 13 14  2  0
 13 15  1  0
 15 16  1  0
 16 17  2  0
 17 18  1  0
 18 19  2  0
 18 20  1  0
 20 21  1  0
 20 22  2  0
  5 23  1  0
 23 24  2  0
 23  2  1  0
 14  9  1  0
 19 15  1  0
  1 25  1  0
  1 26  1  0
  1 27  1  0
  3 28  1  0
  3 29  1  0
  4 30  1  0
  4 31  1  0
  6 32  1  0
 10 33  1  0
 11 34  1  0
 14 35  1  0
 16 36  1  0
 17 37  1  0
 21 38  1  0
 21 39  1  0
M  END
$$$$
[H]O[C@]1(C#Cc2c([H])c([H])c3c(c2[H])-n2nc(C(=O)N([H])[H])c([H])c2[C@@]([H])(O[H])C([H])([H])O3)C(=O)N(C([H])([H])[H])C([H])([H])C1([H])[H]
     RDKit          3D

 46 49  0  0  0  0  0  0  0  0999 V2000
    6.1843   -0.4998    2.4045 C   0  0  0  0  0  0  0  0  0  0  0  0
    5.3938    0.0854    1.3374 N   0  0  0  0  0  0  0  0  0  0  0  0
    5.7793    0.0472   -0.0523 C   0  0  0  0  0  0  0  0  0  0  0  0
    5.0806    1.2158   -0.7157 C   0  0  0  0  0  0  0  0  0  0  0  0
    3.9552    1.5739    0.2034 C   0  0  1  0  0  0  0  0  0  0  0  0
    3.9894    2.9464    0.4518 O   0  0  0  0  0  0  0  0  0  0  0  0
    2.6438    1.1739   -0.3622 C   0  0  0  0  0  0  0  0  0  0  0  0
    1.5819    0.8287   -0.8166 C   0  0  0  0  0  0  0  0  0  0  0  0
    0.3138    0.3923   -1.3514 C   0  0  0  0  0  0  0  0  0  0  0  0
    0.1177    0.1551   -2.6961 C   0  0  0  0  0  0  0  0  0  0  0  0
   -1.0914   -0.2621   -3.2132 C   0  0  0  0  0  0  0  0  0  0  0  0
   -2.1555   -0.4541   -2.3664 C   0  0  0  0  0  0  0  0  0  0  0  0
   -3.3301   -0.8731   -2.9719 O   0  0  0  0  0  0  0  0  0  0  0  0
   -4.6292   -1.0955   -2.4649 C   0  0  0  0  0  0  0  0  0  0  0  0
   -4.6401   -1.7969   -1.1490 C   0  0  2  0  0  0  0  0  0  0  0  0
   -5.9740   -2.1791   -0.8913 O   0  0  0  0  0  0  0  0  0  0  0  0
   -4.0888   -1.0387   -0.0277 C   0  0  0  0  0  0  0  0  0  0  0  0
   -4.6868   -0.8884    1.2236 C   0  0  0  0  0  0  0  0  0  0  0  0
   -3.8368   -0.1061    1.9736 C   0  0  0  0  0  0  0  0  0  0  0  0
   -2.7682    0.2074    1.2155 N   0  0  0  0  0  0  0  0  0  0  0  0
   -2.9420   -0.3573    0.0346 N   0  0  0  0  0  0  0  0  0  0  0  0
   -1.9809   -0.2234   -1.0240 C   0  0  0  0  0  0  0  0  0  0  0  0
   -0.7524    0.1980   -0.5167 C   0  0  0  0  0  0  0  0  0  0  0  0
   -4.0902    0.2975    3.3668 C   0  0  0  0  0  0  0  0  0  0  0  0
   -3.1540    1.1017    4.0472 N   0  0  0  0  0  0  0  0  0  0  0  0
   -5.1276   -0.0658    3.9532 O   0  0  0  0  0  0  0  0  0  0  0  0
    4.1571    0.7749    1.4153 C   0  0  0  0  0  0  0  0  0  0  0  0
    3.3538    0.7090    2.3827 O   0  0  0  0  0  0  0  0  0  0  0  0
    7.2632   -0.5261    2.1451 H   0  0  0  0  0  0  0  0  0  0  0  0
    5.8091   -1.5284    2.6678 H   0  0  0  0  0  0  0  0  0  0  0  0
    6.0914    0.0890    3.3361 H   0  0  0  0  0  0  0  0  0  0  0  0
    6.8696    0.0737   -0.2111 H   0  0  0  0  0  0  0  0  0  0  0  0
    5.4089   -0.9189   -0.4989 H   0  0  0  0  0  0  0  0  0  0  0  0
    4.7100    0.8873   -1.7102 H   0  0  0  0  0  0  0  0  0  0  0  0
    5.7830    2.0583   -0.9073 H   0  0  0  0  0  0  0  0  0  0  0  0
    3.7859    3.3928   -0.4057 H   0  0  0  0  0  0  0  0  0  0  0  0
    0.9801    0.3146   -3.3534 H   0  0  0  0  0  0  0  0  0  0  0  0
   -1.2322   -0.4445   -4.2692 H   0  0  0  0  0  0  0  0  0  0  0  0
   -5.1661   -1.7361   -3.1944 H   0  0  0  0  0  0  0  0  0  0  0  0
   -5.1470   -0.1183   -2.4386 H   0  0  0  0  0  0  0  0  0  0  0  0
   -4.0804   -2.7558   -1.2711 H   0  0  0  0  0  0  0  0  0  0  0  0
   -6.4199   -2.4690   -1.7307 H   0  0  0  0  0  0  0  0  0  0  0  0
   -5.6441   -1.3284    1.4988 H   0  0  0  0  0  0  0  0  0  0  0  0
   -0.6559    0.3690    0.5484 H   0  0  0  0  0  0  0  0  0  0  0  0
   -3.4870    2.0054    4.4612 H   0  0  0  0  0  0  0  0  0  0  0  0
   -2.1712    0.7687    4.1122 H   0  0  0  0  0  0  0  0  0  0  0  0
  1  2  1  0
  2  3  1  0
  3  4  1  0
  4  5  1  0
  5  6  1  0
  5  7  1  6
  7  8  3  0
  8  9  1  0
  9 10  2  0
 10 11  1  0
 11 12  2  0
 12 13  1  0
 13 14  1  0
 14 15  1  0
 15 16  1  0
 15 17  1  0
 17 18  2  0
 18 19  1  0
 19 20  2  0
 20 21  1  0
 21 22  1  0
 22 23  2  0
 19 24  1  0
 24 25  1  0
 24 26  2  0
  5 27  1  0
 27 28  2  0
 27  2  1  0
 23  9  1  0
 22 12  1  0
 21 17  1  0
  1 29  1  0
  1 30  1  0
  1 31  1  0
  3 32  1  0
  3 33  1  0
  4 34  1  0
  4 35  1  0
  6 36  1  0
 10 37  1  0
 11 38  1  0
 14 39  1  0
 14 40  1  0
 15 41  1  6
 16 42  1  0
 18 43  1  0
 23 44  1  0
 25 45  1  0
 25 46  1  0
M  END
$$$$
[H]O[C@@](C#Cc1c([H])c2c(c([H])c1F)C1([H])C([H])([H])C([H])(n3c-2nc(C(=O)N([H])[H])c3C([H])([H])c2c([H])c([H])nn2C([H])([H])[H])C1([H])[H])(C([H])([H])[H])C([H])([H])OC([H])([H])[H]
     RDKit          3D

 60 64  0  0  0  0  0  0  0  0999 V2000
    7.9919    2.2395   -1.2848 C   0  0  0  0  0  0  0  0  0  0  0  0
    6.8752    1.8575   -1.9331 O   0  0  0  0  0  0  0  0  0  0  0  0
    5.8231    1.3024   -1.2920 C   0  0  0  0  0  0  0  0  0  0  0  0
    6.1451    0.0306   -0.5989 C   0  0  2  0  0  0  0  0  0  0  0  0
    6.9836    0.1397    0.6396 C   0  0  0  0  0  0  0  0  0  0  0  0
    6.6914   -0.8854   -1.5086 O   0  0  0  0  0  0  0  0  0  0  0  0
    4.7867   -0.5196   -0.2126 C   0  0  0  0  0  0  0  0  0  0  0  0
    3.7192   -0.9746    0.1012 C   0  0  0  0  0  0  0  0  0  0  0  0
    2.4309   -1.4972    0.4699 C   0  0  0  0  0  0  0  0  0  0  0  0
    1.2804   -0.7313    0.3945 C   0  0  0  0  0  0  0  0  0  0  0  0
    0.0575   -1.2511    0.7526 C   0  0  0  0  0  0  0  0  0  0  0  0
   -1.0473   -0.2754    0.6022 C   0  0  0  0  0  0  0  0  0  0  0  0
   -0.9506    0.9749    0.1477 N   0  0  0  0  0  0  0  0  0  0  0  0
   -2.1866    1.5705    0.1549 C   0  0  0  0  0  0  0  0  0  0  0  0
   -2.4579    2.9415   -0.2686 C   0  0  0  0  0  0  0  0  0  0  0  0
   -1.3499    3.7267   -0.7658 N   0  0  0  0  0  0  0  0  0  0  0  0
   -3.5453    3.5134   -0.2487 O   0  0  0  0  0  0  0  0  0  0  0  0
   -3.0538    0.6309    0.6345 C   0  0  0  0  0  0  0  0  0  0  0  0
   -4.5139    0.7392    0.8334 C   0  0  0  0  0  0  0  0  0  0  0  0
   -5.3122    0.5880   -0.3977 C   0  0  0  0  0  0  0  0  0  0  0  0
   -5.1374   -0.4492   -1.3229 C   0  0  0  0  0  0  0  0  0  0  0  0
   -6.0750   -0.3017   -2.3232 C   0  0  0  0  0  0  0  0  0  0  0  0
   -6.7724    0.7931   -1.9815 N   0  0  0  0  0  0  0  0  0  0  0  0
   -6.3279    1.3207   -0.8481 N   0  0  0  0  0  0  0  0  0  0  0  0
   -6.9315    2.4905   -0.2538 C   0  0  0  0  0  0  0  0  0  0  0  0
   -2.3486   -0.4982    0.9068 N   0  0  0  0  0  0  0  0  0  0  0  0
   -2.9163   -1.7235    1.4308 C   0  0  0  0  0  0  0  0  0  0  0  0
   -2.4217   -2.9303    0.6113 C   0  0  0  0  0  0  0  0  0  0  0  0
   -1.3317   -3.2323    1.6175 C   0  0  0  0  0  0  0  0  0  0  0  0
   -2.0519   -2.2782    2.5649 C   0  0  0  0  0  0  0  0  0  0  0  0
   -0.0556   -2.5682    1.2028 C   0  0  0  0  0  0  0  0  0  0  0  0
    1.0519   -3.3336    1.2847 C   0  0  0  0  0  0  0  0  0  0  0  0
    2.2662   -2.7930    0.9209 C   0  0  0  0  0  0  0  0  0  0  0  0
    3.3798   -3.5597    1.0024 F   0  0  0  0  0  0  0  0  0  0  0  0
    8.6005    1.5003   -0.7717 H   0  0  0  0  0  0  0  0  0  0  0  0
    8.6985    2.7047   -2.0488 H   0  0  0  0  0  0  0  0  0  0  0  0
    7.7673    3.1271   -0.6178 H   0  0  0  0  0  0  0  0  0  0  0  0
    5.4371    2.0702   -0.5337 H   0  0  0  0  0  0  0  0  0  0  0  0
    4.9699    1.1854   -2.0174 H   0  0  0  0  0  0  0  0  0  0  0  0
    7.0665    1.1761    1.0271 H   0  0  0  0  0  0  0  0  0  0  0  0
    6.4690   -0.4325    1.4704 H   0  0  0  0  0  0  0  0  0  0  0  0
    7.9676   -0.3799    0.5485 H   0  0  0  0  0  0  0  0  0  0  0  0
    5.9774   -1.3661   -1.9901 H   0  0  0  0  0  0  0  0  0  0  0  0
    1.3640    0.2908    0.0458 H   0  0  0  0  0  0  0  0  0  0  0  0
   -1.0978    4.6381   -0.3211 H   0  0  0  0  0  0  0  0  0  0  0  0
   -0.7715    3.4148   -1.5750 H   0  0  0  0  0  0  0  0  0  0  0  0
   -4.8820    0.0303    1.6014 H   0  0  0  0  0  0  0  0  0  0  0  0
   -4.7429    1.7548    1.3025 H   0  0  0  0  0  0  0  0  0  0  0  0
   -4.4136   -1.2286   -1.2844 H   0  0  0  0  0  0  0  0  0  0  0  0
   -6.2613   -0.8857   -3.1975 H   0  0  0  0  0  0  0  0  0  0  0  0
   -7.8994    2.2336    0.2625 H   0  0  0  0  0  0  0  0  0  0  0  0
   -6.2515    2.8567    0.5375 H   0  0  0  0  0  0  0  0  0  0  0  0
   -7.1293    3.2823   -1.0258 H   0  0  0  0  0  0  0  0  0  0  0  0
   -3.9784   -1.7208    1.6203 H   0  0  0  0  0  0  0  0  0  0  0  0
   -3.2023   -3.7302    0.6894 H   0  0  0  0  0  0  0  0  0  0  0  0
   -2.1005   -2.6844   -0.4015 H   0  0  0  0  0  0  0  0  0  0  0  0
   -1.2251   -4.2553    1.9472 H   0  0  0  0  0  0  0  0  0  0  0  0
   -1.3876   -1.5054    2.9976 H   0  0  0  0  0  0  0  0  0  0  0  0
   -2.6137   -2.7814    3.3669 H   0  0  0  0  0  0  0  0  0  0  0  0
    0.9437   -4.3517    1.6359 H   0  0  0  0  0  0  0  0  0  0  0  0
  1  2  1  0
  2  3  1  0
  3  4  1  0
  4  5  1  0
  4  6  1  0
  4  7  1  1
  7  8  3  0
  8  9  1  0
  9 10  1  0
 10 11  2  0
 11 12  1  0
 12 13  2  0
 13 14  1  0
 14 15  1  0
 15 16  1  0
 15 17  2  0
 14 18  2  0
 18 19  1  0
 19 20  1  0
 20 21  2  0
 21 22  1  0
 22 23  2  0
 23 24  1  0
 24 25  1  0
 18 26  1  0
 26 27  1  0
 27 28  1  0
 28 29  1  0
 29 30  1  0
 29 31  1  0
 31 32  2  0
 32 33  1  0
 33 34  1  0
 33  9  2  0
 31 11  1  0
 26 12  1  0
 30 27  1  0
 24 20  1  0
  1 35  1  0
  1 36  1  0
  1 37  1  0
  3 38  1  0
  3 39  1  0
  5 40  1  0
  5 41  1  0
  5 42  1  0
  6 43  1  0
 10 44  1  0
 16 45  1  0
 16 46  1  0
 19 47  1  0
 19 48  1  0
 21 49  1  0
 22 50  1  0
 25 51  1  0
 25 52  1  0
 25 53  1  0
 27 54  1  0
 28 55  1  0
 28 56  1  0
 29 57  1  0
 30 58  1  0
 30 59  1  0
 32 60  1  0
M  END
$$$$
[H]OC(C([H])([H])[H])(C([H])([H])[H])C([H])([H])n1nc([H])c(-c2c(C(=O)N([H])[H])nc3n2C2([H])C([H])([H])C([H])(c4c([H])c(F)c(C#C[C@@](O[H])(c5noc(C([H])([H])[H])c5[H])C([H])([H])[H])c([H])c4-3)C2([H])[H])c1[H]
     RDKit          3D

 69 74  0  0  0  0  0  0  0  0999 V2000
   10.2182    1.7928   -0.0476 C   0  0  0  0  0  0  0  0  0  0  0  0
    9.4869    0.5028    0.1607 C   0  0  0  0  0  0  0  0  0  0  0  0
    8.3108    0.1351   -0.4583 C   0  0  0  0  0  0  0  0  0  0  0  0
    7.9668   -1.1153    0.0024 C   0  0  0  0  0  0  0  0  0  0  0  0
    8.9276   -1.4496    0.8634 N   0  0  0  0  0  0  0  0  0  0  0  0
    9.8134   -0.4868    0.9458 O   0  0  0  0  0  0  0  0  0  0  0  0
    6.8023   -1.9653   -0.3349 C   0  0  2  0  0  0  0  0  0  0  0  0
    6.5466   -3.0298    0.6714 C   0  0  0  0  0  0  0  0  0  0  0  0
    7.0756   -2.6045   -1.5656 O   0  0  0  0  0  0  0  0  0  0  0  0
    5.5664   -1.1798   -0.4623 C   0  0  0  0  0  0  0  0  0  0  0  0
    4.5444   -0.5466   -0.5792 C   0  0  0  0  0  0  0  0  0  0  0  0
    3.3115    0.2028   -0.7431 C   0  0  0  0  0  0  0  0  0  0  0  0
    2.1169   -0.3373   -0.3284 C   0  0  0  0  0  0  0  0  0  0  0  0
    0.9442    0.3477   -0.4841 C   0  0  0  0  0  0  0  0  0  0  0  0
   -0.2443   -0.3935   -0.0096 C   0  0  0  0  0  0  0  0  0  0  0  0
   -0.2131   -1.5605    0.6144 N   0  0  0  0  0  0  0  0  0  0  0  0
   -1.5282   -1.9242    0.8414 C   0  0  0  0  0  0  0  0  0  0  0  0
   -1.7376   -3.2204    1.4656 C   0  0  0  0  0  0  0  0  0  0  0  0
   -2.6961   -4.1474    1.0038 N   0  0  0  0  0  0  0  0  0  0  0  0
   -1.0329   -3.5840    2.4689 O   0  0  0  0  0  0  0  0  0  0  0  0
   -2.3789   -0.9581    0.3512 C   0  0  0  0  0  0  0  0  0  0  0  0
   -3.8358   -0.9026    0.5836 C   0  0  0  0  0  0  0  0  0  0  0  0
   -4.5758   -1.6717    1.4562 C   0  0  0  0  0  0  0  0  0  0  0  0
   -5.9033   -1.4829    1.2661 N   0  0  0  0  0  0  0  0  0  0  0  0
   -6.0462   -0.6181    0.3035 N   0  0  0  0  0  0  0  0  0  0  0  0
   -7.2623   -0.1246   -0.2411 C   0  0  0  0  0  0  0  0  0  0  0  0
   -7.8327    1.0932    0.4031 C   0  0  0  0  0  0  0  0  0  0  0  0
   -8.1600    0.8863    1.8594 C   0  0  0  0  0  0  0  0  0  0  0  0
   -6.9144    2.2937    0.2949 C   0  0  0  0  0  0  0  0  0  0  0  0
   -9.0144    1.4197   -0.2630 O   0  0  0  0  0  0  0  0  0  0  0  0
   -4.8034   -0.2384   -0.1407 C   0  0  0  0  0  0  0  0  0  0  0  0
   -1.5601   -0.0268   -0.1673 N   0  0  0  0  0  0  0  0  0  0  0  0
   -1.9688    1.2317   -0.7267 C   0  0  0  0  0  0  0  0  0  0  0  0
   -1.1021    2.3709   -0.0765 C   0  0  0  0  0  0  0  0  0  0  0  0
   -0.2205    2.4503   -1.2939 C   0  0  0  0  0  0  0  0  0  0  0  0
   -1.2206    1.5803   -2.0192 C   0  0  0  0  0  0  0  0  0  0  0  0
    1.0067    1.5947   -1.0701 C   0  0  0  0  0  0  0  0  0  0  0  0
    2.1495    2.2076   -1.5129 C   0  0  0  0  0  0  0  0  0  0  0  0
    3.3211    1.4589   -1.3280 C   0  0  0  0  0  0  0  0  0  0  0  0
    4.5119    1.9355   -1.7212 F   0  0  0  0  0  0  0  0  0  0  0  0
   11.1564    1.5073   -0.5897 H   0  0  0  0  0  0  0  0  0  0  0  0
   10.5226    2.1871    0.9198 H   0  0  0  0  0  0  0  0  0  0  0  0
    9.6112    2.4533   -0.6694 H   0  0  0  0  0  0  0  0  0  0  0  0
    7.7265    0.6913   -1.1787 H   0  0  0  0  0  0  0  0  0  0  0  0
    5.9167   -2.5797    1.4946 H   0  0  0  0  0  0  0  0  0  0  0  0
    7.4820   -3.4545    1.0857 H   0  0  0  0  0  0  0  0  0  0  0  0
    5.9005   -3.8188    0.1851 H   0  0  0  0  0  0  0  0  0  0  0  0
    6.9169   -1.9509   -2.3242 H   0  0  0  0  0  0  0  0  0  0  0  0
    2.0389   -1.3197    0.1420 H   0  0  0  0  0  0  0  0  0  0  0  0
   -3.1412   -4.7955    1.6798 H   0  0  0  0  0  0  0  0  0  0  0  0
   -3.0012   -4.2224   -0.0009 H   0  0  0  0  0  0  0  0  0  0  0  0
   -4.1939   -2.3090    2.2389 H   0  0  0  0  0  0  0  0  0  0  0  0
   -8.0598   -0.9018   -0.2850 H   0  0  0  0  0  0  0  0  0  0  0  0
   -7.0944    0.1413   -1.3199 H   0  0  0  0  0  0  0  0  0  0  0  0
   -9.1113    1.4358    2.1282 H   0  0  0  0  0  0  0  0  0  0  0  0
   -7.3890    1.3415    2.5190 H   0  0  0  0  0  0  0  0  0  0  0  0
   -8.3322   -0.1584    2.1491 H   0  0  0  0  0  0  0  0  0  0  0  0
   -6.1116    2.1629    1.0509 H   0  0  0  0  0  0  0  0  0  0  0  0
   -7.5261    3.1802    0.5194 H   0  0  0  0  0  0  0  0  0  0  0  0
   -6.5185    2.3343   -0.7284 H   0  0  0  0  0  0  0  0  0  0  0  0
   -8.7741    1.5216   -1.2199 H   0  0  0  0  0  0  0  0  0  0  0  0
   -4.6431    0.4432   -0.9555 H   0  0  0  0  0  0  0  0  0  0  0  0
   -3.0008    1.5242   -0.7073 H   0  0  0  0  0  0  0  0  0  0  0  0
   -1.6997    3.2482    0.1879 H   0  0  0  0  0  0  0  0  0  0  0  0
   -0.5337    1.9622    0.7911 H   0  0  0  0  0  0  0  0  0  0  0  0
   -0.0312    3.4317   -1.7243 H   0  0  0  0  0  0  0  0  0  0  0  0
   -1.8790    2.1379   -2.7144 H   0  0  0  0  0  0  0  0  0  0  0  0
   -0.7691    0.6858   -2.5012 H   0  0  0  0  0  0  0  0  0  0  0  0
    2.1693    3.1849   -1.9727 H   0  0  0  0  0  0  0  0  0  0  0  0
  1  2  1  0
  2  3  2  0
  3  4  1  0
  4  5  2  0
  5  6  1  0
  4  7  1  0
  7  8  1  0
  7  9  1  0
  7 10  1  6
 10 11  3  0
 11 12  1  0
 12 13  1  0
 13 14  2  0
 14 15  1  0
 15 16  2  0
 16 17  1  0
 17 18  1  0
 18 19  1  0
 18 20  2  0
 17 21  2  0
 21 22  1  0
 22 23  1  0
 23 24  2  0
 24 25  1  0
 25 26  1  0
 26 27  1  0
 27 28  1  0
 27 29  1  0
 27 30  1  0
 25 31  1  0
 21 32  1  0
 32 33  1  0
 33 34  1  0
 34 35  1  0
 35 36  1  0
 35 37  1  0
 37 38  2  0
 38 39  1  0
 39 40  1  0
  6  2  1  0
 39 12  2  0
 37 14  1  0
 32 15  1  0
 36 33  1  0
 31 22  2  0
  1 41  1  0
  1 42  1  0
  1 43  1  0
  3 44  1  0
  8 45  1  0
  8 46  1  0
  8 47  1  0
  9 48  1  0
 13 49  1  0
 19 50  1  0
 19 51  1  0
 23 52  1  0
 26 53  1  0
 26 54  1  0
 28 55  1  0
 28 56  1  0
 28 57  1  0
 29 58  1  0
 29 59  1  0
 29 60  1  0
 30 61  1  0
 31 62  1  0
 33 63  1  0
 34 64  1  0
 34 65  1  0
 35 66  1  0
 36 67  1  0
 36 68  1  0
 38 69  1  0
M  END
$$$$
[H]O[C@](C#Cc1c([H])c([H])c2c(c1[H])-c1nc(C(=O)N([H])[H])n(C([H])([H])[H])c1C1([H])C([H])([H])C2([H])C1([H])[H])(c1nc([H])c([H])c([H])n1)C([H])([H])[H]
     RDKit          3D

 51 55  0  0  0  0  0  0  0  0999 V2000
   -6.3079   -0.0878   -0.0388 C   0  0  0  0  0  0  0  0  0  0  0  0
   -4.8768    0.1054   -0.1804 N   0  0  0  0  0  0  0  0  0  0  0  0
   -4.2990    1.3338   -0.3219 C   0  0  0  0  0  0  0  0  0  0  0  0
   -2.9462    1.1438   -0.4066 N   0  0  0  0  0  0  0  0  0  0  0  0
   -2.6578   -0.1614   -0.3204 C   0  0  0  0  0  0  0  0  0  0  0  0
   -3.9029   -0.7852   -0.1826 C   0  0  0  0  0  0  0  0  0  0  0  0
   -4.1494   -2.2446   -0.0400 C   0  0  0  0  0  0  0  0  0  0  0  0
   -3.2912   -2.7594    1.1317 C   0  0  0  0  0  0  0  0  0  0  0  0
   -2.2032   -3.2352    0.1673 C   0  0  0  0  0  0  0  0  0  0  0  0
   -3.2572   -3.1074   -0.9420 C   0  0  0  0  0  0  0  0  0  0  0  0
   -1.1606   -2.1990   -0.0579 C   0  0  0  0  0  0  0  0  0  0  0  0
    0.0736   -2.7852    0.0699 C   0  0  0  0  0  0  0  0  0  0  0  0
    1.1514   -1.9369   -0.0161 C   0  0  0  0  0  0  0  0  0  0  0  0
    0.9939   -0.5733   -0.2211 C   0  0  0  0  0  0  0  0  0  0  0  0
   -0.2511   -0.0175   -0.3561 C   0  0  0  0  0  0  0  0  0  0  0  0
   -1.3636   -0.8291   -0.2733 C   0  0  0  0  0  0  0  0  0  0  0  0
    2.1710    0.2516   -0.0021 C   0  0  0  0  0  0  0  0  0  0  0  0
    3.1370    0.8663    0.3323 C   0  0  0  0  0  0  0  0  0  0  0  0
    4.2772    1.5261    0.8900 C   0  0  1  0  0  0  0  0  0  0  0  0
    4.0478    2.9302    1.2856 C   0  0  0  0  0  0  0  0  0  0  0  0
    4.4349    0.8643    2.2381 O   0  0  0  0  0  0  0  0  0  0  0  0
    5.5904    1.2626    0.3384 C   0  0  0  0  0  0  0  0  0  0  0  0
    5.9356    0.1548   -0.3203 N   0  0  0  0  0  0  0  0  0  0  0  0
    7.2115   -0.0966   -0.7205 C   0  0  0  0  0  0  0  0  0  0  0  0
    8.2006    0.8063   -0.4505 C   0  0  0  0  0  0  0  0  0  0  0  0
    7.8462    1.9565    0.2283 C   0  0  0  0  0  0  0  0  0  0  0  0
    6.5779    2.1617    0.6019 N   0  0  0  0  0  0  0  0  0  0  0  0
   -5.0217    2.5985   -0.3327 C   0  0  0  0  0  0  0  0  0  0  0  0
   -4.4952    3.8566   -0.6462 N   0  0  0  0  0  0  0  0  0  0  0  0
   -6.2720    2.5960   -0.0314 O   0  0  0  0  0  0  0  0  0  0  0  0
   -6.6078   -1.1441   -0.0365 H   0  0  0  0  0  0  0  0  0  0  0  0
   -6.6382    0.2935    0.9817 H   0  0  0  0  0  0  0  0  0  0  0  0
   -6.8982    0.3980   -0.8351 H   0  0  0  0  0  0  0  0  0  0  0  0
   -5.1972   -2.5647   -0.0225 H   0  0  0  0  0  0  0  0  0  0  0  0
   -3.7836   -3.5203    1.7308 H   0  0  0  0  0  0  0  0  0  0  0  0
   -2.9749   -1.8964    1.7726 H   0  0  0  0  0  0  0  0  0  0  0  0
   -1.8385   -4.2343    0.3426 H   0  0  0  0  0  0  0  0  0  0  0  0
   -3.6849   -4.1005   -1.1805 H   0  0  0  0  0  0  0  0  0  0  0  0
   -2.8602   -2.5671   -1.8200 H   0  0  0  0  0  0  0  0  0  0  0  0
    0.1629   -3.8314    0.2352 H   0  0  0  0  0  0  0  0  0  0  0  0
    2.1333   -2.3231    0.0712 H   0  0  0  0  0  0  0  0  0  0  0  0
   -0.3853    1.0151   -0.5403 H   0  0  0  0  0  0  0  0  0  0  0  0
    4.8423    3.1651    2.0759 H   0  0  0  0  0  0  0  0  0  0  0  0
    3.1004    3.0781    1.8640 H   0  0  0  0  0  0  0  0  0  0  0  0
    4.1802    3.7121    0.5237 H   0  0  0  0  0  0  0  0  0  0  0  0
    4.5017   -0.0954    1.8898 H   0  0  0  0  0  0  0  0  0  0  0  0
    7.4762   -1.0126   -1.2533 H   0  0  0  0  0  0  0  0  0  0  0  0
    9.2523    0.6655   -0.7478 H   0  0  0  0  0  0  0  0  0  0  0  0
    8.6340    2.6641    0.4421 H   0  0  0  0  0  0  0  0  0  0  0  0
   -3.5330    4.1249   -0.3925 H   0  0  0  0  0  0  0  0  0  0  0  0
   -5.0749    4.5775   -1.1633 H   0  0  0  0  0  0  0  0  0  0  0  0
  1  2  1  0
  2  3  1  0
  3  4  2  0
  4  5  1  0
  5  6  2  0
  6  7  1  0
  7  8  1  0
  8  9  1  0
  9 10  1  0
  9 11  1  0
 11 12  2  0
 12 13  1  0
 13 14  2  0
 14 15  1  0
 15 16  2  0
 14 17  1  0
 17 18  3  0
 19 18  1  6
 19 20  1  0
 19 21  1  0
 19 22  1  0
 22 23  2  0
 23 24  1  0
 24 25  2  0
 25 26  1  0
 26 27  2  0
  3 28  1  0
 28 29  1  0
 28 30  2  0
  6  2  1  0
 10  7  1  0
 16 11  1  0
 27 22  1  0
  5 16  1  0
  1 31  1  0
  1 32  1  0
  1 33  1  0
  7 34  1  0
  8 35  1  0
  8 36  1  0
  9 37  1  0
 10 38  1  0
 10 39  1  0
 12 40  1  0
 13 41  1  0
 15 42  1  0
 20 43  1  0
 20 44  1  0
 20 45  1  0
 21 46  1  0
 24 47  1  0
 25 48  1  0
 26 49  1  0
 29 50  1  0
 29 51  1  0
M  END
$$$$
[H]O[C@@]([H])(c1c([H])c([H])nn1C([H])([H])[H])c1c(C(=O)N([H])[H])nc2n1C1([H])C([H])([H])C([H])(c3c([H])c(F)c(C#C[C@@]4(O[H])C(=O)N(C([H])([H])[H])C([H])([H])C4([H])[H])c([H])c3-2)C1([H])[H]
     RDKit          3D

 62 67  0  0  0  0  0  0  0  0999 V2000
    8.8235   -0.3148   -0.1680 C   0  0  0  0  0  0  0  0  0  0  0  0
    7.6856   -1.1300    0.1950 N   0  0  0  0  0  0  0  0  0  0  0  0
    7.3668   -1.4688    1.5697 C   0  0  0  0  0  0  0  0  0  0  0  0
    6.1866   -2.3925    1.5167 C   0  0  0  0  0  0  0  0  0  0  0  0
    5.5684   -2.1862    0.1757 C   0  0  1  0  0  0  0  0  0  0  0  0
    5.1009   -3.3656   -0.3972 O   0  0  0  0  0  0  0  0  0  0  0  0
    4.4723   -1.2086    0.1896 C   0  0  0  0  0  0  0  0  0  0  0  0
    3.5565   -0.4204    0.1991 C   0  0  0  0  0  0  0  0  0  0  0  0
    2.4430    0.5043    0.2145 C   0  0  0  0  0  0  0  0  0  0  0  0
    1.1577    0.1050   -0.0826 C   0  0  0  0  0  0  0  0  0  0  0  0
    0.1227    1.0167   -0.0566 C   0  0  0  0  0  0  0  0  0  0  0  0
   -1.1877    0.4069   -0.4019 C   0  0  0  0  0  0  0  0  0  0  0  0
   -1.3507   -0.8752   -0.7158 N   0  0  0  0  0  0  0  0  0  0  0  0
   -2.6918   -1.0624   -0.9696 C   0  0  0  0  0  0  0  0  0  0  0  0
   -3.1568   -2.3787   -1.3422 C   0  0  0  0  0  0  0  0  0  0  0  0
   -2.3001   -3.5027   -1.4463 N   0  0  0  0  0  0  0  0  0  0  0  0
   -4.3619   -2.5800   -1.5929 O   0  0  0  0  0  0  0  0  0  0  0  0
   -3.3355    0.1418   -0.8003 C   0  0  0  0  0  0  0  0  0  0  0  0
   -4.7671    0.3806   -0.9625 C   0  0  1  0  0  0  0  0  0  0  0  0
   -5.2952   -0.0282   -2.1848 O   0  0  0  0  0  0  0  0  0  0  0  0
   -5.6122   -0.1638    0.1367 C   0  0  0  0  0  0  0  0  0  0  0  0
   -5.1845   -0.6848    1.3316 C   0  0  0  0  0  0  0  0  0  0  0  0
   -6.2802   -1.0630    2.0368 C   0  0  0  0  0  0  0  0  0  0  0  0
   -7.3298   -0.7653    1.2610 N   0  0  0  0  0  0  0  0  0  0  0  0
   -6.9480   -0.2281    0.1239 N   0  0  0  0  0  0  0  0  0  0  0  0
   -7.8366    0.2238   -0.9731 C   0  0  0  0  0  0  0  0  0  0  0  0
   -2.3952    1.0258   -0.4533 N   0  0  0  0  0  0  0  0  0  0  0  0
   -2.6291    2.4269   -0.1742 C   0  0  0  0  0  0  0  0  0  0  0  0
   -1.9263    2.8740    1.0925 C   0  0  0  0  0  0  0  0  0  0  0  0
   -0.7382    3.4206    0.3190 C   0  0  0  0  0  0  0  0  0  0  0  0
   -1.6226    3.3176   -0.9205 C   0  0  0  0  0  0  0  0  0  0  0  0
    0.3286    2.3501    0.2639 C   0  0  0  0  0  0  0  0  0  0  0  0
    1.5826    2.7596    0.5581 C   0  0  0  0  0  0  0  0  0  0  0  0
    2.6179    1.8476    0.5321 C   0  0  0  0  0  0  0  0  0  0  0  0
    3.8964    2.2261    0.8239 F   0  0  0  0  0  0  0  0  0  0  0  0
    6.7102   -1.7280   -0.6586 C   0  0  0  0  0  0  0  0  0  0  0  0
    6.8592   -1.8171   -1.8956 O   0  0  0  0  0  0  0  0  0  0  0  0
    8.5738    0.2755   -1.0806 H   0  0  0  0  0  0  0  0  0  0  0  0
    9.0538    0.3931    0.6481 H   0  0  0  0  0  0  0  0  0  0  0  0
    9.7389   -0.9100   -0.3495 H   0  0  0  0  0  0  0  0  0  0  0  0
    8.2282   -1.9908    2.0773 H   0  0  0  0  0  0  0  0  0  0  0  0
    7.1496   -0.5144    2.0879 H   0  0  0  0  0  0  0  0  0  0  0  0
    6.5933   -3.4452    1.5335 H   0  0  0  0  0  0  0  0  0  0  0  0
    5.4871   -2.2556    2.3601 H   0  0  0  0  0  0  0  0  0  0  0  0
    4.9748   -3.1608   -1.3737 H   0  0  0  0  0  0  0  0  0  0  0  0
    0.9914   -0.9318   -0.3328 H   0  0  0  0  0  0  0  0  0  0  0  0
   -2.0295   -4.0308   -0.6026 H   0  0  0  0  0  0  0  0  0  0  0  0
   -1.9457   -3.7938   -2.3708 H   0  0  0  0  0  0  0  0  0  0  0  0
   -4.9474    1.4987   -0.9487 H   0  0  0  0  0  0  0  0  0  0  0  0
   -5.1253    0.6518   -2.8588 H   0  0  0  0  0  0  0  0  0  0  0  0
   -4.1439   -0.7921    1.6869 H   0  0  0  0  0  0  0  0  0  0  0  0
   -6.2460   -1.5082    3.0200 H   0  0  0  0  0  0  0  0  0  0  0  0
   -7.5221    1.1993   -1.3628 H   0  0  0  0  0  0  0  0  0  0  0  0
   -7.9429   -0.5674   -1.7284 H   0  0  0  0  0  0  0  0  0  0  0  0
   -8.8383    0.3641   -0.5176 H   0  0  0  0  0  0  0  0  0  0  0  0
   -3.6139    2.8326   -0.3463 H   0  0  0  0  0  0  0  0  0  0  0  0
   -2.4817    3.7460    1.5416 H   0  0  0  0  0  0  0  0  0  0  0  0
   -1.6957    2.0887    1.8105 H   0  0  0  0  0  0  0  0  0  0  0  0
   -0.3810    4.4030    0.5834 H   0  0  0  0  0  0  0  0  0  0  0  0
   -1.1512    2.6994   -1.7287 H   0  0  0  0  0  0  0  0  0  0  0  0
   -2.0056    4.2880   -1.2328 H   0  0  0  0  0  0  0  0  0  0  0  0
    1.7499    3.7976    0.8089 H   0  0  0  0  0  0  0  0  0  0  0  0
  1  2  1  0
  2  3  1  0
  3  4  1  0
  4  5  1  0
  5  6  1  0
  5  7  1  1
  7  8  3  0
  8  9  1  0
  9 10  1  0
 10 11  2  0
 11 12  1  0
 12 13  2  0
 13 14  1  0
 14 15  1  0
 15 16  1  0
 15 17  2  0
 14 18  2  0
 18 19  1  0
 19 20  1  0
 19 21  1  0
 21 22  2  0
 22 23  1  0
 23 24  2  0
 24 25  1  0
 25 26  1  0
 18 27  1  0
 27 28  1  0
 28 29  1  0
 29 30  1  0
 30 31  1  0
 30 32  1  0
 32 33  2  0
 33 34  1  0
 34 35  1  0
  5 36  1  0
 36 37  2  0
 36  2  1  0
 34  9  2  0
 32 11  1  0
 27 12  1  0
 31 28  1  0
 25 21  1  0
  1 38  1  0
  1 39  1  0
  1 40  1  0
  3 41  1  0
  3 42  1  0
  4 43  1  0
  4 44  1  0
  6 45  1  0
 10 46  1  0
 16 47  1  0
 16 48  1  0
 19 49  1  6
 20 50  1  0
 22 51  1  0
 23 52  1  0
 26 53  1  0
 26 54  1  0
 26 55  1  0
 28 56  1  0
 29 57  1  0
 29 58  1  0
 30 59  1  0
 31 60  1  0
 31 61  1  0
 33 62  1  0
M  END
$$$$
[H]O[C@]1(C#Cc2c([H])c([H])nc(-n3nc(C(=O)N([H])[H])c4c([H])c(F)c([H])c([H])c43)c2[H])C(=O)N(C([H])([H])[H])C([H])([H])C1([H])[H]
     RDKit          3D

 45 48  0  0  0  0  0  0  0  0999 V2000
   -6.8814   -1.2770    1.0587 C   0  0  0  0  0  0  0  0  0  0  0  0
   -5.8876   -0.2368    0.9858 N   0  0  0  0  0  0  0  0  0  0  0  0
   -5.3213    0.4577    2.1069 C   0  0  0  0  0  0  0  0  0  0  0  0
   -3.9872    0.9818    1.6562 C   0  0  0  0  0  0  0  0  0  0  0  0
   -4.1651    1.1260    0.1610 C   0  0  1  0  0  0  0  0  0  0  0  0
   -4.4501    2.4512   -0.1952 O   0  0  0  0  0  0  0  0  0  0  0  0
   -2.9141    0.6797   -0.4551 C   0  0  0  0  0  0  0  0  0  0  0  0
   -1.8922    0.3161   -0.9811 C   0  0  0  0  0  0  0  0  0  0  0  0
   -0.6877   -0.1172   -1.6291 C   0  0  0  0  0  0  0  0  0  0  0  0
   -0.6260   -0.4136   -2.9923 C   0  0  0  0  0  0  0  0  0  0  0  0
    0.5424   -0.8268   -3.5866 C   0  0  0  0  0  0  0  0  0  0  0  0
    1.6476   -0.9505   -2.8523 N   0  0  0  0  0  0  0  0  0  0  0  0
    1.6555   -0.6794   -1.5282 C   0  0  0  0  0  0  0  0  0  0  0  0
    0.4883   -0.2652   -0.9276 C   0  0  0  0  0  0  0  0  0  0  0  0
    2.8188   -0.8024   -0.7202 N   0  0  0  0  0  0  0  0  0  0  0  0
    3.3302   -1.8718   -0.1796 N   0  0  0  0  0  0  0  0  0  0  0  0
    4.4573   -1.5646    0.5253 C   0  0  0  0  0  0  0  0  0  0  0  0
    5.2890   -2.5085    1.2593 C   0  0  0  0  0  0  0  0  0  0  0  0
    6.4469   -2.1853    1.9823 N   0  0  0  0  0  0  0  0  0  0  0  0
    4.9564   -3.7386    1.2593 O   0  0  0  0  0  0  0  0  0  0  0  0
    4.6559   -0.2026    0.4107 C   0  0  0  0  0  0  0  0  0  0  0  0
    5.5992    0.6914    0.8844 C   0  0  0  0  0  0  0  0  0  0  0  0
    5.5094    2.0235    0.5806 C   0  0  0  0  0  0  0  0  0  0  0  0
    6.4403    2.8675    1.0550 F   0  0  0  0  0  0  0  0  0  0  0  0
    4.4865    2.4711   -0.1919 C   0  0  0  0  0  0  0  0  0  0  0  0
    3.5411    1.5835   -0.6682 C   0  0  0  0  0  0  0  0  0  0  0  0
    3.5976    0.2397   -0.3846 C   0  0  0  0  0  0  0  0  0  0  0  0
   -5.3127    0.2649   -0.1987 C   0  0  0  0  0  0  0  0  0  0  0  0
   -5.7001    0.0276   -1.3568 O   0  0  0  0  0  0  0  0  0  0  0  0
   -7.6813   -1.1131    0.3015 H   0  0  0  0  0  0  0  0  0  0  0  0
   -7.3712   -1.2835    2.0679 H   0  0  0  0  0  0  0  0  0  0  0  0
   -6.4424   -2.2766    0.8312 H   0  0  0  0  0  0  0  0  0  0  0  0
   -5.2025   -0.2490    2.9656 H   0  0  0  0  0  0  0  0  0  0  0  0
   -5.9886    1.2694    2.4727 H   0  0  0  0  0  0  0  0  0  0  0  0
   -3.1431    0.3199    1.9228 H   0  0  0  0  0  0  0  0  0  0  0  0
   -3.8769    2.0104    2.0731 H   0  0  0  0  0  0  0  0  0  0  0  0
   -4.6442    2.4773   -1.1486 H   0  0  0  0  0  0  0  0  0  0  0  0
   -1.5591   -0.2920   -3.5290 H   0  0  0  0  0  0  0  0  0  0  0  0
    0.5468   -1.0426   -4.6279 H   0  0  0  0  0  0  0  0  0  0  0  0
    0.4410   -0.0342    0.1361 H   0  0  0  0  0  0  0  0  0  0  0  0
    6.3645   -1.9062    2.9822 H   0  0  0  0  0  0  0  0  0  0  0  0
    7.3784   -2.2220    1.5311 H   0  0  0  0  0  0  0  0  0  0  0  0
    6.4022    0.3195    1.4946 H   0  0  0  0  0  0  0  0  0  0  0  0
    4.4116    3.5200   -0.4340 H   0  0  0  0  0  0  0  0  0  0  0  0
    2.7279    1.9611   -1.2863 H   0  0  0  0  0  0  0  0  0  0  0  0
  1  2  1  0
  2  3  1  0
  3  4  1  0
  4  5  1  0
  5  6  1  0
  5  7  1  6
  7  8  3  0
  8  9  1  0
  9 10  2  0
 10 11  1  0
 11 12  2  0
 12 13  1  0
 13 14  2  0
 13 15  1  0
 15 16  1  0
 16 17  2  0
 17 18  1  0
 18 19  1  0
 18 20  2  0
 17 21  1  0
 21 22  2  0
 22 23  1  0
 23 24  1  0
 23 25  2  0
 25 26  1  0
 26 27  2  0
  5 28  1  0
 28 29  2  0
 28  2  1  0
 14  9  1  0
 27 15  1  0
 27 21  1  0
  1 30  1  0
  1 31  1  0
  1 32  1  0
  3 33  1  0
  3 34  1  0
  4 35  1  0
  4 36  1  0
  6 37  1  0
 10 38  1  0
 11 39  1  0
 14 40  1  0
 19 41  1  0
 19 42  1  0
 22 43  1  0
 25 44  1  0
 26 45  1  0
M  END
$$$$
[H]O[C@]1(C#Cc2c([H])c([H])c([H])c(-n3nc(C(=O)N([H])[H])c4c([H])c([H])c([H])c([H])c43)c2[H])C(=O)N(C([H])([H])[H])C([H])([H])C1([H])[H]
     RDKit          3D

 46 49  0  0  0  0  0  0  0  0999 V2000
    7.4034    1.6844   -0.6332 C   0  0  0  0  0  0  0  0  0  0  0  0
    6.2583    0.8035   -0.8464 N   0  0  0  0  0  0  0  0  0  0  0  0
    6.4136   -0.5417   -1.3669 C   0  0  0  0  0  0  0  0  0  0  0  0
    5.0800   -1.1800   -1.1561 C   0  0  0  0  0  0  0  0  0  0  0  0
    4.1223   -0.0124   -1.2709 C   0  0  1  0  0  0  0  0  0  0  0  0
    3.8114    0.2905   -2.5808 O   0  0  0  0  0  0  0  0  0  0  0  0
    2.9035   -0.2503   -0.4609 C   0  0  0  0  0  0  0  0  0  0  0  0
    1.9185   -0.4289    0.2114 C   0  0  0  0  0  0  0  0  0  0  0  0
    0.7567   -0.6393    1.0346 C   0  0  0  0  0  0  0  0  0  0  0  0
    0.8721   -0.9108    2.3935 C   0  0  0  0  0  0  0  0  0  0  0  0
   -0.2220   -1.1166    3.2060 C   0  0  0  0  0  0  0  0  0  0  0  0
   -1.4808   -1.0541    2.6666 C   0  0  0  0  0  0  0  0  0  0  0  0
   -1.6473   -0.7888    1.3291 C   0  0  0  0  0  0  0  0  0  0  0  0
   -0.5314   -0.5876    0.5431 C   0  0  0  0  0  0  0  0  0  0  0  0
   -2.9697   -0.7221    0.7575 N   0  0  0  0  0  0  0  0  0  0  0  0
   -3.6656   -1.7125    0.2481 N   0  0  0  0  0  0  0  0  0  0  0  0
   -4.8724   -1.2842   -0.1988 C   0  0  0  0  0  0  0  0  0  0  0  0
   -5.9035   -2.1118   -0.8234 C   0  0  0  0  0  0  0  0  0  0  0  0
   -7.1419   -1.6114   -1.2697 N   0  0  0  0  0  0  0  0  0  0  0  0
   -5.6849   -3.3415   -0.9766 O   0  0  0  0  0  0  0  0  0  0  0  0
   -4.9379    0.0623    0.0460 C   0  0  0  0  0  0  0  0  0  0  0  0
   -5.8858    1.0363   -0.1754 C   0  0  0  0  0  0  0  0  0  0  0  0
   -5.6431    2.3379    0.1966 C   0  0  0  0  0  0  0  0  0  0  0  0
   -4.4389    2.6331    0.7895 C   0  0  0  0  0  0  0  0  0  0  0  0
   -3.4790    1.6842    1.0214 C   0  0  0  0  0  0  0  0  0  0  0  0
   -3.7180    0.3807    0.6506 C   0  0  0  0  0  0  0  0  0  0  0  0
    4.8833    1.0761   -0.6035 C   0  0  0  0  0  0  0  0  0  0  0  0
    4.4776    2.0597    0.0526 O   0  0  0  0  0  0  0  0  0  0  0  0
    7.8699    1.9668   -1.5980 H   0  0  0  0  0  0  0  0  0  0  0  0
    7.1131    2.6161   -0.1183 H   0  0  0  0  0  0  0  0  0  0  0  0
    8.1518    1.1771    0.0198 H   0  0  0  0  0  0  0  0  0  0  0  0
    6.6398   -0.5232   -2.4544 H   0  0  0  0  0  0  0  0  0  0  0  0
    7.2413   -1.0867   -0.8494 H   0  0  0  0  0  0  0  0  0  0  0  0
    5.0179   -1.5465   -0.1069 H   0  0  0  0  0  0  0  0  0  0  0  0
    4.8516   -1.9776   -1.8913 H   0  0  0  0  0  0  0  0  0  0  0  0
    2.9768    0.8253   -2.5701 H   0  0  0  0  0  0  0  0  0  0  0  0
    1.8816   -0.9519    2.7814 H   0  0  0  0  0  0  0  0  0  0  0  0
   -0.1104   -1.3264    4.2604 H   0  0  0  0  0  0  0  0  0  0  0  0
   -2.3649   -1.2133    3.2887 H   0  0  0  0  0  0  0  0  0  0  0  0
   -0.6708   -0.3766   -0.5224 H   0  0  0  0  0  0  0  0  0  0  0  0
   -7.9001   -1.4819   -0.5526 H   0  0  0  0  0  0  0  0  0  0  0  0
   -7.3703   -1.3579   -2.2546 H   0  0  0  0  0  0  0  0  0  0  0  0
   -6.8327    0.8134   -0.6398 H   0  0  0  0  0  0  0  0  0  0  0  0
   -6.4004    3.1122    0.0190 H   0  0  0  0  0  0  0  0  0  0  0  0
   -4.2567    3.6659    1.0801 H   0  0  0  0  0  0  0  0  0  0  0  0
   -2.5161    1.9107    1.4935 H   0  0  0  0  0  0  0  0  0  0  0  0
  1  2  1  0
  2  3  1  0
  3  4  1  0
  4  5  1  0
  5  6  1  0
  5  7  1  1
  7  8  3  0
  8  9  1  0
  9 10  2  0
 10 11  1  0
 11 12  2  0
 12 13  1  0
 13 14  2  0
 13 15  1  0
 15 16  1  0
 16 17  2  0
 17 18  1  0
 18 19  1  0
 18 20  2  0
 17 21  1  0
 21 22  2  0
 22 23  1  0
 23 24  2  0
 24 25  1  0
 25 26  2  0
  5 27  1  0
 27 28  2  0
 27  2  1  0
 14  9  1  0
 26 15  1  0
 26 21  1  0
  1 29  1  0
  1 30  1  0
  1 31  1  0
  3 32  1  0
  3 33  1  0
  4 34  1  0
  4 35  1  0
  6 36  1  0
 10 37  1  0
 11 38  1  0
 12 39  1  0
 14 40  1  0
 19 41  1  0
 19 42  1  0
 22 43  1  0
 23 44  1  0
 24 45  1  0
 25 46  1  0
M  END
$$$$
[H]OC(C#Cc1c([H])c2c(c([H])c1F)OC([H])([H])C([H])([H])n1c-2nc(C(=O)N([H])[H])c1[H])(c1noc(C([H])([H])C#N)c1[H])C([H])([H])[H]
     RDKit          3D

 47 50  0  0  0  0  0  0  0  0999 V2000
    3.2449    2.6302    0.4567 C   0  0  0  0  0  0  0  0  0  0  0  0
    3.3797    1.4898   -0.5545 C   0  0  0  0  0  0  0  0  0  0  0  0
    3.8602    2.0940   -1.7389 O   0  0  0  0  0  0  0  0  0  0  0  0
    2.0644    0.9371   -0.8524 C   0  0  0  0  0  0  0  0  0  0  0  0
    0.9739    0.4671   -1.0735 C   0  0  0  0  0  0  0  0  0  0  0  0
   -0.3108   -0.1335   -1.3133 C   0  0  0  0  0  0  0  0  0  0  0  0
   -1.3203    0.0921   -0.3709 C   0  0  0  0  0  0  0  0  0  0  0  0
   -2.5378   -0.4927   -0.6108 C   0  0  0  0  0  0  0  0  0  0  0  0
   -3.4833   -0.1705    0.4595 C   0  0  0  0  0  0  0  0  0  0  0  0
   -3.4272    0.8915    1.2780 N   0  0  0  0  0  0  0  0  0  0  0  0
   -4.4849    0.8733    2.1476 C   0  0  0  0  0  0  0  0  0  0  0  0
   -5.2121   -0.2603    1.8281 C   0  0  0  0  0  0  0  0  0  0  0  0
   -4.5883   -0.8680    0.8088 N   0  0  0  0  0  0  0  0  0  0  0  0
   -5.0109   -2.1174    0.1647 C   0  0  0  0  0  0  0  0  0  0  0  0
   -5.2141   -1.9553   -1.3212 C   0  0  0  0  0  0  0  0  0  0  0  0
   -3.9909   -1.9175   -2.0522 O   0  0  0  0  0  0  0  0  0  0  0  0
   -2.7896   -1.2776   -1.7238 C   0  0  0  0  0  0  0  0  0  0  0  0
   -1.7738   -1.4773   -2.6312 C   0  0  0  0  0  0  0  0  0  0  0  0
   -0.5214   -0.9054   -2.4353 C   0  0  0  0  0  0  0  0  0  0  0  0
    0.4944   -1.1193   -3.3343 F   0  0  0  0  0  0  0  0  0  0  0  0
   -4.7934    1.8302    3.1802 C   0  0  0  0  0  0  0  0  0  0  0  0
   -3.9675    2.9510    3.4163 N   0  0  0  0  0  0  0  0  0  0  0  0
   -5.8128    1.6774    3.8887 O   0  0  0  0  0  0  0  0  0  0  0  0
    4.3410    0.4756   -0.0745 C   0  0  0  0  0  0  0  0  0  0  0  0
    5.4031   -0.0820   -0.7614 C   0  0  0  0  0  0  0  0  0  0  0  0
    6.0220   -0.9961    0.0940 C   0  0  0  0  0  0  0  0  0  0  0  0
    7.1933   -1.8145   -0.2291 C   0  0  0  0  0  0  0  0  0  0  0  0
    8.4251   -1.0786    0.1185 C   0  0  0  0  0  0  0  0  0  0  0  0
    9.3975   -0.5236    0.3726 N   0  0  0  0  0  0  0  0  0  0  0  0
    5.3314   -0.9504    1.2148 O   0  0  0  0  0  0  0  0  0  0  0  0
    4.3550   -0.1056    1.1433 N   0  0  0  0  0  0  0  0  0  0  0  0
    2.7686    2.2612    1.3795 H   0  0  0  0  0  0  0  0  0  0  0  0
    2.6747    3.4425   -0.0195 H   0  0  0  0  0  0  0  0  0  0  0  0
    4.2676    2.9570    0.7169 H   0  0  0  0  0  0  0  0  0  0  0  0
    3.1051    2.4633   -2.2761 H   0  0  0  0  0  0  0  0  0  0  0  0
   -1.2050    0.6867    0.5115 H   0  0  0  0  0  0  0  0  0  0  0  0
   -6.1236   -0.5919    2.3226 H   0  0  0  0  0  0  0  0  0  0  0  0
   -4.1618   -2.8544    0.2619 H   0  0  0  0  0  0  0  0  0  0  0  0
   -5.8661   -2.5778    0.6548 H   0  0  0  0  0  0  0  0  0  0  0  0
   -5.8361   -1.0705   -1.4948 H   0  0  0  0  0  0  0  0  0  0  0  0
   -5.7991   -2.8316   -1.6721 H   0  0  0  0  0  0  0  0  0  0  0  0
   -1.9196   -2.0673   -3.5173 H   0  0  0  0  0  0  0  0  0  0  0  0
   -4.3595    3.8752    3.6289 H   0  0  0  0  0  0  0  0  0  0  0  0
   -2.9314    2.8125    3.3833 H   0  0  0  0  0  0  0  0  0  0  0  0
    5.6909    0.1551   -1.7679 H   0  0  0  0  0  0  0  0  0  0  0  0
    7.2270   -2.0374   -1.3184 H   0  0  0  0  0  0  0  0  0  0  0  0
    7.2213   -2.7864    0.3035 H   0  0  0  0  0  0  0  0  0  0  0  0
  1  2  1  0
  2  3  1  0
  2  4  1  0
  4  5  3  0
  5  6  1  0
  6  7  2  0
  7  8  1  0
  8  9  1  0
  9 10  2  0
 10 11  1  0
 11 12  2  0
 12 13  1  0
 13 14  1  0
 14 15  1  0
 15 16  1  0
 16 17  1  0
 17 18  1  0
 18 19  2  0
 19 20  1  0
 11 21  1  0
 21 22  1  0
 21 23  2  0
  2 24  1  0
 24 25  1  0
 25 26  2  0
 26 27  1  0
 27 28  1  0
 28 29  3  0
 26 30  1  0
 30 31  1  0
 19  6  1  0
 31 24  2  0
 17  8  2  0
 13  9  1  0
  1 32  1  0
  1 33  1  0
  1 34  1  0
  3 35  1  0
  7 36  1  0
 12 37  1  0
 14 38  1  0
 14 39  1  0
 15 40  1  0
 15 41  1  0
 18 42  1  0
 22 43  1  0
 22 44  1  0
 25 45  1  0
 27 46  1  0
 27 47  1  0
M  END
$$$$
[H]OC(C#Cc1c([H])c([H])c2c(c1[H])-c1nc(C(=O)N([H])[H])c(C([H])([H])N([H])C([H])(C([H])([H])[H])C([H])([H])[H])n1C([H])([H])C([H])([H])O2)(C([H])([H])[H])C([H])([H])[H]
     RDKit          3D

 54 56  0  0  0  0  0  0  0  0999 V2000
   -6.5579    1.9437   -0.9297 C   0  0  0  0  0  0  0  0  0  0  0  0
   -5.7958    1.3288    0.2295 C   0  0  0  0  0  0  0  0  0  0  0  0
   -6.4324    0.0120    0.6146 C   0  0  0  0  0  0  0  0  0  0  0  0
   -4.4500    1.0004   -0.2762 N   0  0  0  0  0  0  0  0  0  0  0  0
   -3.6604    0.4733    0.7654 C   0  0  0  0  0  0  0  0  0  0  0  0
   -2.2490    0.1464    0.5169 C   0  0  0  0  0  0  0  0  0  0  0  0
   -1.4624   -0.4150    1.5547 C   0  0  0  0  0  0  0  0  0  0  0  0
   -0.2451   -0.6067    1.0532 N   0  0  0  0  0  0  0  0  0  0  0  0
   -0.2350   -0.2053   -0.2026 C   0  0  0  0  0  0  0  0  0  0  0  0
    0.9307   -0.2741   -1.0871 C   0  0  0  0  0  0  0  0  0  0  0  0
    2.1205   -0.3414   -0.3568 C   0  0  0  0  0  0  0  0  0  0  0  0
    3.3240   -0.4142   -1.0147 C   0  0  0  0  0  0  0  0  0  0  0  0
    3.3263   -0.4191   -2.4182 C   0  0  0  0  0  0  0  0  0  0  0  0
    2.1577   -0.3533   -3.1470 C   0  0  0  0  0  0  0  0  0  0  0  0
    0.9623   -0.2809   -2.4657 C   0  0  0  0  0  0  0  0  0  0  0  0
   -0.1616   -0.2190   -3.3147 O   0  0  0  0  0  0  0  0  0  0  0  0
   -1.5401   -0.2097   -2.9592 C   0  0  0  0  0  0  0  0  0  0  0  0
   -1.7895    0.8140   -1.8479 C   0  0  0  0  0  0  0  0  0  0  0  0
   -1.4829    0.2721   -0.5566 N   0  0  0  0  0  0  0  0  0  0  0  0
    4.5439   -0.4831   -0.2615 C   0  0  0  0  0  0  0  0  0  0  0  0
    5.5768   -0.5265    0.3581 C   0  0  0  0  0  0  0  0  0  0  0  0
    6.8530   -0.5588    1.1065 C   0  0  0  0  0  0  0  0  0  0  0  0
    6.8373   -1.5846    2.2011 C   0  0  0  0  0  0  0  0  0  0  0  0
    6.9889    0.8023    1.7561 C   0  0  0  0  0  0  0  0  0  0  0  0
    7.9348   -0.7668    0.2629 O   0  0  0  0  0  0  0  0  0  0  0  0
   -1.9082   -0.7123    2.9221 C   0  0  0  0  0  0  0  0  0  0  0  0
   -1.0071   -1.3057    3.8399 N   0  0  0  0  0  0  0  0  0  0  0  0
   -3.0619   -0.4511    3.2836 O   0  0  0  0  0  0  0  0  0  0  0  0
   -5.9814    2.8368   -1.3004 H   0  0  0  0  0  0  0  0  0  0  0  0
   -6.7608    1.2254   -1.7267 H   0  0  0  0  0  0  0  0  0  0  0  0
   -7.5220    2.3560   -0.5695 H   0  0  0  0  0  0  0  0  0  0  0  0
   -5.6761    2.0132    1.0659 H   0  0  0  0  0  0  0  0  0  0  0  0
   -7.5298    0.0851    0.4052 H   0  0  0  0  0  0  0  0  0  0  0  0
   -6.3480   -0.0808    1.7180 H   0  0  0  0  0  0  0  0  0  0  0  0
   -5.9665   -0.8095    0.0638 H   0  0  0  0  0  0  0  0  0  0  0  0
   -4.6454    0.2869   -1.0468 H   0  0  0  0  0  0  0  0  0  0  0  0
   -4.2022   -0.4233    1.1842 H   0  0  0  0  0  0  0  0  0  0  0  0
   -3.7127    1.2187    1.6187 H   0  0  0  0  0  0  0  0  0  0  0  0
    2.1172   -0.3394    0.7177 H   0  0  0  0  0  0  0  0  0  0  0  0
    4.2931   -0.4774   -2.8967 H   0  0  0  0  0  0  0  0  0  0  0  0
    2.2053   -0.3597   -4.2048 H   0  0  0  0  0  0  0  0  0  0  0  0
   -1.9344   -1.1802   -2.6661 H   0  0  0  0  0  0  0  0  0  0  0  0
   -2.0964    0.1544   -3.8434 H   0  0  0  0  0  0  0  0  0  0  0  0
   -1.0142    1.6402   -2.0704 H   0  0  0  0  0  0  0  0  0  0  0  0
   -2.7825    1.1927   -1.9655 H   0  0  0  0  0  0  0  0  0  0  0  0
    6.6791   -1.1311    3.2022 H   0  0  0  0  0  0  0  0  0  0  0  0
    7.8431   -2.0781    2.2538 H   0  0  0  0  0  0  0  0  0  0  0  0
    6.1147   -2.3963    1.9938 H   0  0  0  0  0  0  0  0  0  0  0  0
    6.6469    0.7709    2.8071 H   0  0  0  0  0  0  0  0  0  0  0  0
    8.0689    1.0682    1.7804 H   0  0  0  0  0  0  0  0  0  0  0  0
    6.4517    1.5902    1.1927 H   0  0  0  0  0  0  0  0  0  0  0  0
    7.5992   -0.6895   -0.6786 H   0  0  0  0  0  0  0  0  0  0  0  0
   -0.3273   -0.7950    4.4245 H   0  0  0  0  0  0  0  0  0  0  0  0
   -1.0364   -2.3439    3.9291 H   0  0  0  0  0  0  0  0  0  0  0  0
  1  2  1  0
  2  3  1  0
  2  4  1  0
  4  5  1  0
  5  6  1  0
  6  7  2  0
  7  8  1  0
  8  9  2  0
  9 10  1  0
 10 11  2  0
 11 12  1  0
 12 13  2  0
 13 14  1  0
 14 15  2  0
 15 16  1  0
 16 17  1  0
 17 18  1  0
 18 19  1  0
 12 20  1  0
 20 21  3  0
 21 22  1  0
 22 23  1  0
 22 24  1  0
 22 25  1  0
  7 26  1  0
 26 27  1  0
 26 28  2  0
 19  6  1  0
 19  9  1  0
 15 10  1  0
  1 29  1  0
  1 30  1  0
  1 31  1  0
  2 32  1  0
  3 33  1  0
  3 34  1  0
  3 35  1  0
  4 36  1  0
  5 37  1  0
  5 38  1  0
 11 39  1  0
 13 40  1  0
 14 41  1  0
 17 42  1  0
 17 43  1  0
 18 44  1  0
 18 45  1  0
 23 46  1  0
 23 47  1  0
 23 48  1  0
 24 49  1  0
 24 50  1  0
 24 51  1  0
 25 52  1  0
 27 53  1  0
 27 54  1  0
M  END
$$$$
[H]O[C@]1(C#Cc2c([H])c([H])c3c(c2[H])-c2nc(C(=O)N([H])[H])sc2[C@](F)(C([H])([H])F)C([H])([H])O3)C(=O)N(C([H])([H])[H])C([H])([H])C1([H])[H]
     RDKit          3D

 47 50  0  0  0  0  0  0  0  0999 V2000
    4.8286    2.3407   -0.0879 C   0  0  0  0  0  0  0  0  0  0  0  0
    4.8729    0.9019    0.0202 N   0  0  0  0  0  0  0  0  0  0  0  0
    5.1763    0.1635    1.2239 C   0  0  0  0  0  0  0  0  0  0  0  0
    5.1282   -1.2842    0.8439 C   0  0  0  0  0  0  0  0  0  0  0  0
    4.3921   -1.3595   -0.4738 C   0  0  1  0  0  0  0  0  0  0  0  0
    4.9305   -2.3315   -1.3134 O   0  0  0  0  0  0  0  0  0  0  0  0
    2.9586   -1.5318   -0.2873 C   0  0  0  0  0  0  0  0  0  0  0  0
    1.7548   -1.6819   -0.1512 C   0  0  0  0  0  0  0  0  0  0  0  0
    0.3366   -1.8583   -0.0160 C   0  0  0  0  0  0  0  0  0  0  0  0
   -0.2276   -3.0865    0.3259 C   0  0  0  0  0  0  0  0  0  0  0  0
   -1.5981   -3.1726    0.4357 C   0  0  0  0  0  0  0  0  0  0  0  0
   -2.4046   -2.0696    0.2133 C   0  0  0  0  0  0  0  0  0  0  0  0
   -3.7583   -2.3433    0.3688 O   0  0  0  0  0  0  0  0  0  0  0  0
   -4.8832   -1.5711    0.0470 C   0  0  0  0  0  0  0  0  0  0  0  0
   -4.8591   -0.1883    0.6306 C   0  0  1  0  0  0  0  0  0  0  0  0
   -6.1015    0.3833    0.4479 F   0  0  0  0  0  0  0  0  0  0  0  0
   -4.5940   -0.2709    2.1137 C   0  0  0  0  0  0  0  0  0  0  0  0
   -5.6183   -1.0153    2.6665 F   0  0  0  0  0  0  0  0  0  0  0  0
   -3.8446    0.6804   -0.0539 C   0  0  0  0  0  0  0  0  0  0  0  0
   -4.0682    2.2798   -0.6068 S   0  0  0  0  0  0  0  0  0  0  0  0
   -2.4931    2.5528   -1.2470 C   0  0  0  0  0  0  0  0  0  0  0  0
   -1.8952    1.3988   -0.9957 N   0  0  0  0  0  0  0  0  0  0  0  0
   -2.5369    0.4467   -0.4045 C   0  0  0  0  0  0  0  0  0  0  0  0
   -1.8590   -0.8511   -0.1249 C   0  0  0  0  0  0  0  0  0  0  0  0
   -0.4864   -0.7824   -0.2305 C   0  0  0  0  0  0  0  0  0  0  0  0
   -1.9571    3.7558   -1.9013 C   0  0  0  0  0  0  0  0  0  0  0  0
   -2.7763    4.8876   -2.0696 N   0  0  0  0  0  0  0  0  0  0  0  0
   -0.7949    3.7489   -2.2914 O   0  0  0  0  0  0  0  0  0  0  0  0
    4.6241   -0.0071   -1.0443 C   0  0  0  0  0  0  0  0  0  0  0  0
    4.5995    0.2686   -2.2797 O   0  0  0  0  0  0  0  0  0  0  0  0
    3.8089    2.7135   -0.3104 H   0  0  0  0  0  0  0  0  0  0  0  0
    5.4864    2.6750   -0.9149 H   0  0  0  0  0  0  0  0  0  0  0  0
    5.1750    2.8141    0.8481 H   0  0  0  0  0  0  0  0  0  0  0  0
    4.4070    0.4282    1.9863 H   0  0  0  0  0  0  0  0  0  0  0  0
    6.1704    0.4711    1.6147 H   0  0  0  0  0  0  0  0  0  0  0  0
    6.1698   -1.6799    0.7484 H   0  0  0  0  0  0  0  0  0  0  0  0
    4.5446   -1.8439    1.6150 H   0  0  0  0  0  0  0  0  0  0  0  0
    4.3589   -3.1430   -1.3741 H   0  0  0  0  0  0  0  0  0  0  0  0
    0.4228   -3.9152    0.4900 H   0  0  0  0  0  0  0  0  0  0  0  0
   -2.0480   -4.1154    0.6992 H   0  0  0  0  0  0  0  0  0  0  0  0
   -5.0621   -1.5012   -1.0465 H   0  0  0  0  0  0  0  0  0  0  0  0
   -5.7759   -2.0864    0.4659 H   0  0  0  0  0  0  0  0  0  0  0  0
   -4.6481    0.7392    2.5639 H   0  0  0  0  0  0  0  0  0  0  0  0
   -3.6359   -0.7895    2.3254 H   0  0  0  0  0  0  0  0  0  0  0  0
   -0.0647    0.1880   -0.4990 H   0  0  0  0  0  0  0  0  0  0  0  0
   -3.5370    4.9248   -2.7755 H   0  0  0  0  0  0  0  0  0  0  0  0
   -2.6181    5.7175   -1.4687 H   0  0  0  0  0  0  0  0  0  0  0  0
  1  2  1  0
  2  3  1  0
  3  4  1  0
  4  5  1  0
  5  6  1  0
  5  7  1  1
  7  8  3  0
  8  9  1  0
  9 10  2  0
 10 11  1  0
 11 12  2  0
 12 13  1  0
 13 14  1  0
 14 15  1  0
 15 16  1  1
 15 17  1  0
 17 18  1  0
 15 19  1  0
 19 20  1  0
 20 21  1  0
 21 22  2  0
 22 23  1  0
 23 24  1  0
 24 25  2  0
 21 26  1  0
 26 27  1  0
 26 28  2  0
  5 29  1  0
 29 30  2  0
 29  2  1  0
 25  9  1  0
 24 12  1  0
 23 19  2  0
  1 31  1  0
  1 32  1  0
  1 33  1  0
  3 34  1  0
  3 35  1  0
  4 36  1  0
  4 37  1  0
  6 38  1  0
 10 39  1  0
 11 40  1  0
 14 41  1  0
 14 42  1  0
 17 43  1  0
 17 44  1  0
 25 45  1  0
 27 46  1  0
 27 47  1  0
M  END
$$$$
[H]O[C@](C#Cc1c([H])c([H])c2c(c1[H])-c1nc(C(=O)N([H])[H])c(C(=O)N(C([H])([H])[H])C([H])([H])[H])n1C1([H])C([H])([H])C2([H])C1([H])[H])(c1noc(C([H])([H])[H])c1[H])C([H])([H])[H]
     RDKit          3D

 59 63  0  0  0  0  0  0  0  0999 V2000
   -6.8865    0.6102    1.1571 C   0  0  0  0  0  0  0  0  0  0  0  0
   -6.5148   -0.2148    0.0393 N   0  0  0  0  0  0  0  0  0  0  0  0
   -7.7367   -0.6135   -0.8008 C   0  0  0  0  0  0  0  0  0  0  0  0
   -5.3298   -0.7004   -0.4463 C   0  0  0  0  0  0  0  0  0  0  0  0
   -5.5938   -1.5281   -1.4928 O   0  0  0  0  0  0  0  0  0  0  0  0
   -3.9123   -0.6214   -0.1972 C   0  0  0  0  0  0  0  0  0  0  0  0
   -3.0289   -1.6214   -0.6304 C   0  0  0  0  0  0  0  0  0  0  0  0
   -1.7891   -1.1729   -0.4032 N   0  0  0  0  0  0  0  0  0  0  0  0
   -1.8081    0.0384    0.1505 C   0  0  0  0  0  0  0  0  0  0  0  0
   -0.6481    0.8449    0.5626 C   0  0  0  0  0  0  0  0  0  0  0  0
    0.5681    0.3130    0.1643 C   0  0  0  0  0  0  0  0  0  0  0  0
    1.7587    0.9081    0.4732 C   0  0  0  0  0  0  0  0  0  0  0  0
    1.6566    2.0986    1.2344 C   0  0  0  0  0  0  0  0  0  0  0  0
    0.4797    2.6529    1.6474 C   0  0  0  0  0  0  0  0  0  0  0  0
   -0.6677    2.0163    1.2998 C   0  0  0  0  0  0  0  0  0  0  0  0
   -1.9196    2.7776    1.6399 C   0  0  0  0  0  0  0  0  0  0  0  0
   -2.9911    1.8979    2.1876 C   0  0  0  0  0  0  0  0  0  0  0  0
   -3.5890    1.6349    0.7833 C   0  0  0  0  0  0  0  0  0  0  0  0
   -2.7403    2.8431    0.3230 C   0  0  0  0  0  0  0  0  0  0  0  0
   -3.1221    0.3789    0.2752 N   0  0  0  0  0  0  0  0  0  0  0  0
    3.0474    0.5139   -0.0038 C   0  0  0  0  0  0  0  0  0  0  0  0
    4.1449    0.2811   -0.4377 C   0  0  0  0  0  0  0  0  0  0  0  0
    5.4593    0.1206   -0.9952 C   0  0  1  0  0  0  0  0  0  0  0  0
    5.3893    0.0502   -2.5259 C   0  0  0  0  0  0  0  0  0  0  0  0
    6.2045    1.3443   -0.7761 O   0  0  0  0  0  0  0  0  0  0  0  0
    6.2728   -0.9736   -0.4933 C   0  0  0  0  0  0  0  0  0  0  0  0
    7.6087   -0.8974   -0.0389 C   0  0  0  0  0  0  0  0  0  0  0  0
    8.0442   -2.1622    0.2751 C   0  0  0  0  0  0  0  0  0  0  0  0
    9.4072   -2.5177    0.7930 C   0  0  0  0  0  0  0  0  0  0  0  0
    7.0354   -2.9342    0.0299 O   0  0  0  0  0  0  0  0  0  0  0  0
    5.9889   -2.3094   -0.4098 N   0  0  0  0  0  0  0  0  0  0  0  0
   -3.3509   -2.9881   -1.0698 C   0  0  0  0  0  0  0  0  0  0  0  0
   -2.6120   -3.7335   -1.9935 N   0  0  0  0  0  0  0  0  0  0  0  0
   -4.3910   -3.5362   -0.5763 O   0  0  0  0  0  0  0  0  0  0  0  0
   -7.9368    0.3787    1.5056 H   0  0  0  0  0  0  0  0  0  0  0  0
   -6.9334    1.6622    0.7724 H   0  0  0  0  0  0  0  0  0  0  0  0
   -6.1669    0.5044    1.9624 H   0  0  0  0  0  0  0  0  0  0  0  0
   -8.6161   -0.5693   -0.1590 H   0  0  0  0  0  0  0  0  0  0  0  0
   -7.7774    0.1230   -1.6148 H   0  0  0  0  0  0  0  0  0  0  0  0
   -7.5569   -1.6428   -1.1274 H   0  0  0  0  0  0  0  0  0  0  0  0
    0.6061   -0.6010   -0.4086 H   0  0  0  0  0  0  0  0  0  0  0  0
    2.6089    2.5745    1.5077 H   0  0  0  0  0  0  0  0  0  0  0  0
    0.4307    3.5595    2.2163 H   0  0  0  0  0  0  0  0  0  0  0  0
   -1.7263    3.7544    2.0799 H   0  0  0  0  0  0  0  0  0  0  0  0
   -2.6723    0.9145    2.6005 H   0  0  0  0  0  0  0  0  0  0  0  0
   -3.7855    2.4079    2.7637 H   0  0  0  0  0  0  0  0  0  0  0  0
   -4.6321    1.8457    0.6484 H   0  0  0  0  0  0  0  0  0  0  0  0
   -3.3065    3.7503    0.2134 H   0  0  0  0  0  0  0  0  0  0  0  0
   -2.0685    2.6292   -0.5178 H   0  0  0  0  0  0  0  0  0  0  0  0
    6.0424   -0.7967   -2.8663 H   0  0  0  0  0  0  0  0  0  0  0  0
    5.8390    0.9555   -2.9976 H   0  0  0  0  0  0  0  0  0  0  0  0
    4.3774   -0.0943   -2.8777 H   0  0  0  0  0  0  0  0  0  0  0  0
    5.9661    1.5994    0.1459 H   0  0  0  0  0  0  0  0  0  0  0  0
    8.1386    0.0378    0.0167 H   0  0  0  0  0  0  0  0  0  0  0  0
    9.4214   -3.3740    1.4668 H   0  0  0  0  0  0  0  0  0  0  0  0
    9.8755   -1.6422    1.3036 H   0  0  0  0  0  0  0  0  0  0  0  0
   10.1158   -2.7415   -0.0774 H   0  0  0  0  0  0  0  0  0  0  0  0
   -1.6026   -3.9020   -1.8505 H   0  0  0  0  0  0  0  0  0  0  0  0
   -3.0744   -4.1329   -2.8391 H   0  0  0  0  0  0  0  0  0  0  0  0
  1  2  1  0
  2  3  1  0
  2  4  1  0
  4  5  2  0
  4  6  1  0
  6  7  2  0
  7  8  1  0
  8  9  2  0
  9 10  1  0
 10 11  2  0
 11 12  1  0
 12 13  2  0
 13 14  1  0
 14 15  2  0
 15 16  1  0
 16 17  1  0
 17 18  1  0
 18 19  1  0
 18 20  1  0
 12 21  1  0
 21 22  3  0
 23 22  1  1
 23 24  1  0
 23 25  1  0
 23 26  1  0
 26 27  1  0
 27 28  2  0
 28 29  1  0
 28 30  1  0
 30 31  1  0
  7 32  1  0
 32 33  1  0
 32 34  2  0
 20  6  1  0
 31 26  2  0
 20  9  1  0
 15 10  1  0
 19 16  1  0
  1 35  1  0
  1 36  1  0
  1 37  1  0
  3 38  1  0
  3 39  1  0
  3 40  1  0
 11 41  1  0
 13 42  1  0
 14 43  1  0
 16 44  1  0
 17 45  1  0
 17 46  1  0
 18 47  1  0
 19 48  1  0
 19 49  1  0
 24 50  1  0
 24 51  1  0
 24 52  1  0
 25 53  1  0
 27 54  1  0
 29 55  1  0
 29 56  1  0
 29 57  1  0
 33 58  1  0
 33 59  1  0
M  END
$$$$
[H]O[C@](C#Cc1c([H])c2c(c([H])c1F)OC([H])([H])C([H])([H])c1sc(C(=O)N([H])[H])nc1-2)(c1noc(C([H])([H])[H])n1)C([H])([H])[H]
     RDKit          3D

 44 47  0  0  0  0  0  0  0  0999 V2000
    7.3395    0.4785    2.8748 C   0  0  0  0  0  0  0  0  0  0  0  0
    6.0325    0.1400    2.2110 C   0  0  0  0  0  0  0  0  0  0  0  0
    5.8008    0.2013    0.8874 N   0  0  0  0  0  0  0  0  0  0  0  0
    4.4867   -0.1799    0.6459 C   0  0  0  0  0  0  0  0  0  0  0  0
    3.9820   -0.4453    1.8228 N   0  0  0  0  0  0  0  0  0  0  0  0
    4.8979   -0.2606    2.7707 O   0  0  0  0  0  0  0  0  0  0  0  0
    3.9790   -0.2465   -0.7012 C   0  0  2  0  0  0  0  0  0  0  0  0
    4.5662   -1.4879   -1.4067 C   0  0  0  0  0  0  0  0  0  0  0  0
    4.5571    0.8374   -1.4890 O   0  0  0  0  0  0  0  0  0  0  0  0
    2.5554   -0.1691   -0.8259 C   0  0  0  0  0  0  0  0  0  0  0  0
    1.3500   -0.0983   -1.0317 C   0  0  0  0  0  0  0  0  0  0  0  0
   -0.0474    0.0061   -1.3880 C   0  0  0  0  0  0  0  0  0  0  0  0
   -1.0769    0.0866   -0.4883 C   0  0  0  0  0  0  0  0  0  0  0  0
   -2.3802    0.2165   -0.9180 C   0  0  0  0  0  0  0  0  0  0  0  0
   -3.3784    0.1974    0.1908 C   0  0  0  0  0  0  0  0  0  0  0  0
   -3.0585   -0.3640    1.3254 N   0  0  0  0  0  0  0  0  0  0  0  0
   -3.9657   -0.5138    2.2677 C   0  0  0  0  0  0  0  0  0  0  0  0
   -5.3693    0.1786    1.5281 S   0  0  0  0  0  0  0  0  0  0  0  0
   -4.6667    0.6236    0.0177 C   0  0  0  0  0  0  0  0  0  0  0  0
   -5.4806    1.3084   -1.0170 C   0  0  0  0  0  0  0  0  0  0  0  0
   -5.0093    1.3509   -2.3910 C   0  0  0  0  0  0  0  0  0  0  0  0
   -4.0131    0.4083   -2.7752 O   0  0  0  0  0  0  0  0  0  0  0  0
   -2.7011    0.2688   -2.2821 C   0  0  0  0  0  0  0  0  0  0  0  0
   -1.7040    0.1853   -3.1824 C   0  0  0  0  0  0  0  0  0  0  0  0
   -0.3997    0.0588   -2.7432 C   0  0  0  0  0  0  0  0  0  0  0  0
    0.6368   -0.0322   -3.6374 F   0  0  0  0  0  0  0  0  0  0  0  0
   -3.8723   -1.0738    3.6373 C   0  0  0  0  0  0  0  0  0  0  0  0
   -5.0060   -1.7415    4.1351 N   0  0  0  0  0  0  0  0  0  0  0  0
   -2.8405   -0.9498    4.2788 O   0  0  0  0  0  0  0  0  0  0  0  0
    8.1320    0.4560    2.0665 H   0  0  0  0  0  0  0  0  0  0  0  0
    7.3203    1.5317    3.2038 H   0  0  0  0  0  0  0  0  0  0  0  0
    7.6298   -0.2204    3.6564 H   0  0  0  0  0  0  0  0  0  0  0  0
    4.0534   -1.6769   -2.3580 H   0  0  0  0  0  0  0  0  0  0  0  0
    4.4128   -2.3001   -0.6703 H   0  0  0  0  0  0  0  0  0  0  0  0
    5.6496   -1.3470   -1.5220 H   0  0  0  0  0  0  0  0  0  0  0  0
    3.8585    1.5206   -1.6852 H   0  0  0  0  0  0  0  0  0  0  0  0
   -0.8466    0.0435    0.5662 H   0  0  0  0  0  0  0  0  0  0  0  0
   -6.5425    0.9012   -1.0121 H   0  0  0  0  0  0  0  0  0  0  0  0
   -5.5593    2.3826   -0.6379 H   0  0  0  0  0  0  0  0  0  0  0  0
   -4.6083    2.3935   -2.6381 H   0  0  0  0  0  0  0  0  0  0  0  0
   -5.8829    1.1904   -3.0962 H   0  0  0  0  0  0  0  0  0  0  0  0
   -1.9341    0.2047   -4.2340 H   0  0  0  0  0  0  0  0  0  0  0  0
   -4.9866   -2.7768    4.3729 H   0  0  0  0  0  0  0  0  0  0  0  0
   -5.9106   -1.2870    4.3084 H   0  0  0  0  0  0  0  0  0  0  0  0
  1  2  1  0
  2  3  2  0
  3  4  1  0
  4  5  2  0
  5  6  1  0
  4  7  1  0
  7  8  1  0
  7  9  1  0
  7 10  1  1
 10 11  3  0
 11 12  1  0
 12 13  2  0
 13 14  1  0
 14 15  1  0
 15 16  1  0
 16 17  2  0
 17 18  1  0
 18 19  1  0
 19 20  1  0
 20 21  1  0
 21 22  1  0
 22 23  1  0
 23 24  1  0
 24 25  2  0
 25 26  1  0
 17 27  1  0
 27 28  1  0
 27 29  2  0
  6  2  1  0
 25 12  1  0
 23 14  2  0
 19 15  2  0
  1 30  1  0
  1 31  1  0
  1 32  1  0
  8 33  1  0
  8 34  1  0
  8 35  1  0
  9 36  1  0
 13 37  1  0
 20 38  1  0
 20 39  1  0
 21 40  1  0
 21 41  1  0
 24 42  1  0
 28 43  1  0
 28 44  1  0
M  END
$$$$
[H]OC(C#Cc1c([H])c2c(c([H])c1F)OC([H])([H])C([H])([H])n1c-2nc(C(=O)N([H])[H])c1[H])(c1nc([H])c([H])s1)C([H])([H])[H]
     RDKit          3D

 43 46  0  0  0  0  0  0  0  0999 V2000
    5.3313   -0.9348    1.0742 C   0  0  0  0  0  0  0  0  0  0  0  0
    4.3605    0.2766    1.0507 C   0  0  0  0  0  0  0  0  0  0  0  0
    4.5378    0.9172    2.2762 O   0  0  0  0  0  0  0  0  0  0  0  0
    3.0086   -0.1882    0.8305 C   0  0  0  0  0  0  0  0  0  0  0  0
    1.8754   -0.6388    0.6909 C   0  0  0  0  0  0  0  0  0  0  0  0
    0.5666   -1.2279    0.5773 C   0  0  0  0  0  0  0  0  0  0  0  0
   -0.5126   -0.4797    0.2113 C   0  0  0  0  0  0  0  0  0  0  0  0
   -1.7461   -1.1189    0.1528 C   0  0  0  0  0  0  0  0  0  0  0  0
   -2.7892   -0.1957   -0.2674 C   0  0  0  0  0  0  0  0  0  0  0  0
   -2.7289    1.1618   -0.1488 N   0  0  0  0  0  0  0  0  0  0  0  0
   -3.8962    1.6339   -0.6510 C   0  0  0  0  0  0  0  0  0  0  0  0
   -4.6540    0.5671   -1.0683 C   0  0  0  0  0  0  0  0  0  0  0  0
   -3.9633   -0.5712   -0.8307 N   0  0  0  0  0  0  0  0  0  0  0  0
   -4.4031   -1.8922   -1.1501 C   0  0  0  0  0  0  0  0  0  0  0  0
   -4.3626   -2.8995   -0.0557 C   0  0  0  0  0  0  0  0  0  0  0  0
   -3.0618   -3.1801    0.4268 O   0  0  0  0  0  0  0  0  0  0  0  0
   -1.8799   -2.4752    0.4560 C   0  0  0  0  0  0  0  0  0  0  0  0
   -0.7865   -3.2294    0.8239 C   0  0  0  0  0  0  0  0  0  0  0  0
    0.4192   -2.5982    0.8806 C   0  0  0  0  0  0  0  0  0  0  0  0
    1.5323   -3.2744    1.2312 F   0  0  0  0  0  0  0  0  0  0  0  0
   -4.3436    3.0167   -0.7755 C   0  0  0  0  0  0  0  0  0  0  0  0
   -3.4754    4.0584   -0.4091 N   0  0  0  0  0  0  0  0  0  0  0  0
   -5.5066    3.2753   -1.2140 O   0  0  0  0  0  0  0  0  0  0  0  0
    4.8079    1.1591   -0.0603 C   0  0  0  0  0  0  0  0  0  0  0  0
    5.3439    2.3809    0.0396 N   0  0  0  0  0  0  0  0  0  0  0  0
    5.7093    3.0125   -1.0190 C   0  0  0  0  0  0  0  0  0  0  0  0
    5.5314    2.3931   -2.2350 C   0  0  0  0  0  0  0  0  0  0  0  0
    4.8314    0.9106   -1.7534 S   0  0  0  0  0  0  0  0  0  0  0  0
    6.2400   -0.6400    1.6259 H   0  0  0  0  0  0  0  0  0  0  0  0
    5.5358   -1.2562    0.0390 H   0  0  0  0  0  0  0  0  0  0  0  0
    4.7523   -1.7427    1.5864 H   0  0  0  0  0  0  0  0  0  0  0  0
    4.1646    1.8398    2.1832 H   0  0  0  0  0  0  0  0  0  0  0  0
   -0.4179    0.5733   -0.0186 H   0  0  0  0  0  0  0  0  0  0  0  0
   -5.6385    0.5542   -1.5230 H   0  0  0  0  0  0  0  0  0  0  0  0
   -3.8335   -2.3269   -2.0218 H   0  0  0  0  0  0  0  0  0  0  0  0
   -5.4488   -1.8171   -1.5081 H   0  0  0  0  0  0  0  0  0  0  0  0
   -4.7300   -3.8799   -0.4996 H   0  0  0  0  0  0  0  0  0  0  0  0
   -5.0868   -2.6768    0.7794 H   0  0  0  0  0  0  0  0  0  0  0  0
   -0.8983   -4.2764    1.0535 H   0  0  0  0  0  0  0  0  0  0  0  0
   -3.8962    5.0060   -0.2024 H   0  0  0  0  0  0  0  0  0  0  0  0
   -2.4422    3.9658   -0.3276 H   0  0  0  0  0  0  0  0  0  0  0  0
    6.1614    4.0240   -0.9949 H   0  0  0  0  0  0  0  0  0  0  0  0
    5.7923    2.7939   -3.2276 H   0  0  0  0  0  0  0  0  0  0  0  0
  1  2  1  0
  2  3  1  0
  2  4  1  0
  4  5  3  0
  5  6  1  0
  6  7  2  0
  7  8  1  0
  8  9  1  0
  9 10  2  0
 10 11  1  0
 11 12  2  0
 12 13  1  0
 13 14  1  0
 14 15  1  0
 15 16  1  0
 16 17  1  0
 17 18  1  0
 18 19  2  0
 19 20  1  0
 11 21  1  0
 21 22  1  0
 21 23  2  0
  2 24  1  0
 24 25  2  0
 25 26  1  0
 26 27  2  0
 27 28  1  0
 19  6  1  0
 28 24  1  0
 17  8  2  0
 13  9  1  0
  1 29  1  0
  1 30  1  0
  1 31  1  0
  3 32  1  0
  7 33  1  0
 12 34  1  0
 14 35  1  0
 14 36  1  0
 15 37  1  0
 15 38  1  0
 18 39  1  0
 22 40  1  0
 22 41  1  0
 26 42  1  0
 27 43  1  0
M  END
$$$$
[H]OC(C#Cc1c([H])c([H])c2c(c1[H])-c1nc(C(=O)N([H])[H])c(C([H])([H])n3c(C([H])([H])[H])nc4c([H])c([H])c([H])c([H])c43)n1C([H])([H])C([H])([H])O2)(C([H])([H])[H])C([H])([H])[H]
     RDKit          3D

 59 63  0  0  0  0  0  0  0  0999 V2000
   -3.7752    2.3002   -2.2514 C   0  0  0  0  0  0  0  0  0  0  0  0
   -4.5169    1.3040   -1.4632 C   0  0  0  0  0  0  0  0  0  0  0  0
   -5.6745    0.7028   -1.8929 N   0  0  0  0  0  0  0  0  0  0  0  0
   -6.0891   -0.1479   -0.9799 C   0  0  0  0  0  0  0  0  0  0  0  0
   -7.2155   -0.9850   -0.9120 C   0  0  0  0  0  0  0  0  0  0  0  0
   -7.4189   -1.7548    0.2041 C   0  0  0  0  0  0  0  0  0  0  0  0
   -6.5368   -1.7258    1.2646 C   0  0  0  0  0  0  0  0  0  0  0  0
   -5.4545   -0.8908    1.1358 C   0  0  0  0  0  0  0  0  0  0  0  0
   -5.1949   -0.0937    0.0398 C   0  0  0  0  0  0  0  0  0  0  0  0
   -4.2002    0.8272   -0.2721 N   0  0  0  0  0  0  0  0  0  0  0  0
   -3.2024    1.1643    0.6814 C   0  0  0  0  0  0  0  0  0  0  0  0
   -1.8021    0.8637    0.4824 C   0  0  0  0  0  0  0  0  0  0  0  0
   -0.8360    1.7635    0.0770 C   0  0  0  0  0  0  0  0  0  0  0  0
    0.3568    1.1248   -0.1108 N   0  0  0  0  0  0  0  0  0  0  0  0
    0.1421   -0.1520    0.1756 C   0  0  0  0  0  0  0  0  0  0  0  0
    1.2026   -1.1677    0.0819 C   0  0  0  0  0  0  0  0  0  0  0  0
    2.4578   -0.5700    0.0430 C   0  0  0  0  0  0  0  0  0  0  0  0
    3.6251   -1.3042   -0.0357 C   0  0  0  0  0  0  0  0  0  0  0  0
    3.4818   -2.6690   -0.0732 C   0  0  0  0  0  0  0  0  0  0  0  0
    2.2456   -3.3019   -0.0374 C   0  0  0  0  0  0  0  0  0  0  0  0
    1.1035   -2.5420    0.0407 C   0  0  0  0  0  0  0  0  0  0  0  0
   -0.0964   -3.2513    0.0735 O   0  0  0  0  0  0  0  0  0  0  0  0
   -1.3971   -2.6730   -0.1477 C   0  0  0  0  0  0  0  0  0  0  0  0
   -1.6623   -1.6174    0.9217 C   0  0  0  0  0  0  0  0  0  0  0  0
   -1.1659   -0.3182    0.5396 N   0  0  0  0  0  0  0  0  0  0  0  0
    4.9118   -0.6464   -0.0597 C   0  0  0  0  0  0  0  0  0  0  0  0
    5.9718   -0.0745   -0.0690 C   0  0  0  0  0  0  0  0  0  0  0  0
    7.2469    0.6387   -0.0461 C   0  0  0  0  0  0  0  0  0  0  0  0
    8.3382   -0.3990    0.0966 C   0  0  0  0  0  0  0  0  0  0  0  0
    7.3507    1.5478    1.1797 C   0  0  0  0  0  0  0  0  0  0  0  0
    7.4113    1.4035   -1.2092 O   0  0  0  0  0  0  0  0  0  0  0  0
   -0.9078    3.2088   -0.0612 C   0  0  0  0  0  0  0  0  0  0  0  0
    0.2551    3.9283   -0.5972 N   0  0  0  0  0  0  0  0  0  0  0  0
   -1.8528    3.9595    0.2251 O   0  0  0  0  0  0  0  0  0  0  0  0
   -3.9828    3.3563   -1.9782 H   0  0  0  0  0  0  0  0  0  0  0  0
   -2.6976    2.0659   -2.3532 H   0  0  0  0  0  0  0  0  0  0  0  0
   -4.1384    2.2200   -3.3216 H   0  0  0  0  0  0  0  0  0  0  0  0
   -7.9071   -1.0188   -1.7304 H   0  0  0  0  0  0  0  0  0  0  0  0
   -8.2782   -2.4335    0.3159 H   0  0  0  0  0  0  0  0  0  0  0  0
   -6.6827   -2.3335    2.1679 H   0  0  0  0  0  0  0  0  0  0  0  0
   -4.7483   -0.8488    1.9578 H   0  0  0  0  0  0  0  0  0  0  0  0
   -3.5234    0.7324    1.6940 H   0  0  0  0  0  0  0  0  0  0  0  0
   -3.3503    2.2788    0.9253 H   0  0  0  0  0  0  0  0  0  0  0  0
    2.5242    0.5094    0.0762 H   0  0  0  0  0  0  0  0  0  0  0  0
    4.3857   -3.2619   -0.1416 H   0  0  0  0  0  0  0  0  0  0  0  0
    2.1384   -4.3802   -0.0796 H   0  0  0  0  0  0  0  0  0  0  0  0
   -1.3977   -2.1542   -1.1270 H   0  0  0  0  0  0  0  0  0  0  0  0
   -2.1766   -3.4389   -0.0639 H   0  0  0  0  0  0  0  0  0  0  0  0
   -0.9652   -1.9306    1.7793 H   0  0  0  0  0  0  0  0  0  0  0  0
   -2.6432   -1.6673    1.3258 H   0  0  0  0  0  0  0  0  0  0  0  0
    9.1474   -0.0517    0.7817 H   0  0  0  0  0  0  0  0  0  0  0  0
    8.7175   -0.5953   -0.9333 H   0  0  0  0  0  0  0  0  0  0  0  0
    7.9043   -1.3099    0.5824 H   0  0  0  0  0  0  0  0  0  0  0  0
    6.9822    0.9730    2.0439 H   0  0  0  0  0  0  0  0  0  0  0  0
    6.7116    2.4478    1.0931 H   0  0  0  0  0  0  0  0  0  0  0  0
    8.4157    1.7404    1.3359 H   0  0  0  0  0  0  0  0  0  0  0  0
    7.0938    2.3238   -1.0518 H   0  0  0  0  0  0  0  0  0  0  0  0
    0.1782    4.8244   -1.0919 H   0  0  0  0  0  0  0  0  0  0  0  0
    1.1910    3.5000   -0.4613 H   0  0  0  0  0  0  0  0  0  0  0  0
  1  2  1  0
  2  3  2  0
  3  4  1  0
  4  5  2  0
  5  6  1  0
  6  7  2  0
  7  8  1  0
  8  9  2  0
  9 10  1  0
 10 11  1  0
 11 12  1  0
 12 13  2  0
 13 14  1  0
 14 15  2  0
 15 16  1  0
 16 17  2  0
 17 18  1  0
 18 19  2  0
 19 20  1  0
 20 21  2  0
 21 22  1  0
 22 23  1  0
 23 24  1  0
 24 25  1  0
 18 26  1  0
 26 27  3  0
 27 28  1  0
 28 29  1  0
 28 30  1  0
 28 31  1  0
 13 32  1  0
 32 33  1  0
 32 34  2  0
 10  2  1  0
 25 12  1  0
  9  4  1  0
 25 15  1  0
 21 16  1  0
  1 35  1  0
  1 36  1  0
  1 37  1  0
  5 38  1  0
  6 39  1  0
  7 40  1  0
  8 41  1  0
 11 42  1  0
 11 43  1  0
 17 44  1  0
 19 45  1  0
 20 46  1  0
 23 47  1  0
 23 48  1  0
 24 49  1  0
 24 50  1  0
 29 51  1  0
 29 52  1  0
 29 53  1  0
 30 54  1  0
 30 55  1  0
 30 56  1  0
 31 57  1  0
 33 58  1  0
 33 59  1  0
M  END
$$$$
[H]O[C@](C#Cc1c([H])c([H])c2c(c1[H])-c1nc(C(=O)N([H])[H])sc1C(F)(F)C([H])([H])O2)(C([H])([H])[H])C([H])([H])OC([H])([H])[H]
     RDKit          3D

 43 45  0  0  0  0  0  0  0  0999 V2000
    6.6547    0.7622   -0.8573 C   0  0  0  0  0  0  0  0  0  0  0  0
    5.5203    0.8705   -1.5888 O   0  0  0  0  0  0  0  0  0  0  0  0
    4.4455    0.1686   -1.2339 C   0  0  0  0  0  0  0  0  0  0  0  0
    3.8920    0.4577    0.1300 C   0  0  1  0  0  0  0  0  0  0  0  0
    4.6591   -0.1206    1.2700 C   0  0  0  0  0  0  0  0  0  0  0  0
    3.6291    1.8321    0.2361 O   0  0  0  0  0  0  0  0  0  0  0  0
    2.5063   -0.1668    0.2057 C   0  0  0  0  0  0  0  0  0  0  0  0
    1.4134   -0.6641    0.2449 C   0  0  0  0  0  0  0  0  0  0  0  0
    0.1076   -1.2469    0.2687 C   0  0  0  0  0  0  0  0  0  0  0  0
   -0.1218   -2.6154    0.4136 C   0  0  0  0  0  0  0  0  0  0  0  0
   -1.3883   -3.1376    0.4319 C   0  0  0  0  0  0  0  0  0  0  0  0
   -2.4393   -2.2755    0.3030 C   0  0  0  0  0  0  0  0  0  0  0  0
   -3.6380   -2.9719    0.3429 O   0  0  0  0  0  0  0  0  0  0  0  0
   -4.8895   -2.5528   -0.2023 C   0  0  0  0  0  0  0  0  0  0  0  0
   -5.4336   -1.3248    0.4859 C   0  0  0  0  0  0  0  0  0  0  0  0
   -6.7103   -1.1256    0.0369 F   0  0  0  0  0  0  0  0  0  0  0  0
   -5.4901   -1.5596    1.8443 F   0  0  0  0  0  0  0  0  0  0  0  0
   -4.6499   -0.1041    0.1628 C   0  0  0  0  0  0  0  0  0  0  0  0
   -5.3300    1.4344   -0.1174 S   0  0  0  0  0  0  0  0  0  0  0  0
   -3.8712    2.3121   -0.4182 C   0  0  0  0  0  0  0  0  0  0  0  0
   -2.9600    1.3610   -0.2824 N   0  0  0  0  0  0  0  0  0  0  0  0
   -3.3114    0.1535    0.0051 C   0  0  0  0  0  0  0  0  0  0  0  0
   -2.2850   -0.9127    0.1563 C   0  0  0  0  0  0  0  0  0  0  0  0
   -0.9915   -0.4329    0.1436 C   0  0  0  0  0  0  0  0  0  0  0  0
   -3.7016    3.7316   -0.7376 C   0  0  0  0  0  0  0  0  0  0  0  0
   -2.4203    4.2521   -0.9477 N   0  0  0  0  0  0  0  0  0  0  0  0
   -4.7151    4.4485   -0.8150 O   0  0  0  0  0  0  0  0  0  0  0  0
    7.4483    1.4087   -1.3896 H   0  0  0  0  0  0  0  0  0  0  0  0
    7.0933   -0.2420   -0.7622 H   0  0  0  0  0  0  0  0  0  0  0  0
    6.5406    1.2502    0.1597 H   0  0  0  0  0  0  0  0  0  0  0  0
    4.6654   -0.9482   -1.3005 H   0  0  0  0  0  0  0  0  0  0  0  0
    3.5763    0.2715   -1.9485 H   0  0  0  0  0  0  0  0  0  0  0  0
    3.9483   -0.7046    1.9250 H   0  0  0  0  0  0  0  0  0  0  0  0
    5.4357   -0.8180    0.8581 H   0  0  0  0  0  0  0  0  0  0  0  0
    5.1075    0.6735    1.9197 H   0  0  0  0  0  0  0  0  0  0  0  0
    3.6533    2.2450   -0.6551 H   0  0  0  0  0  0  0  0  0  0  0  0
    0.7298   -3.2708    0.5132 H   0  0  0  0  0  0  0  0  0  0  0  0
   -1.5643   -4.1864    0.5430 H   0  0  0  0  0  0  0  0  0  0  0  0
   -4.8488   -2.4348   -1.2901 H   0  0  0  0  0  0  0  0  0  0  0  0
   -5.6028   -3.3780    0.0069 H   0  0  0  0  0  0  0  0  0  0  0  0
   -0.8518    0.6399    0.0287 H   0  0  0  0  0  0  0  0  0  0  0  0
   -1.6873    4.3065   -0.1805 H   0  0  0  0  0  0  0  0  0  0  0  0
   -2.1246    4.6149   -1.8815 H   0  0  0  0  0  0  0  0  0  0  0  0
  1  2  1  0
  2  3  1  0
  3  4  1  0
  4  5  1  0
  4  6  1  0
  4  7  1  6
  7  8  3  0
  8  9  1  0
  9 10  2  0
 10 11  1  0
 11 12  2  0
 12 13  1  0
 13 14  1  0
 14 15  1  0
 15 16  1  0
 15 17  1  0
 15 18  1  0
 18 19  1  0
 19 20  1  0
 20 21  2  0
 21 22  1  0
 22 23  1  0
 23 24  2  0
 20 25  1  0
 25 26  1  0
 25 27  2  0
 24  9  1  0
 23 12  1  0
 22 18  2  0
  1 28  1  0
  1 29  1  0
  1 30  1  0
  3 31  1  0
  3 32  1  0
  5 33  1  0
  5 34  1  0
  5 35  1  0
  6 36  1  0
 10 37  1  0
 11 38  1  0
 14 39  1  0
 14 40  1  0
 24 41  1  0
 26 42  1  0
 26 43  1  0
M  END
$$$$
[H]O[C@]1(C#Cc2c([H])c([H])c3c(c2[H])-c2nc(C(=O)N([H])[H])c(C(F)(F)F)n2C([H])([H])C([H])([H])O3)C(=O)N(C([H])([H])[H])C([H])([H])C1([H])[H]
     RDKit          3D

 48 51  0  0  0  0  0  0  0  0999 V2000
    7.7932    0.6315    0.8739 C   0  0  0  0  0  0  0  0  0  0  0  0
    6.5635    0.7096    0.1007 N   0  0  0  0  0  0  0  0  0  0  0  0
    6.4740    1.0317   -1.3017 C   0  0  0  0  0  0  0  0  0  0  0  0
    5.0477    0.6876   -1.6580 C   0  0  0  0  0  0  0  0  0  0  0  0
    4.3179    1.0131   -0.3650 C   0  0  1  0  0  0  0  0  0  0  0  0
    4.1158    2.3752   -0.2118 O   0  0  0  0  0  0  0  0  0  0  0  0
    3.0773    0.2469   -0.2330 C   0  0  0  0  0  0  0  0  0  0  0  0
    2.0517   -0.3742   -0.1061 C   0  0  0  0  0  0  0  0  0  0  0  0
    0.8289   -1.0856    0.0455 C   0  0  0  0  0  0  0  0  0  0  0  0
    0.8400   -2.4438    0.2543 C   0  0  0  0  0  0  0  0  0  0  0  0
   -0.3421   -3.1690    0.4061 C   0  0  0  0  0  0  0  0  0  0  0  0
   -1.5414   -2.5336    0.3489 C   0  0  0  0  0  0  0  0  0  0  0  0
   -2.6797   -3.3506    0.5116 O   0  0  0  0  0  0  0  0  0  0  0  0
   -3.8693   -3.1697   -0.2135 C   0  0  0  0  0  0  0  0  0  0  0  0
   -4.7059   -1.9833    0.1715 C   0  0  0  0  0  0  0  0  0  0  0  0
   -4.0651   -0.7002    0.1293 N   0  0  0  0  0  0  0  0  0  0  0  0
   -2.7752   -0.3300    0.0859 C   0  0  0  0  0  0  0  0  0  0  0  0
   -2.6887    0.9988    0.0186 N   0  0  0  0  0  0  0  0  0  0  0  0
   -3.9677    1.5091    0.0207 C   0  0  0  0  0  0  0  0  0  0  0  0
   -4.1741    2.9447   -0.0511 C   0  0  0  0  0  0  0  0  0  0  0  0
   -5.3684    3.6669   -0.1288 N   0  0  0  0  0  0  0  0  0  0  0  0
   -3.1213    3.7079   -0.0468 O   0  0  0  0  0  0  0  0  0  0  0  0
   -4.8221    0.4424    0.0926 C   0  0  0  0  0  0  0  0  0  0  0  0
   -6.2933    0.5706    0.1527 C   0  0  0  0  0  0  0  0  0  0  0  0
   -6.7972    1.1712   -0.9673 F   0  0  0  0  0  0  0  0  0  0  0  0
   -6.6603    1.3844    1.2558 F   0  0  0  0  0  0  0  0  0  0  0  0
   -6.9486   -0.6157    0.4348 F   0  0  0  0  0  0  0  0  0  0  0  0
   -1.5663   -1.1836    0.1428 C   0  0  0  0  0  0  0  0  0  0  0  0
   -0.4186   -0.4625   -0.0077 C   0  0  0  0  0  0  0  0  0  0  0  0
    5.2593    0.4714    0.6471 C   0  0  0  0  0  0  0  0  0  0  0  0
    5.0472   -0.0778    1.7422 O   0  0  0  0  0  0  0  0  0  0  0  0
    7.8504    1.5387    1.5376 H   0  0  0  0  0  0  0  0  0  0  0  0
    7.8752   -0.2958    1.4432 H   0  0  0  0  0  0  0  0  0  0  0  0
    8.6684    0.7082    0.2003 H   0  0  0  0  0  0  0  0  0  0  0  0
    7.2129    0.4896   -1.9259 H   0  0  0  0  0  0  0  0  0  0  0  0
    6.5706    2.1451   -1.4118 H   0  0  0  0  0  0  0  0  0  0  0  0
    4.6697    1.2748   -2.5092 H   0  0  0  0  0  0  0  0  0  0  0  0
    4.9856   -0.4015   -1.7949 H   0  0  0  0  0  0  0  0  0  0  0  0
    3.1877    2.5783   -0.4729 H   0  0  0  0  0  0  0  0  0  0  0  0
    1.7569   -3.0122    0.3107 H   0  0  0  0  0  0  0  0  0  0  0  0
   -0.2883   -4.2134    0.5649 H   0  0  0  0  0  0  0  0  0  0  0  0
   -3.7284   -3.1828   -1.3299 H   0  0  0  0  0  0  0  0  0  0  0  0
   -4.5150   -4.0784    0.0140 H   0  0  0  0  0  0  0  0  0  0  0  0
   -5.5143   -1.9911   -0.6564 H   0  0  0  0  0  0  0  0  0  0  0  0
   -5.1571   -2.1624    1.1626 H   0  0  0  0  0  0  0  0  0  0  0  0
   -5.9080    4.0710    0.6612 H   0  0  0  0  0  0  0  0  0  0  0  0
   -5.7814    3.8455   -1.0881 H   0  0  0  0  0  0  0  0  0  0  0  0
   -0.4959    0.6029   -0.1691 H   0  0  0  0  0  0  0  0  0  0  0  0
  1  2  1  0
  2  3  1  0
  3  4  1  0
  4  5  1  0
  5  6  1  0
  5  7  1  6
  7  8  3  0
  8  9  1  0
  9 10  2  0
 10 11  1  0
 11 12  2  0
 12 13  1  0
 13 14  1  0
 14 15  1  0
 15 16  1  0
 16 17  1  0
 17 18  2  0
 18 19  1  0
 19 20  1  0
 20 21  1  0
 20 22  2  0
 19 23  2  0
 23 24  1  0
 24 25  1  0
 24 26  1  0
 24 27  1  0
 17 28  1  0
 28 29  2  0
  5 30  1  0
 30 31  2  0
 30  2  1  0
 29  9  1  0
 28 12  1  0
 23 16  1  0
  1 32  1  0
  1 33  1  0
  1 34  1  0
  3 35  1  0
  3 36  1  0
  4 37  1  0
  4 38  1  0
  6 39  1  0
 10 40  1  0
 11 41  1  0
 14 42  1  0
 14 43  1  0
 15 44  1  0
 15 45  1  0
 21 46  1  0
 21 47  1  0
 29 48  1  0
M  END
$$$$
[H]O[C@](C#Cc1c([H])c([H])c2c(c1[H])-c1nc(C(=O)N([H])[H])sc1[C@]([H])(C([H])([H])[H])C([H])([H])O2)(c1noc(C([H])([H])[H])c1[H])C([H])([H])[H]
     RDKit          3D

 48 51  0  0  0  0  0  0  0  0999 V2000
   -6.1350    1.3719   -0.2447 C   0  0  0  0  0  0  0  0  0  0  0  0
   -5.3071    0.9326    0.9745 C   0  0  2  0  0  0  0  0  0  0  0  0
   -4.7941    2.1177    1.6595 C   0  0  0  0  0  0  0  0  0  0  0  0
   -3.5895    1.9829    2.3781 O   0  0  0  0  0  0  0  0  0  0  0  0
   -2.3081    1.7228    1.8613 C   0  0  0  0  0  0  0  0  0  0  0  0
   -1.2967    2.5217    2.2802 C   0  0  0  0  0  0  0  0  0  0  0  0
   -0.0269    2.3083    1.7984 C   0  0  0  0  0  0  0  0  0  0  0  0
    0.2819    1.2937    0.8813 C   0  0  0  0  0  0  0  0  0  0  0  0
   -0.7518    0.5058    0.4782 C   0  0  0  0  0  0  0  0  0  0  0  0
   -2.0254    0.7048    0.9512 C   0  0  0  0  0  0  0  0  0  0  0  0
   -3.0133   -0.2809    0.4037 C   0  0  0  0  0  0  0  0  0  0  0  0
   -2.5822   -1.3745   -0.1540 N   0  0  0  0  0  0  0  0  0  0  0  0
   -3.4392   -2.2568   -0.6335 C   0  0  0  0  0  0  0  0  0  0  0  0
   -4.9422   -1.5363   -0.2966 S   0  0  0  0  0  0  0  0  0  0  0  0
   -4.3619   -0.0823    0.4727 C   0  0  0  0  0  0  0  0  0  0  0  0
   -3.1604   -3.5503   -1.2930 C   0  0  0  0  0  0  0  0  0  0  0  0
   -4.2628   -4.3054   -1.7384 N   0  0  0  0  0  0  0  0  0  0  0  0
   -1.9861   -3.8945   -1.4168 O   0  0  0  0  0  0  0  0  0  0  0  0
    1.6239    1.1450    0.3797 C   0  0  0  0  0  0  0  0  0  0  0  0
    2.7663    1.0480   -0.0701 C   0  0  0  0  0  0  0  0  0  0  0  0
    4.1101    0.9784   -0.6296 C   0  0  1  0  0  0  0  0  0  0  0  0
    4.0339    1.2030   -2.1295 C   0  0  0  0  0  0  0  0  0  0  0  0
    4.9283    2.0031   -0.1238 O   0  0  0  0  0  0  0  0  0  0  0  0
    4.7277   -0.3041   -0.3501 C   0  0  0  0  0  0  0  0  0  0  0  0
    6.0598   -0.5831   -0.7010 C   0  0  0  0  0  0  0  0  0  0  0  0
    6.3565   -1.8863   -0.3045 C   0  0  0  0  0  0  0  0  0  0  0  0
    7.6826   -2.5741   -0.4971 C   0  0  0  0  0  0  0  0  0  0  0  0
    5.2583   -2.3396    0.2444 O   0  0  0  0  0  0  0  0  0  0  0  0
    4.3111   -1.4349    0.2243 N   0  0  0  0  0  0  0  0  0  0  0  0
   -6.8668    0.5747   -0.4430 H   0  0  0  0  0  0  0  0  0  0  0  0
   -5.4131    1.3787   -1.1057 H   0  0  0  0  0  0  0  0  0  0  0  0
   -6.5886    2.3566   -0.0872 H   0  0  0  0  0  0  0  0  0  0  0  0
   -6.0706    0.4501    1.6594 H   0  0  0  0  0  0  0  0  0  0  0  0
   -4.7882    2.9754    0.9318 H   0  0  0  0  0  0  0  0  0  0  0  0
   -5.5730    2.4526    2.4138 H   0  0  0  0  0  0  0  0  0  0  0  0
   -1.4984    3.3106    2.9862 H   0  0  0  0  0  0  0  0  0  0  0  0
    0.8111    2.9351    2.1094 H   0  0  0  0  0  0  0  0  0  0  0  0
   -0.5521   -0.2935   -0.2240 H   0  0  0  0  0  0  0  0  0  0  0  0
   -4.1587   -4.9313   -2.5856 H   0  0  0  0  0  0  0  0  0  0  0  0
   -5.2086   -4.2987   -1.2877 H   0  0  0  0  0  0  0  0  0  0  0  0
    3.1467    1.8410   -2.3148 H   0  0  0  0  0  0  0  0  0  0  0  0
    4.9219    1.7660   -2.4953 H   0  0  0  0  0  0  0  0  0  0  0  0
    3.9520    0.2309   -2.6315 H   0  0  0  0  0  0  0  0  0  0  0  0
    4.8476    1.9420    0.8613 H   0  0  0  0  0  0  0  0  0  0  0  0
    6.7416    0.0814   -1.1861 H   0  0  0  0  0  0  0  0  0  0  0  0
    8.5183   -1.8362   -0.4765 H   0  0  0  0  0  0  0  0  0  0  0  0
    7.7284   -3.0873   -1.4582 H   0  0  0  0  0  0  0  0  0  0  0  0
    7.8928   -3.2849    0.3411 H   0  0  0  0  0  0  0  0  0  0  0  0
  1  2  1  0
  2  3  1  0
  3  4  1  0
  4  5  1  0
  5  6  2  0
  6  7  1  0
  7  8  2  0
  8  9  1  0
  9 10  2  0
 10 11  1  0
 11 12  1  0
 12 13  2  0
 13 14  1  0
 14 15  1  0
 13 16  1  0
 16 17  1  0
 16 18  2  0
  8 19  1  0
 19 20  3  0
 21 20  1  1
 21 22  1  0
 21 23  1  0
 21 24  1  0
 24 25  1  0
 25 26  2  0
 26 27  1  0
 26 28  1  0
 28 29  1  0
 15  2  1  0
 29 24  2  0
 10  5  1  0
 15 11  2  0
  1 30  1  0
  1 31  1  0
  1 32  1  0
  2 33  1  1
  3 34  1  0
  3 35  1  0
  6 36  1  0
  7 37  1  0
  9 38  1  0
 17 39  1  0
 17 40  1  0
 22 41  1  0
 22 42  1  0
 22 43  1  0
 23 44  1  0
 25 45  1  0
 27 46  1  0
 27 47  1  0
 27 48  1  0
M  END
$$$$
[H]OC(C#Cc1c([H])c2c(c([H])c1F)OC([H])([H])C([H])([H])n1c-2nc(C(=O)N([H])[H])c1C(=O)N([H])C([H])([H])[H])(C([H])([H])[H])C([H])([H])F
     RDKit          3D

 47 49  0  0  0  0  0  0  0  0999 V2000
   -7.0362    0.7358   -0.2320 C   0  0  0  0  0  0  0  0  0  0  0  0
   -5.6179    0.4882   -0.5216 N   0  0  0  0  0  0  0  0  0  0  0  0
   -4.7618   -0.0129    0.4907 C   0  0  0  0  0  0  0  0  0  0  0  0
   -5.2999   -0.2368    1.6245 O   0  0  0  0  0  0  0  0  0  0  0  0
   -3.3415   -0.2885    0.3233 C   0  0  0  0  0  0  0  0  0  0  0  0
   -2.5774   -1.2977    0.8673 C   0  0  0  0  0  0  0  0  0  0  0  0
   -1.2711   -1.1040    0.4797 N   0  0  0  0  0  0  0  0  0  0  0  0
   -1.2776   -0.0110   -0.2708 C   0  0  0  0  0  0  0  0  0  0  0  0
   -0.0416    0.5172   -0.9008 C   0  0  0  0  0  0  0  0  0  0  0  0
    1.0984    0.0962   -0.2244 C   0  0  0  0  0  0  0  0  0  0  0  0
    2.3283    0.4923   -0.6774 C   0  0  0  0  0  0  0  0  0  0  0  0
    3.5159    0.0656    0.0108 C   0  0  0  0  0  0  0  0  0  0  0  0
    4.5174   -0.3072    0.5739 C   0  0  0  0  0  0  0  0  0  0  0  0
    5.7295   -0.7820    1.2453 C   0  0  0  0  0  0  0  0  0  0  0  0
    6.3089    0.2966    2.1512 C   0  0  0  0  0  0  0  0  0  0  0  0
    5.3799   -1.8889    1.9923 O   0  0  0  0  0  0  0  0  0  0  0  0
    6.8109   -1.0973    0.2150 C   0  0  0  0  0  0  0  0  0  0  0  0
    7.0498    0.0928   -0.4591 F   0  0  0  0  0  0  0  0  0  0  0  0
    2.3749    1.3059   -1.8054 C   0  0  0  0  0  0  0  0  0  0  0  0
    3.6196    1.6718   -2.2150 F   0  0  0  0  0  0  0  0  0  0  0  0
    1.2416    1.7203   -2.4721 C   0  0  0  0  0  0  0  0  0  0  0  0
    0.0057    1.3236   -2.0189 C   0  0  0  0  0  0  0  0  0  0  0  0
   -1.0658    1.8020   -2.7707 O   0  0  0  0  0  0  0  0  0  0  0  0
   -2.4724    1.5617   -2.5690 C   0  0  0  0  0  0  0  0  0  0  0  0
   -2.8106    1.7287   -1.1101 C   0  0  0  0  0  0  0  0  0  0  0  0
   -2.5131    0.5193   -0.3921 N   0  0  0  0  0  0  0  0  0  0  0  0
   -3.0358   -2.4138    1.6750 C   0  0  0  0  0  0  0  0  0  0  0  0
   -2.0351   -3.2917    2.2440 N   0  0  0  0  0  0  0  0  0  0  0  0
   -4.2238   -2.6844    1.9235 O   0  0  0  0  0  0  0  0  0  0  0  0
   -7.1648    1.8104   -0.0378 H   0  0  0  0  0  0  0  0  0  0  0  0
   -7.5897    0.4070   -1.1258 H   0  0  0  0  0  0  0  0  0  0  0  0
   -7.2916    0.1278    0.6526 H   0  0  0  0  0  0  0  0  0  0  0  0
   -5.2633    0.6613   -1.4723 H   0  0  0  0  0  0  0  0  0  0  0  0
    0.9436   -0.5347    0.6408 H   0  0  0  0  0  0  0  0  0  0  0  0
    6.0626    1.2698    1.6866 H   0  0  0  0  0  0  0  0  0  0  0  0
    5.7785    0.2709    3.1231 H   0  0  0  0  0  0  0  0  0  0  0  0
    7.3888    0.1006    2.2367 H   0  0  0  0  0  0  0  0  0  0  0  0
    5.9185   -2.6725    1.7696 H   0  0  0  0  0  0  0  0  0  0  0  0
    6.4369   -1.8137   -0.5527 H   0  0  0  0  0  0  0  0  0  0  0  0
    7.7210   -1.4140    0.7204 H   0  0  0  0  0  0  0  0  0  0  0  0
    1.3073    2.3521   -3.3456 H   0  0  0  0  0  0  0  0  0  0  0  0
   -2.9971    2.3429   -3.1287 H   0  0  0  0  0  0  0  0  0  0  0  0
   -2.7334    0.5440   -2.9015 H   0  0  0  0  0  0  0  0  0  0  0  0
   -3.7429    2.2183   -0.8797 H   0  0  0  0  0  0  0  0  0  0  0  0
   -2.0266    2.4868   -0.7255 H   0  0  0  0  0  0  0  0  0  0  0  0
   -1.1444   -2.8672    2.5280 H   0  0  0  0  0  0  0  0  0  0  0  0
   -2.2026   -4.2915    2.3603 H   0  0  0  0  0  0  0  0  0  0  0  0
  1  2  1  0
  2  3  1  0
  3  4  2  0
  3  5  1  0
  5  6  2  0
  6  7  1  0
  7  8  2  0
  8  9  1  0
  9 10  2  0
 10 11  1  0
 11 12  1  0
 12 13  3  0
 13 14  1  0
 14 15  1  0
 14 16  1  0
 14 17  1  0
 17 18  1  0
 11 19  2  0
 19 20  1  0
 19 21  1  0
 21 22  2  0
 22 23  1  0
 23 24  1  0
 24 25  1  0
 25 26  1  0
  6 27  1  0
 27 28  1  0
 27 29  2  0
 26  5  1  0
 26  8  1  0
 22  9  1  0
  1 30  1  0
  1 31  1  0
  1 32  1  0
  2 33  1  0
 10 34  1  0
 15 35  1  0
 15 36  1  0
 15 37  1  0
 16 38  1  0
 17 39  1  0
 17 40  1  0
 21 41  1  0
 24 42  1  0
 24 43  1  0
 25 44  1  0
 25 45  1  0
 28 46  1  0
 28 47  1  0
M  END
$$$$
[H]OC([H])([H])[C@@]1(F)c2sc(C(=O)N([H])[H])nc2-c2c([H])c(C#C[C@@]3(O[H])C(=O)N(C([H])([H])[H])C([H])([H])C3([H])[H])c([H])c([H])c2OC1([H])[H]
     RDKit          3D

 48 51  0  0  0  0  0  0  0  0999 V2000
    7.1817   -0.0762   -1.1383 C   0  0  0  0  0  0  0  0  0  0  0  0
    5.9063    0.2571   -0.5277 N   0  0  0  0  0  0  0  0  0  0  0  0
    5.1512    1.4581   -0.8161 C   0  0  0  0  0  0  0  0  0  0  0  0
    4.5414    1.7812    0.5318 C   0  0  0  0  0  0  0  0  0  0  0  0
    4.3254    0.4669    1.2257 C   0  0  1  0  0  0  0  0  0  0  0  0
    4.8622    0.4820    2.5175 O   0  0  0  0  0  0  0  0  0  0  0  0
    2.9424    0.0305    1.2159 C   0  0  0  0  0  0  0  0  0  0  0  0
    1.7990   -0.3513    1.2103 C   0  0  0  0  0  0  0  0  0  0  0  0
    0.4442   -0.8298    1.2068 C   0  0  0  0  0  0  0  0  0  0  0  0
    0.0713   -1.8336    2.0762 C   0  0  0  0  0  0  0  0  0  0  0  0
   -1.2116   -2.3368    2.1229 C   0  0  0  0  0  0  0  0  0  0  0  0
   -2.1545   -1.7983    1.2508 C   0  0  0  0  0  0  0  0  0  0  0  0
   -3.3901   -2.4061    1.4188 O   0  0  0  0  0  0  0  0  0  0  0  0
   -4.4788   -2.3779    0.5402 C   0  0  0  0  0  0  0  0  0  0  0  0
   -4.9901   -1.0041    0.2305 C   0  0  1  0  0  0  0  0  0  0  0  0
   -6.1391   -1.1819   -0.5557 F   0  0  0  0  0  0  0  0  0  0  0  0
   -5.4182   -0.2353    1.4378 C   0  0  0  0  0  0  0  0  0  0  0  0
   -4.4365   -0.0237    2.3712 O   0  0  0  0  0  0  0  0  0  0  0  0
   -4.0474   -0.2288   -0.6414 C   0  0  0  0  0  0  0  0  0  0  0  0
   -4.4774    0.7627   -1.9661 S   0  0  0  0  0  0  0  0  0  0  0  0
   -2.9007    1.2770   -2.4238 C   0  0  0  0  0  0  0  0  0  0  0  0
   -2.1426    0.6562   -1.5319 N   0  0  0  0  0  0  0  0  0  0  0  0
   -2.6818   -0.0995   -0.6328 C   0  0  0  0  0  0  0  0  0  0  0  0
   -1.8247   -0.7950    0.3666 C   0  0  0  0  0  0  0  0  0  0  0  0
   -0.5301   -0.3339    0.3661 C   0  0  0  0  0  0  0  0  0  0  0  0
   -2.5428    2.1670   -3.5181 C   0  0  0  0  0  0  0  0  0  0  0  0
   -3.5528    2.7042   -4.3351 N   0  0  0  0  0  0  0  0  0  0  0  0
   -1.3485    2.4423   -3.7185 O   0  0  0  0  0  0  0  0  0  0  0  0
    5.1548   -0.4686    0.4289 C   0  0  0  0  0  0  0  0  0  0  0  0
    5.2046   -1.7182    0.5591 O   0  0  0  0  0  0  0  0  0  0  0  0
    8.0444    0.2955   -0.5334 H   0  0  0  0  0  0  0  0  0  0  0  0
    7.3149   -1.1691   -1.2512 H   0  0  0  0  0  0  0  0  0  0  0  0
    7.2650    0.4182   -2.1281 H   0  0  0  0  0  0  0  0  0  0  0  0
    4.3516    1.2099   -1.5548 H   0  0  0  0  0  0  0  0  0  0  0  0
    5.7980    2.2862   -1.1730 H   0  0  0  0  0  0  0  0  0  0  0  0
    5.3318    2.3318    1.1147 H   0  0  0  0  0  0  0  0  0  0  0  0
    3.6145    2.3800    0.4501 H   0  0  0  0  0  0  0  0  0  0  0  0
    4.1540    0.4858    3.1859 H   0  0  0  0  0  0  0  0  0  0  0  0
    0.7865   -2.2839    2.7794 H   0  0  0  0  0  0  0  0  0  0  0  0
   -1.5033   -3.1250    2.8059 H   0  0  0  0  0  0  0  0  0  0  0  0
   -5.3357   -2.9714    0.9247 H   0  0  0  0  0  0  0  0  0  0  0  0
   -4.1210   -2.8101   -0.4400 H   0  0  0  0  0  0  0  0  0  0  0  0
   -6.3153   -0.7535    1.8577 H   0  0  0  0  0  0  0  0  0  0  0  0
   -5.7824    0.7581    1.0989 H   0  0  0  0  0  0  0  0  0  0  0  0
   -4.7348   -0.3422    3.2524 H   0  0  0  0  0  0  0  0  0  0  0  0
   -0.2486    0.4456   -0.3119 H   0  0  0  0  0  0  0  0  0  0  0  0
   -4.3831    2.1547   -4.6851 H   0  0  0  0  0  0  0  0  0  0  0  0
   -3.5535    3.7152   -4.6635 H   0  0  0  0  0  0  0  0  0  0  0  0
  1  2  1  0
  2  3  1  0
  3  4  1  0
  4  5  1  0
  5  6  1  0
  5  7  1  1
  7  8  3  0
  8  9  1  0
  9 10  2  0
 10 11  1  0
 11 12  2  0
 12 13  1  0
 13 14  1  0
 14 15  1  0
 15 16  1  6
 15 17  1  0
 17 18  1  0
 15 19  1  0
 19 20  1  0
 20 21  1  0
 21 22  2  0
 22 23  1  0
 23 24  1  0
 24 25  2  0
 21 26  1  0
 26 27  1  0
 26 28  2  0
  5 29  1  0
 29 30  2  0
 29  2  1  0
 25  9  1  0
 24 12  1  0
 23 19  2  0
  1 31  1  0
  1 32  1  0
  1 33  1  0
  3 34  1  0
  3 35  1  0
  4 36  1  0
  4 37  1  0
  6 38  1  0
 10 39  1  0
 11 40  1  0
 14 41  1  0
 14 42  1  0
 17 43  1  0
 17 44  1  0
 18 45  1  0
 25 46  1  0
 27 47  1  0
 27 48  1  0
M  END
$$$$
[H]OC(C#Cc1c([H])c2c(c([H])c1F)OC([H])([H])C([H])([H])n1c-2nc(C(=O)N([H])[H])c1C(=O)N([H])C([H])([H])C#N)(C([H])([H])[H])C([H])([H])[H]
     RDKit          3D

 48 50  0  0  0  0  0  0  0  0999 V2000
    6.6104    1.5135    0.0704 C   0  0  0  0  0  0  0  0  0  0  0  0
    6.0123    0.5153    1.0146 C   0  0  0  0  0  0  0  0  0  0  0  0
    6.9358   -0.6621    1.2093 C   0  0  0  0  0  0  0  0  0  0  0  0
    5.8237    1.1162    2.2537 O   0  0  0  0  0  0  0  0  0  0  0  0
    4.7441   -0.0376    0.4898 C   0  0  0  0  0  0  0  0  0  0  0  0
    3.7209   -0.4928    0.0443 C   0  0  0  0  0  0  0  0  0  0  0  0
    2.5059   -1.0406   -0.5120 C   0  0  0  0  0  0  0  0  0  0  0  0
    1.2805   -0.4761   -0.2038 C   0  0  0  0  0  0  0  0  0  0  0  0
    0.1316   -1.0144   -0.7457 C   0  0  0  0  0  0  0  0  0  0  0  0
   -1.0542   -0.2576   -0.2844 C   0  0  0  0  0  0  0  0  0  0  0  0
   -1.0512    0.5657    0.7692 N   0  0  0  0  0  0  0  0  0  0  0  0
   -2.3267    1.0881    0.8705 C   0  0  0  0  0  0  0  0  0  0  0  0
   -2.7325    2.0527    1.8690 C   0  0  0  0  0  0  0  0  0  0  0  0
   -1.8876    2.3892    2.9799 N   0  0  0  0  0  0  0  0  0  0  0  0
   -3.8209    2.6323    1.8164 O   0  0  0  0  0  0  0  0  0  0  0  0
   -3.0746    0.5553   -0.1374 C   0  0  0  0  0  0  0  0  0  0  0  0
   -4.4802    0.7012   -0.4265 C   0  0  0  0  0  0  0  0  0  0  0  0
   -4.8698    0.9276   -1.6401 O   0  0  0  0  0  0  0  0  0  0  0  0
   -5.5461    0.6165    0.4969 N   0  0  0  0  0  0  0  0  0  0  0  0
   -6.9241    0.7840    0.1193 C   0  0  0  0  0  0  0  0  0  0  0  0
   -7.1783    2.1069   -0.4676 C   0  0  0  0  0  0  0  0  0  0  0  0
   -7.3625    3.1558   -0.9428 N   0  0  0  0  0  0  0  0  0  0  0  0
   -2.2744   -0.2900   -0.8639 N   0  0  0  0  0  0  0  0  0  0  0  0
   -2.6979   -1.0604   -2.0102 C   0  0  0  0  0  0  0  0  0  0  0  0
   -2.2903   -2.5284   -1.7681 C   0  0  0  0  0  0  0  0  0  0  0  0
   -0.9328   -2.7260   -2.1914 O   0  0  0  0  0  0  0  0  0  0  0  0
    0.1664   -2.1014   -1.5878 C   0  0  0  0  0  0  0  0  0  0  0  0
    1.3820   -2.6688   -1.8993 C   0  0  0  0  0  0  0  0  0  0  0  0
    2.5475   -2.1220   -1.3492 C   0  0  0  0  0  0  0  0  0  0  0  0
    3.7598   -2.6581   -1.6366 F   0  0  0  0  0  0  0  0  0  0  0  0
    5.8465    2.0335   -0.5409 H   0  0  0  0  0  0  0  0  0  0  0  0
    7.1403    2.2812    0.6718 H   0  0  0  0  0  0  0  0  0  0  0  0
    7.3818    1.0531   -0.5983 H   0  0  0  0  0  0  0  0  0  0  0  0
    6.6137   -1.5507    0.6413 H   0  0  0  0  0  0  0  0  0  0  0  0
    7.9452   -0.3498    0.8618 H   0  0  0  0  0  0  0  0  0  0  0  0
    7.0487   -0.9461    2.2771 H   0  0  0  0  0  0  0  0  0  0  0  0
    4.9648    1.6408    2.2259 H   0  0  0  0  0  0  0  0  0  0  0  0
    1.1778    0.3707    0.4442 H   0  0  0  0  0  0  0  0  0  0  0  0
   -0.8592    2.5169    2.9116 H   0  0  0  0  0  0  0  0  0  0  0  0
   -2.3238    2.5152    3.9169 H   0  0  0  0  0  0  0  0  0  0  0  0
   -5.3581    0.3996    1.4882 H   0  0  0  0  0  0  0  0  0  0  0  0
   -7.6238    0.6517    0.9575 H   0  0  0  0  0  0  0  0  0  0  0  0
   -7.2179    0.0177   -0.6461 H   0  0  0  0  0  0  0  0  0  0  0  0
   -3.7796   -1.0724   -2.1300 H   0  0  0  0  0  0  0  0  0  0  0  0
   -2.1485   -0.7281   -2.9116 H   0  0  0  0  0  0  0  0  0  0  0  0
   -2.3876   -2.6763   -0.6722 H   0  0  0  0  0  0  0  0  0  0  0  0
   -2.9634   -3.2228   -2.2657 H   0  0  0  0  0  0  0  0  0  0  0  0
    1.4263   -3.5184   -2.5558 H   0  0  0  0  0  0  0  0  0  0  0  0
  1  2  1  0
  2  3  1  0
  2  4  1  0
  2  5  1  0
  5  6  3  0
  6  7  1  0
  7  8  2  0
  8  9  1  0
  9 10  1  0
 10 11  2  0
 11 12  1  0
 12 13  1  0
 13 14  1  0
 13 15  2  0
 12 16  2  0
 16 17  1  0
 17 18  2  0
 17 19  1  0
 19 20  1  0
 20 21  1  0
 21 22  3  0
 16 23  1  0
 23 24  1  0
 24 25  1  0
 25 26  1  0
 26 27  1  0
 27 28  1  0
 28 29  2  0
 29 30  1  0
 29  7  1  0
 27  9  2  0
 23 10  1  0
  1 31  1  0
  1 32  1  0
  1 33  1  0
  3 34  1  0
  3 35  1  0
  3 36  1  0
  4 37  1  0
  8 38  1  0
 14 39  1  0
 14 40  1  0
 19 41  1  0
 20 42  1  0
 20 43  1  0
 24 44  1  0
 24 45  1  0
 25 46  1  0
 25 47  1  0
 28 48  1  0
M  END
$$$$
[H]O[C@]1(C#Cc2c([H])c3c(c([H])c2F)C2([H])C([H])([H])C([H])(n4c-3nc(C(=O)N([H])[H])c4C([H])([H])[H])C2([H])[H])C(=O)N(C([H])([H])[H])C([H])([H])C1([H])[H]
     RDKit          3D

 51 55  0  0  0  0  0  0  0  0999 V2000
    5.9587    3.0069   -0.4986 C   0  0  0  0  0  0  0  0  0  0  0  0
    5.6183    1.7263    0.0613 N   0  0  0  0  0  0  0  0  0  0  0  0
    5.8344    1.3743    1.4513 C   0  0  0  0  0  0  0  0  0  0  0  0
    5.1373    0.0546    1.6717 C   0  0  0  0  0  0  0  0  0  0  0  0
    4.8616   -0.4729    0.2790 C   0  0  1  0  0  0  0  0  0  0  0  0
    5.7377   -1.5126    0.0380 O   0  0  0  0  0  0  0  0  0  0  0  0
    3.4524   -0.9022    0.1996 C   0  0  0  0  0  0  0  0  0  0  0  0
    2.2974   -1.2557    0.1556 C   0  0  0  0  0  0  0  0  0  0  0  0
    0.9269   -1.6881    0.1252 C   0  0  0  0  0  0  0  0  0  0  0  0
   -0.0915   -0.7671    0.0881 C   0  0  0  0  0  0  0  0  0  0  0  0
   -1.3943   -1.1557    0.0590 C   0  0  0  0  0  0  0  0  0  0  0  0
   -2.3539   -0.0258    0.0212 C   0  0  0  0  0  0  0  0  0  0  0  0
   -2.0240    1.2661    0.0467 N   0  0  0  0  0  0  0  0  0  0  0  0
   -3.1529    1.9946   -0.0015 C   0  0  0  0  0  0  0  0  0  0  0  0
   -3.2756    3.4593    0.0030 C   0  0  0  0  0  0  0  0  0  0  0  0
   -2.1516    4.3101    0.0659 N   0  0  0  0  0  0  0  0  0  0  0  0
   -4.4070    4.0027   -0.0500 O   0  0  0  0  0  0  0  0  0  0  0  0
   -4.1973    1.1081   -0.0579 C   0  0  0  0  0  0  0  0  0  0  0  0
   -5.6542    1.4365   -0.1235 C   0  0  0  0  0  0  0  0  0  0  0  0
   -3.7081   -0.1307   -0.0441 N   0  0  0  0  0  0  0  0  0  0  0  0
   -4.4709   -1.3898   -0.0911 C   0  0  0  0  0  0  0  0  0  0  0  0
   -3.8124   -2.3583   -1.0854 C   0  0  0  0  0  0  0  0  0  0  0  0
   -3.0911   -3.0893    0.0376 C   0  0  0  0  0  0  0  0  0  0  0  0
   -3.9972   -2.3440    1.0006 C   0  0  0  0  0  0  0  0  0  0  0  0
   -1.6948   -2.5177    0.0672 C   0  0  0  0  0  0  0  0  0  0  0  0
   -0.7129   -3.4642    0.1037 C   0  0  0  0  0  0  0  0  0  0  0  0
    0.5972   -3.0261    0.1324 C   0  0  0  0  0  0  0  0  0  0  0  0
    1.5533   -3.9911    0.1684 F   0  0  0  0  0  0  0  0  0  0  0  0
    5.0389    0.6517   -0.6418 C   0  0  0  0  0  0  0  0  0  0  0  0
    4.7312    0.6690   -1.8538 O   0  0  0  0  0  0  0  0  0  0  0  0
    6.4808    3.6606    0.2187 H   0  0  0  0  0  0  0  0  0  0  0  0
    6.6186    2.9225   -1.4034 H   0  0  0  0  0  0  0  0  0  0  0  0
    5.0130    3.4764   -0.8612 H   0  0  0  0  0  0  0  0  0  0  0  0
    5.3205    2.1416    2.0785 H   0  0  0  0  0  0  0  0  0  0  0  0
    6.9014    1.3003    1.7195 H   0  0  0  0  0  0  0  0  0  0  0  0
    5.7841   -0.6474    2.2428 H   0  0  0  0  0  0  0  0  0  0  0  0
    4.1784    0.1948    2.2078 H   0  0  0  0  0  0  0  0  0  0  0  0
    5.2154   -2.3599    0.2073 H   0  0  0  0  0  0  0  0  0  0  0  0
    0.1596    0.2669    0.0825 H   0  0  0  0  0  0  0  0  0  0  0  0
   -1.9287    4.8150    0.9383 H   0  0  0  0  0  0  0  0  0  0  0  0
   -1.5435    4.4337   -0.7617 H   0  0  0  0  0  0  0  0  0  0  0  0
   -6.2980    0.5747    0.0748 H   0  0  0  0  0  0  0  0  0  0  0  0
   -5.9120    2.1963    0.6628 H   0  0  0  0  0  0  0  0  0  0  0  0
   -5.8598    1.8046   -1.1466 H   0  0  0  0  0  0  0  0  0  0  0  0
   -5.5393   -1.2789   -0.2089 H   0  0  0  0  0  0  0  0  0  0  0  0
   -3.1457   -1.8678   -1.8132 H   0  0  0  0  0  0  0  0  0  0  0  0
   -4.5373   -3.0550   -1.5518 H   0  0  0  0  0  0  0  0  0  0  0  0
   -3.1432   -4.1683    0.0366 H   0  0  0  0  0  0  0  0  0  0  0  0
   -4.8457   -3.0099    1.2822 H   0  0  0  0  0  0  0  0  0  0  0  0
   -3.4905   -1.8641    1.8438 H   0  0  0  0  0  0  0  0  0  0  0  0
   -0.9836   -4.5052    0.1089 H   0  0  0  0  0  0  0  0  0  0  0  0
  1  2  1  0
  2  3  1  0
  3  4  1  0
  4  5  1  0
  5  6  1  0
  5  7  1  1
  7  8  3  0
  8  9  1  0
  9 10  1  0
 10 11  2  0
 11 12  1  0
 12 13  2  0
 13 14  1  0
 14 15  1  0
 15 16  1  0
 15 17  2  0
 14 18  2  0
 18 19  1  0
 18 20  1  0
 20 21  1  0
 21 22  1  0
 22 23  1  0
 23 24  1  0
 23 25  1  0
 25 26  2  0
 26 27  1  0
 27 28  1  0
  5 29  1  0
 29 30  2  0
 29  2  1  0
 27  9  2  0
 25 11  1  0
 20 12  1  0
 24 21  1  0
  1 31  1  0
  1 32  1  0
  1 33  1  0
  3 34  1  0
  3 35  1  0
  4 36  1  0
  4 37  1  0
  6 38  1  0
 10 39  1  0
 16 40  1  0
 16 41  1  0
 19 42  1  0
 19 43  1  0
 19 44  1  0
 21 45  1  0
 22 46  1  0
 22 47  1  0
 23 48  1  0
 24 49  1  0
 24 50  1  0
 26 51  1  0
M  END
$$$$
[H]OC(C#Cc1c([H])c2c(c([H])c1F)OC([H])([H])C([H])([H])n1c-2nc(C(=O)N([H])[H])c1[C@]([H])(O[H])c1c([H])nn(C([H])([H])[H])c1[H])(C([H])([H])[H])C([H])([H])[H]
     RDKit          3D

 54 57  0  0  0  0  0  0  0  0999 V2000
   -5.6971    2.6031    1.0972 C   0  0  0  0  0  0  0  0  0  0  0  0
   -5.5282    1.3192    0.4106 N   0  0  0  0  0  0  0  0  0  0  0  0
   -4.4065    0.6002    0.2934 C   0  0  0  0  0  0  0  0  0  0  0  0
   -4.7002   -0.5506   -0.4379 C   0  0  0  0  0  0  0  0  0  0  0  0
   -6.0359   -0.4716   -0.7406 C   0  0  0  0  0  0  0  0  0  0  0  0
   -6.5034    0.6638   -0.2162 N   0  0  0  0  0  0  0  0  0  0  0  0
   -3.7328   -1.5943   -0.7815 C   0  0  1  0  0  0  0  0  0  0  0  0
   -3.9443   -2.0233   -2.0831 O   0  0  0  0  0  0  0  0  0  0  0  0
   -2.3137   -1.1462   -0.6515 C   0  0  0  0  0  0  0  0  0  0  0  0
   -1.6579   -0.2941   -1.5082 C   0  0  0  0  0  0  0  0  0  0  0  0
   -0.3737   -0.2092   -0.9666 N   0  0  0  0  0  0  0  0  0  0  0  0
   -0.2910   -0.9540    0.1210 C   0  0  0  0  0  0  0  0  0  0  0  0
    0.9482   -1.0895    0.9217 C   0  0  0  0  0  0  0  0  0  0  0  0
    1.9995   -0.3835    0.3746 C   0  0  0  0  0  0  0  0  0  0  0  0
    3.2577   -0.3840    0.9619 C   0  0  0  0  0  0  0  0  0  0  0  0
    4.3403    0.3574    0.3786 C   0  0  0  0  0  0  0  0  0  0  0  0
    5.2405    0.9984   -0.1054 C   0  0  0  0  0  0  0  0  0  0  0  0
    6.3347    1.8079   -0.6922 C   0  0  0  0  0  0  0  0  0  0  0  0
    6.5311    3.0801    0.1429 C   0  0  0  0  0  0  0  0  0  0  0  0
    7.5949    0.9808   -0.5676 C   0  0  0  0  0  0  0  0  0  0  0  0
    6.0194    2.0996   -2.0036 O   0  0  0  0  0  0  0  0  0  0  0  0
    3.3977   -1.1299    2.1227 C   0  0  0  0  0  0  0  0  0  0  0  0
    4.6327   -1.1280    2.6949 F   0  0  0  0  0  0  0  0  0  0  0  0
    2.3638   -1.8392    2.6829 C   0  0  0  0  0  0  0  0  0  0  0  0
    1.1271   -1.8198    2.0785 C   0  0  0  0  0  0  0  0  0  0  0  0
    0.1326   -2.5572    2.7000 O   0  0  0  0  0  0  0  0  0  0  0  0
   -1.2479   -2.2885    2.7125 C   0  0  0  0  0  0  0  0  0  0  0  0
   -1.9339   -2.4343    1.3784 C   0  0  0  0  0  0  0  0  0  0  0  0
   -1.4648   -1.5507    0.3555 N   0  0  0  0  0  0  0  0  0  0  0  0
   -2.0399    0.4297   -2.6958 C   0  0  0  0  0  0  0  0  0  0  0  0
   -3.2847    0.4863   -3.2743 N   0  0  0  0  0  0  0  0  0  0  0  0
   -1.1129    1.1004   -3.2816 O   0  0  0  0  0  0  0  0  0  0  0  0
   -4.6806    3.0325    1.2531 H   0  0  0  0  0  0  0  0  0  0  0  0
   -6.1823    2.3617    2.0629 H   0  0  0  0  0  0  0  0  0  0  0  0
   -6.2744    3.2835    0.4683 H   0  0  0  0  0  0  0  0  0  0  0  0
   -3.4563    0.8971    0.7097 H   0  0  0  0  0  0  0  0  0  0  0  0
   -6.5843   -1.1974   -1.2962 H   0  0  0  0  0  0  0  0  0  0  0  0
   -3.8609   -2.5015   -0.1119 H   0  0  0  0  0  0  0  0  0  0  0  0
   -4.5639   -2.7902   -2.1245 H   0  0  0  0  0  0  0  0  0  0  0  0
    1.8241    0.1834   -0.5400 H   0  0  0  0  0  0  0  0  0  0  0  0
    6.2373    2.7731    1.1887 H   0  0  0  0  0  0  0  0  0  0  0  0
    5.7882    3.8602   -0.1370 H   0  0  0  0  0  0  0  0  0  0  0  0
    7.5650    3.4302    0.1270 H   0  0  0  0  0  0  0  0  0  0  0  0
    8.1150    1.1584    0.3915 H   0  0  0  0  0  0  0  0  0  0  0  0
    8.2760    1.1630   -1.4367 H   0  0  0  0  0  0  0  0  0  0  0  0
    7.3761   -0.1174   -0.6039 H   0  0  0  0  0  0  0  0  0  0  0  0
    6.0718    3.0910   -2.1135 H   0  0  0  0  0  0  0  0  0  0  0  0
    2.4716   -2.4203    3.5869 H   0  0  0  0  0  0  0  0  0  0  0  0
   -1.7914   -3.0072    3.3928 H   0  0  0  0  0  0  0  0  0  0  0  0
   -1.4105   -1.2826    3.1246 H   0  0  0  0  0  0  0  0  0  0  0  0
   -3.0020   -2.1262    1.6009 H   0  0  0  0  0  0  0  0  0  0  0  0
   -1.9809   -3.4867    1.1001 H   0  0  0  0  0  0  0  0  0  0  0  0
   -4.0350    1.1189   -2.9300 H   0  0  0  0  0  0  0  0  0  0  0  0
   -3.5539   -0.1026   -4.1191 H   0  0  0  0  0  0  0  0  0  0  0  0
  1  2  1  0
  2  3  1  0
  3  4  2  0
  4  5  1  0
  5  6  2  0
  4  7  1  0
  7  8  1  0
  7  9  1  0
  9 10  2  0
 10 11  1  0
 11 12  2  0
 12 13  1  0
 13 14  2  0
 14 15  1  0
 15 16  1  0
 16 17  3  0
 17 18  1  0
 18 19  1  0
 18 20  1  0
 18 21  1  0
 15 22  2  0
 22 23  1  0
 22 24  1  0
 24 25  2  0
 25 26  1  0
 26 27  1  0
 27 28  1  0
 28 29  1  0
 10 30  1  0
 30 31  1  0
 30 32  2  0
  6  2  1  0
 29  9  1  0
 29 12  1  0
 25 13  1  0
  1 33  1  0
  1 34  1  0
  1 35  1  0
  3 36  1  0
  5 37  1  0
  7 38  1  1
  8 39  1  0
 14 40  1  0
 19 41  1  0
 19 42  1  0
 19 43  1  0
 20 44  1  0
 20 45  1  0
 20 46  1  0
 21 47  1  0
 24 48  1  0
 27 49  1  0
 27 50  1  0
 28 51  1  0
 28 52  1  0
 31 53  1  0
 31 54  1  0
M  END
$$$$
[H]OC1(C#Cc2c([H])c3c(c([H])c2F)C2([H])C([H])([H])C([H])(n4c-3nc(C(=O)N([H])[H])c4[C@]([H])(O[H])c3c(OC([H])([H])[H])nc([H])c(F)c3[H])C2([H])[H])C([H])([H])C([H])([H])C([H])([H])C1([H])[H]
     RDKit          3D

 64 69  0  0  0  0  0  0  0  0999 V2000
   -7.5258    1.0467   -1.3904 C   0  0  0  0  0  0  0  0  0  0  0  0
   -6.3573    0.7441   -0.6523 O   0  0  0  0  0  0  0  0  0  0  0  0
   -5.9816   -0.5396   -0.3204 C   0  0  0  0  0  0  0  0  0  0  0  0
   -6.7223   -1.5848   -0.6901 N   0  0  0  0  0  0  0  0  0  0  0  0
   -6.3513   -2.8553   -0.3621 C   0  0  0  0  0  0  0  0  0  0  0  0
   -5.2069   -3.0364    0.3519 C   0  0  0  0  0  0  0  0  0  0  0  0
   -4.7857   -4.2790    0.7077 F   0  0  0  0  0  0  0  0  0  0  0  0
   -4.4051   -1.9660    0.7568 C   0  0  0  0  0  0  0  0  0  0  0  0
   -4.8069   -0.7083    0.4113 C   0  0  0  0  0  0  0  0  0  0  0  0
   -4.0417    0.5274    0.7558 C   0  0  1  0  0  0  0  0  0  0  0  0
   -4.6645    1.1246    1.8352 O   0  0  0  0  0  0  0  0  0  0  0  0
   -2.5979    0.3590    0.8406 C   0  0  0  0  0  0  0  0  0  0  0  0
   -1.8157    0.0485    1.9060 C   0  0  0  0  0  0  0  0  0  0  0  0
   -0.5096    0.0041    1.4511 N   0  0  0  0  0  0  0  0  0  0  0  0
   -0.5135    0.2789    0.1588 C   0  0  0  0  0  0  0  0  0  0  0  0
    0.7001    0.3322   -0.7021 C   0  0  0  0  0  0  0  0  0  0  0  0
    1.8613    0.0520   -0.0142 C   0  0  0  0  0  0  0  0  0  0  0  0
    3.0543    0.0713   -0.7077 C   0  0  0  0  0  0  0  0  0  0  0  0
    4.3113   -0.2092   -0.0623 C   0  0  0  0  0  0  0  0  0  0  0  0
    5.3698   -0.4328    0.4996 C   0  0  0  0  0  0  0  0  0  0  0  0
    6.6290   -0.6774    1.1824 C   0  0  0  0  0  0  0  0  0  0  0  0
    6.4957   -1.6888    2.1312 O   0  0  0  0  0  0  0  0  0  0  0  0
    7.7416   -0.9700    0.2214 C   0  0  0  0  0  0  0  0  0  0  0  0
    8.0615    0.4069   -0.3227 C   0  0  0  0  0  0  0  0  0  0  0  0
    7.7706    1.3701    0.7859 C   0  0  0  0  0  0  0  0  0  0  0  0
    7.0302    0.6326    1.8527 C   0  0  0  0  0  0  0  0  0  0  0  0
    3.0693    0.3693   -2.0743 C   0  0  0  0  0  0  0  0  0  0  0  0
    4.2461    0.3867   -2.7508 F   0  0  0  0  0  0  0  0  0  0  0  0
    1.9102    0.6507   -2.7690 C   0  0  0  0  0  0  0  0  0  0  0  0
    0.7436    0.6250   -2.0596 C   0  0  0  0  0  0  0  0  0  0  0  0
   -0.4559    0.9465   -2.9167 C   0  0  0  0  0  0  0  0  0  0  0  0
   -1.5006   -0.0986   -2.5987 C   0  0  0  0  0  0  0  0  0  0  0  0
   -2.2050    0.8320   -1.5990 C   0  0  0  0  0  0  0  0  0  0  0  0
   -1.3469    1.9479   -2.1793 C   0  0  0  0  0  0  0  0  0  0  0  0
   -1.7757    0.4987   -0.2357 N   0  0  0  0  0  0  0  0  0  0  0  0
   -2.1445   -0.2121    3.3085 C   0  0  0  0  0  0  0  0  0  0  0  0
   -3.3977   -0.2345    3.9125 N   0  0  0  0  0  0  0  0  0  0  0  0
   -1.1549   -0.4543    4.0984 O   0  0  0  0  0  0  0  0  0  0  0  0
   -7.5358    2.1264   -1.6174 H   0  0  0  0  0  0  0  0  0  0  0  0
   -7.4789    0.4924   -2.3385 H   0  0  0  0  0  0  0  0  0  0  0  0
   -8.3886    0.7421   -0.7484 H   0  0  0  0  0  0  0  0  0  0  0  0
   -6.9749   -3.6684   -0.6784 H   0  0  0  0  0  0  0  0  0  0  0  0
   -3.5032   -2.1394    1.3167 H   0  0  0  0  0  0  0  0  0  0  0  0
   -4.2712    1.2767   -0.0968 H   0  0  0  0  0  0  0  0  0  0  0  0
   -5.6065    0.8059    1.9049 H   0  0  0  0  0  0  0  0  0  0  0  0
    1.8449   -0.1742    1.0256 H   0  0  0  0  0  0  0  0  0  0  0  0
    6.6115   -2.5748    1.7173 H   0  0  0  0  0  0  0  0  0  0  0  0
    8.6051   -1.4252    0.7428 H   0  0  0  0  0  0  0  0  0  0  0  0
    7.3485   -1.6511   -0.5803 H   0  0  0  0  0  0  0  0  0  0  0  0
    7.4200    0.6176   -1.1862 H   0  0  0  0  0  0  0  0  0  0  0  0
    9.1311    0.4441   -0.6385 H   0  0  0  0  0  0  0  0  0  0  0  0
    7.1677    2.2373    0.4092 H   0  0  0  0  0  0  0  0  0  0  0  0
    8.7063    1.7700    1.2456 H   0  0  0  0  0  0  0  0  0  0  0  0
    6.1168    1.2167    2.1408 H   0  0  0  0  0  0  0  0  0  0  0  0
    7.5988    0.4753    2.7799 H   0  0  0  0  0  0  0  0  0  0  0  0
    1.8747    0.8850   -3.8190 H   0  0  0  0  0  0  0  0  0  0  0  0
   -0.2470    1.1560   -3.9534 H   0  0  0  0  0  0  0  0  0  0  0  0
   -1.1306   -0.9834   -2.0703 H   0  0  0  0  0  0  0  0  0  0  0  0
   -2.1358   -0.3984   -3.4530 H   0  0  0  0  0  0  0  0  0  0  0  0
   -3.2641    0.8762   -1.7891 H   0  0  0  0  0  0  0  0  0  0  0  0
   -1.9603    2.5739   -2.8287 H   0  0  0  0  0  0  0  0  0  0  0  0
   -0.7915    2.5136   -1.4132 H   0  0  0  0  0  0  0  0  0  0  0  0
   -4.0935   -1.0295    3.7857 H   0  0  0  0  0  0  0  0  0  0  0  0
   -3.7714    0.5270    4.5463 H   0  0  0  0  0  0  0  0  0  0  0  0
  1  2  1  0
  2  3  1  0
  3  4  2  0
  4  5  1  0
  5  6  2  0
  6  7  1  0
  6  8  1  0
  8  9  2  0
  9 10  1  0
 10 11  1  0
 10 12  1  0
 12 13  2  0
 13 14  1  0
 14 15  2  0
 15 16  1  0
 16 17  2  0
 17 18  1  0
 18 19  1  0
 19 20  3  0
 20 21  1  0
 21 22  1  0
 21 23  1  0
 23 24  1  0
 24 25  1  0
 25 26  1  0
 18 27  2  0
 27 28  1  0
 27 29  1  0
 29 30  2  0
 30 31  1  0
 31 32  1  0
 32 33  1  0
 33 34  1  0
 33 35  1  0
 13 36  1  0
 36 37  1  0
 36 38  2  0
  9  3  1  0
 35 12  1  0
 35 15  1  0
 30 16  1  0
 34 31  1  0
 26 21  1  0
  1 39  1  0
  1 40  1  0
  1 41  1  0
  5 42  1  0
  8 43  1  0
 10 44  1  6
 11 45  1  0
 17 46  1  0
 22 47  1  0
 23 48  1  0
 23 49  1  0
 24 50  1  0
 24 51  1  0
 25 52  1  0
 25 53  1  0
 26 54  1  0
 26 55  1  0
 29 56  1  0
 31 57  1  0
 32 58  1  0
 32 59  1  0
 33 60  1  0
 34 61  1  0
 34 62  1  0
 37 63  1  0
 37 64  1  0
M  END
$$$$
[H]O[C@]1(C#Cc2c([H])c3c(c([H])c2F)OC([H])([H])C([H])([H])c2c-3sc(C(=O)N([H])[H])c2[H])C(=O)N(C([H])([H])[H])C([H])([H])C1([H])[H]
     RDKit          3D

 45 48  0  0  0  0  0  0  0  0999 V2000
    6.0510    3.1432   -1.0449 C   0  0  0  0  0  0  0  0  0  0  0  0
    5.5122    1.8688   -0.5520 N   0  0  0  0  0  0  0  0  0  0  0  0
    6.0929    1.0165    0.4691 C   0  0  0  0  0  0  0  0  0  0  0  0
    4.9374    0.1049    0.8539 C   0  0  0  0  0  0  0  0  0  0  0  0
    4.2776   -0.0867   -0.5146 C   0  0  1  0  0  0  0  0  0  0  0  0
    5.1196   -0.9222   -1.2436 O   0  0  0  0  0  0  0  0  0  0  0  0
    2.9579   -0.6248   -0.3196 C   0  0  0  0  0  0  0  0  0  0  0  0
    1.8487   -1.0798   -0.1764 C   0  0  0  0  0  0  0  0  0  0  0  0
    0.5306   -1.6339   -0.0258 C   0  0  0  0  0  0  0  0  0  0  0  0
   -0.5806   -0.8054   -0.0527 C   0  0  0  0  0  0  0  0  0  0  0  0
   -1.8248   -1.3801    0.0956 C   0  0  0  0  0  0  0  0  0  0  0  0
   -2.8764   -0.3393    0.0392 C   0  0  0  0  0  0  0  0  0  0  0  0
   -2.6195    1.3433    0.1247 S   0  0  0  0  0  0  0  0  0  0  0  0
   -4.2366    1.8755   -0.0028 C   0  0  0  0  0  0  0  0  0  0  0  0
   -4.9383    0.7046   -0.1099 C   0  0  0  0  0  0  0  0  0  0  0  0
   -4.2288   -0.4447   -0.0878 C   0  0  0  0  0  0  0  0  0  0  0  0
   -4.9354   -1.7778   -0.2024 C   0  0  0  0  0  0  0  0  0  0  0  0
   -4.4586   -2.7762    0.7945 C   0  0  0  0  0  0  0  0  0  0  0  0
   -3.2113   -3.3877    0.4235 O   0  0  0  0  0  0  0  0  0  0  0  0
   -1.9891   -2.7581    0.2700 C   0  0  0  0  0  0  0  0  0  0  0  0
   -0.8846   -3.5768    0.2962 C   0  0  0  0  0  0  0  0  0  0  0  0
    0.3586   -2.9994    0.1476 C   0  0  0  0  0  0  0  0  0  0  0  0
    1.4412   -3.8086    0.1741 F   0  0  0  0  0  0  0  0  0  0  0  0
   -4.7762    3.2554   -0.0011 C   0  0  0  0  0  0  0  0  0  0  0  0
   -6.1512    3.4795   -0.1178 N   0  0  0  0  0  0  0  0  0  0  0  0
   -3.9495    4.1797    0.1082 O   0  0  0  0  0  0  0  0  0  0  0  0
    4.3028    1.2910   -1.0380 C   0  0  0  0  0  0  0  0  0  0  0  0
    3.4381    1.8249   -1.7555 O   0  0  0  0  0  0  0  0  0  0  0  0
    5.6795    3.3594   -2.0625 H   0  0  0  0  0  0  0  0  0  0  0  0
    7.1677    3.0149   -1.0466 H   0  0  0  0  0  0  0  0  0  0  0  0
    5.7250    3.9443   -0.3739 H   0  0  0  0  0  0  0  0  0  0  0  0
    6.4432    1.6141    1.3350 H   0  0  0  0  0  0  0  0  0  0  0  0
    6.9230    0.4401    0.0001 H   0  0  0  0  0  0  0  0  0  0  0  0
    4.2920    0.6618    1.5456 H   0  0  0  0  0  0  0  0  0  0  0  0
    5.2771   -0.8654    1.2246 H   0  0  0  0  0  0  0  0  0  0  0  0
    4.5845   -1.7412   -1.4487 H   0  0  0  0  0  0  0  0  0  0  0  0
   -0.5115    0.2622   -0.1840 H   0  0  0  0  0  0  0  0  0  0  0  0
   -6.0478    0.7664   -0.2086 H   0  0  0  0  0  0  0  0  0  0  0  0
   -4.7020   -2.1406   -1.2419 H   0  0  0  0  0  0  0  0  0  0  0  0
   -6.0222   -1.6728   -0.1242 H   0  0  0  0  0  0  0  0  0  0  0  0
   -5.2152   -3.5584    0.9041 H   0  0  0  0  0  0  0  0  0  0  0  0
   -4.3545   -2.2849    1.8009 H   0  0  0  0  0  0  0  0  0  0  0  0
   -1.0688   -4.6316    0.4334 H   0  0  0  0  0  0  0  0  0  0  0  0
   -6.7067    3.2014   -0.9626 H   0  0  0  0  0  0  0  0  0  0  0  0
   -6.6711    3.9441    0.6600 H   0  0  0  0  0  0  0  0  0  0  0  0
  1  2  1  0
  2  3  1  0
  3  4  1  0
  4  5  1  0
  5  6  1  0
  5  7  1  1
  7  8  3  0
  8  9  1  0
  9 10  2  0
 10 11  1  0
 11 12  1  0
 12 13  1  0
 13 14  1  0
 14 15  2  0
 15 16  1  0
 16 17  1  0
 17 18  1  0
 18 19  1  0
 19 20  1  0
 20 21  1  0
 21 22  2  0
 22 23  1  0
 14 24  1  0
 24 25  1  0
 24 26  2  0
  5 27  1  0
 27 28  2  0
 27  2  1  0
 22  9  1  0
 20 11  2  0
 16 12  2  0
  1 29  1  0
  1 30  1  0
  1 31  1  0
  3 32  1  0
  3 33  1  0
  4 34  1  0
  4 35  1  0
  6 36  1  0
 10 37  1  0
 15 38  1  0
 17 39  1  0
 17 40  1  0
 18 41  1  0
 18 42  1  0
 21 43  1  0
 25 44  1  0
 25 45  1  0
M  END
$$$$
[H]O[C@](C#Cc1c([H])c2c(c([H])c1F)C1([H])C([H])([H])C([H])(c3c-2nc(C(=O)N([H])[H])n3[H])C1([H])[H])(c1noc(C([H])([H])[H])c1[H])C([H])([H])[H]
     RDKit          3D

 49 53  0  0  0  0  0  0  0  0999 V2000
   -7.6610   -1.2400    0.4375 C   0  0  0  0  0  0  0  0  0  0  0  0
   -6.4883   -0.3386    0.6350 C   0  0  0  0  0  0  0  0  0  0  0  0
   -5.9788    0.5919   -0.2503 C   0  0  0  0  0  0  0  0  0  0  0  0
   -4.8973    1.1994    0.3307 C   0  0  0  0  0  0  0  0  0  0  0  0
   -4.7766    0.6257    1.5530 N   0  0  0  0  0  0  0  0  0  0  0  0
   -5.7170   -0.2757    1.7150 O   0  0  0  0  0  0  0  0  0  0  0  0
   -3.9624    2.2503   -0.2395 C   0  0  2  0  0  0  0  0  0  0  0  0
   -3.8074    3.4300    0.6007 C   0  0  0  0  0  0  0  0  0  0  0  0
   -4.5043    2.6384   -1.4911 O   0  0  0  0  0  0  0  0  0  0  0  0
   -2.6568    1.5672   -0.4188 C   0  0  0  0  0  0  0  0  0  0  0  0
   -1.6282    0.9140   -0.5692 C   0  0  0  0  0  0  0  0  0  0  0  0
   -0.4782    0.0682   -0.7324 C   0  0  0  0  0  0  0  0  0  0  0  0
    0.7461    0.4185   -0.3343 C   0  0  0  0  0  0  0  0  0  0  0  0
    1.8032   -0.4660   -0.4404 C   0  0  0  0  0  0  0  0  0  0  0  0
    3.0977    0.0621    0.0197 C   0  0  0  0  0  0  0  0  0  0  0  0
    3.4437    1.2970    0.3532 N   0  0  0  0  0  0  0  0  0  0  0  0
    4.7509    1.3812    0.6812 C   0  0  0  0  0  0  0  0  0  0  0  0
    5.2206    0.1011    0.5326 N   0  0  0  0  0  0  0  0  0  0  0  0
    4.2516   -0.7165    0.1382 C   0  0  0  0  0  0  0  0  0  0  0  0
    4.3942   -2.1759   -0.1464 C   0  0  0  0  0  0  0  0  0  0  0  0
    3.2210   -2.9709    0.3240 C   0  0  0  0  0  0  0  0  0  0  0  0
    2.5430   -2.8423   -1.0666 C   0  0  0  0  0  0  0  0  0  0  0  0
    3.8900   -2.4542   -1.5814 C   0  0  0  0  0  0  0  0  0  0  0  0
    1.5621   -1.7268   -0.9721 C   0  0  0  0  0  0  0  0  0  0  0  0
    0.3206   -2.1349   -1.4014 C   0  0  0  0  0  0  0  0  0  0  0  0
   -0.6940   -1.2252   -1.2768 C   0  0  0  0  0  0  0  0  0  0  0  0
   -1.9727   -1.4941   -1.6656 F   0  0  0  0  0  0  0  0  0  0  0  0
    5.5604    2.5179    1.1141 C   0  0  0  0  0  0  0  0  0  0  0  0
    6.9860    2.4323    1.0853 N   0  0  0  0  0  0  0  0  0  0  0  0
    5.0279    3.5666    1.5078 O   0  0  0  0  0  0  0  0  0  0  0  0
   -7.5342   -1.8343   -0.5159 H   0  0  0  0  0  0  0  0  0  0  0  0
   -8.5497   -0.6047    0.3021 H   0  0  0  0  0  0  0  0  0  0  0  0
   -7.7409   -1.9111    1.3251 H   0  0  0  0  0  0  0  0  0  0  0  0
   -6.3708    0.8216   -1.2597 H   0  0  0  0  0  0  0  0  0  0  0  0
   -4.8213    3.8061    0.9390 H   0  0  0  0  0  0  0  0  0  0  0  0
   -3.1199    3.3652    1.4496 H   0  0  0  0  0  0  0  0  0  0  0  0
   -3.4551    4.2826   -0.0770 H   0  0  0  0  0  0  0  0  0  0  0  0
   -4.3305    1.8687   -2.1240 H   0  0  0  0  0  0  0  0  0  0  0  0
    0.9168    1.3999    0.0813 H   0  0  0  0  0  0  0  0  0  0  0  0
    6.2125   -0.1640    0.6989 H   0  0  0  0  0  0  0  0  0  0  0  0
    5.3831   -2.5750    0.0971 H   0  0  0  0  0  0  0  0  0  0  0  0
    2.5642   -2.5194    1.0948 H   0  0  0  0  0  0  0  0  0  0  0  0
    3.4711   -4.0367    0.5266 H   0  0  0  0  0  0  0  0  0  0  0  0
    2.1311   -3.8063   -1.4022 H   0  0  0  0  0  0  0  0  0  0  0  0
    4.4737   -3.2895   -2.0552 H   0  0  0  0  0  0  0  0  0  0  0  0
    3.9288   -1.5110   -2.1662 H   0  0  0  0  0  0  0  0  0  0  0  0
    0.1384   -3.1228   -1.8242 H   0  0  0  0  0  0  0  0  0  0  0  0
    7.5217    1.5293    1.1408 H   0  0  0  0  0  0  0  0  0  0  0  0
    7.5852    3.3007    0.9858 H   0  0  0  0  0  0  0  0  0  0  0  0
  1  2  1  0
  2  3  2  0
  3  4  1  0
  4  5  2  0
  5  6  1  0
  4  7  1  0
  7  8  1  0
  7  9  1  0
  7 10  1  6
 10 11  3  0
 11 12  1  0
 12 13  1  0
 13 14  2  0
 14 15  1  0
 15 16  1  0
 16 17  2  0
 17 18  1  0
 18 19  1  0
 19 20  1  0
 20 21  1  0
 21 22  1  0
 22 23  1  0
 22 24  1  0
 24 25  2  0
 25 26  1  0
 26 27  1  0
 17 28  1  0
 28 29  1  0
 28 30  2  0
  6  2  1  0
 26 12  2  0
 24 14  1  0
 19 15  2  0
 23 20  1  0
  1 31  1  0
  1 32  1  0
  1 33  1  0
  3 34  1  0
  8 35  1  0
  8 36  1  0
  8 37  1  0
  9 38  1  0
 13 39  1  0
 18 40  1  0
 20 41  1  0
 21 42  1  0
 21 43  1  0
 22 44  1  0
 23 45  1  0
 23 46  1  0
 25 47  1  0
 29 48  1  0
 29 49  1  0
M  END
$$$$
[H]OC(C#Cc1c([H])c2c(c([H])c1F)OC([H])([H])C([H])([H])n1c-2nc(C(=O)N([H])[H])c1-c1c([H])nn(C([H])([H])C(O[H])(C([H])([H])[H])C([H])([H])[H])c1[H])(C([H])([H])[H])C([H])([H])[H]
     RDKit          3D

 60 63  0  0  0  0  0  0  0  0999 V2000
   -6.0778    1.2486   -0.1159 C   0  0  0  0  0  0  0  0  0  0  0  0
   -6.9090   -0.0338   -0.2315 C   0  0  0  0  0  0  0  0  0  0  0  0
   -8.1677    0.3160   -0.9964 C   0  0  0  0  0  0  0  0  0  0  0  0
   -7.2643   -0.5182    1.0050 O   0  0  0  0  0  0  0  0  0  0  0  0
   -6.1072   -1.0135   -1.0361 C   0  0  0  0  0  0  0  0  0  0  0  0
   -4.8296   -1.3272   -0.4150 N   0  0  0  0  0  0  0  0  0  0  0  0
   -3.7008   -0.6142   -0.6739 C   0  0  0  0  0  0  0  0  0  0  0  0
   -2.6315   -1.1352    0.0535 C   0  0  0  0  0  0  0  0  0  0  0  0
   -3.1811   -2.1767    0.7475 C   0  0  0  0  0  0  0  0  0  0  0  0
   -4.5023   -2.2427    0.4254 N   0  0  0  0  0  0  0  0  0  0  0  0
   -1.2115   -0.7382   -0.0186 C   0  0  0  0  0  0  0  0  0  0  0  0
   -0.7067    0.1430   -0.9361 C   0  0  0  0  0  0  0  0  0  0  0  0
    0.5786    0.4437   -0.5118 N   0  0  0  0  0  0  0  0  0  0  0  0
    0.8004   -0.2388    0.5914 C   0  0  0  0  0  0  0  0  0  0  0  0
    2.0589   -0.1807    1.3624 C   0  0  0  0  0  0  0  0  0  0  0  0
    3.1317    0.1559    0.5238 C   0  0  0  0  0  0  0  0  0  0  0  0
    4.3615    0.2505    1.1088 C   0  0  0  0  0  0  0  0  0  0  0  0
    5.4909    0.5987    0.2590 C   0  0  0  0  0  0  0  0  0  0  0  0
    6.4332    0.8982   -0.4307 C   0  0  0  0  0  0  0  0  0  0  0  0
    7.5849    1.2651   -1.2578 C   0  0  0  0  0  0  0  0  0  0  0  0
    7.8826    2.7367   -1.0479 C   0  0  0  0  0  0  0  0  0  0  0  0
    7.2650    0.9569   -2.7043 C   0  0  0  0  0  0  0  0  0  0  0  0
    8.6673    0.4834   -0.8631 O   0  0  0  0  0  0  0  0  0  0  0  0
    4.5388    0.0264    2.4561 C   0  0  0  0  0  0  0  0  0  0  0  0
    5.8095    0.1397    2.9774 F   0  0  0  0  0  0  0  0  0  0  0  0
    3.4760   -0.3046    3.2744 C   0  0  0  0  0  0  0  0  0  0  0  0
    2.2217   -0.4076    2.7128 C   0  0  0  0  0  0  0  0  0  0  0  0
    1.2183   -0.7488    3.6431 O   0  0  0  0  0  0  0  0  0  0  0  0
   -0.1802   -0.9104    3.3433 C   0  0  0  0  0  0  0  0  0  0  0  0
   -0.3176   -1.8252    2.0991 C   0  0  0  0  0  0  0  0  0  0  0  0
   -0.2975   -0.9914    0.9283 N   0  0  0  0  0  0  0  0  0  0  0  0
   -1.1733    0.6183   -2.2389 C   0  0  0  0  0  0  0  0  0  0  0  0
   -0.8834    1.9479   -2.6779 N   0  0  0  0  0  0  0  0  0  0  0  0
   -1.8256   -0.0936   -3.0032 O   0  0  0  0  0  0  0  0  0  0  0  0
   -6.7449    2.0726    0.2417 H   0  0  0  0  0  0  0  0  0  0  0  0
   -5.2593    1.1407    0.6115 H   0  0  0  0  0  0  0  0  0  0  0  0
   -5.7056    1.4653   -1.1368 H   0  0  0  0  0  0  0  0  0  0  0  0
   -9.0540   -0.2380   -0.6425 H   0  0  0  0  0  0  0  0  0  0  0  0
   -7.9616    0.1774   -2.0660 H   0  0  0  0  0  0  0  0  0  0  0  0
   -8.4148    1.4058   -0.8713 H   0  0  0  0  0  0  0  0  0  0  0  0
   -6.4584   -0.5376    1.5728 H   0  0  0  0  0  0  0  0  0  0  0  0
   -6.6846   -1.9586   -1.0829 H   0  0  0  0  0  0  0  0  0  0  0  0
   -5.9006   -0.6276   -2.0472 H   0  0  0  0  0  0  0  0  0  0  0  0
   -3.6436    0.2507   -1.2994 H   0  0  0  0  0  0  0  0  0  0  0  0
   -2.7939   -2.9051    1.4318 H   0  0  0  0  0  0  0  0  0  0  0  0
    2.9199    0.3160   -0.5142 H   0  0  0  0  0  0  0  0  0  0  0  0
    8.9248    2.9861   -1.3215 H   0  0  0  0  0  0  0  0  0  0  0  0
    7.1549    3.3575   -1.5712 H   0  0  0  0  0  0  0  0  0  0  0  0
    7.7818    2.9365    0.0394 H   0  0  0  0  0  0  0  0  0  0  0  0
    7.2295   -0.1486   -2.7909 H   0  0  0  0  0  0  0  0  0  0  0  0
    6.2641    1.3336   -2.9823 H   0  0  0  0  0  0  0  0  0  0  0  0
    8.0701    1.3821   -3.3500 H   0  0  0  0  0  0  0  0  0  0  0  0
    8.3390   -0.4585   -0.7397 H   0  0  0  0  0  0  0  0  0  0  0  0
    3.6107   -0.4831    4.3413 H   0  0  0  0  0  0  0  0  0  0  0  0
   -0.6745   -1.4444    4.1548 H   0  0  0  0  0  0  0  0  0  0  0  0
   -0.6506    0.0447    3.0635 H   0  0  0  0  0  0  0  0  0  0  0  0
   -1.0344   -2.5711    2.2261 H   0  0  0  0  0  0  0  0  0  0  0  0
    0.6978   -2.3886    2.0498 H   0  0  0  0  0  0  0  0  0  0  0  0
   -1.5240    2.7108   -2.4283 H   0  0  0  0  0  0  0  0  0  0  0  0
   -0.0399    2.1471   -3.2408 H   0  0  0  0  0  0  0  0  0  0  0  0
  1  2  1  0
  2  3  1  0
  2  4  1  0
  2  5  1  0
  5  6  1  0
  6  7  1  0
  7  8  2  0
  8  9  1  0
  9 10  2  0
  8 11  1  0
 11 12  2  0
 12 13  1  0
 13 14  2  0
 14 15  1  0
 15 16  2  0
 16 17  1  0
 17 18  1  0
 18 19  3  0
 19 20  1  0
 20 21  1  0
 20 22  1  0
 20 23  1  0
 17 24  2  0
 24 25  1  0
 24 26  1  0
 26 27  2  0
 27 28  1  0
 28 29  1  0
 29 30  1  0
 30 31  1  0
 12 32  1  0
 32 33  1  0
 32 34  2  0
 10  6  1  0
 31 11  1  0
 31 14  1  0
 27 15  1  0
  1 35  1  0
  1 36  1  0
  1 37  1  0
  3 38  1  0
  3 39  1  0
  3 40  1  0
  4 41  1  0
  5 42  1  0
  5 43  1  0
  7 44  1  0
  9 45  1  0
 16 46  1  0
 21 47  1  0
 21 48  1  0
 21 49  1  0
 22 50  1  0
 22 51  1  0
 22 52  1  0
 23 53  1  0
 26 54  1  0
 29 55  1  0
 29 56  1  0
 30 57  1  0
 30 58  1  0
 33 59  1  0
 33 60  1  0
M  END
$$$$
[H]c1nc(N([H])[H])nc(-n2c([H])c([H])c3c([H])c([H])c(Br)c([H])c32)c1[H]
     RDKit          3D

 26 28  0  0  0  0  0  0  0  0999 V2000
   -4.5805   -0.5671    0.9994 N   0  0  0  0  0  0  0  0  0  0  0  0
   -3.4564   -0.5725    0.1290 C   0  0  0  0  0  0  0  0  0  0  0  0
   -3.5011   -1.1719   -1.0760 N   0  0  0  0  0  0  0  0  0  0  0  0
   -2.4015   -1.1359   -1.8420 C   0  0  0  0  0  0  0  0  0  0  0  0
   -1.2505   -0.5022   -1.4116 C   0  0  0  0  0  0  0  0  0  0  0  0
   -1.1969    0.1204   -0.1656 C   0  0  0  0  0  0  0  0  0  0  0  0
   -2.3236    0.0554    0.5612 N   0  0  0  0  0  0  0  0  0  0  0  0
   -0.0165    0.7756    0.2868 N   0  0  0  0  0  0  0  0  0  0  0  0
    0.1029    2.0766    0.6142 C   0  0  0  0  0  0  0  0  0  0  0  0
    1.3918    2.3645    1.0106 C   0  0  0  0  0  0  0  0  0  0  0  0
    2.0880    1.1819    0.9195 C   0  0  0  0  0  0  0  0  0  0  0  0
    3.4103    0.9006    1.1946 C   0  0  0  0  0  0  0  0  0  0  0  0
    3.8583   -0.3841    1.0166 C   0  0  0  0  0  0  0  0  0  0  0  0
    2.9998   -1.3612    0.5734 C   0  0  0  0  0  0  0  0  0  0  0  0
    3.6994   -3.1211    0.3515 Br  0  0  0  0  0  0  0  0  0  0  0  0
    1.6871   -1.0535    0.3067 C   0  0  0  0  0  0  0  0  0  0  0  0
    1.1913    0.2377    0.4740 C   0  0  0  0  0  0  0  0  0  0  0  0
   -4.8374   -1.4305    1.5084 H   0  0  0  0  0  0  0  0  0  0  0  0
   -5.1250    0.2852    1.1163 H   0  0  0  0  0  0  0  0  0  0  0  0
   -2.4631   -1.6298   -2.8158 H   0  0  0  0  0  0  0  0  0  0  0  0
   -0.3682   -0.4729   -2.0255 H   0  0  0  0  0  0  0  0  0  0  0  0
   -0.6869    2.7957    0.5756 H   0  0  0  0  0  0  0  0  0  0  0  0
    1.7971    3.3352    1.3360 H   0  0  0  0  0  0  0  0  0  0  0  0
    4.0444    1.7040    1.5406 H   0  0  0  0  0  0  0  0  0  0  0  0
    4.9151   -0.5846    1.2420 H   0  0  0  0  0  0  0  0  0  0  0  0
    1.0220   -1.8454   -0.0446 H   0  0  0  0  0  0  0  0  0  0  0  0
  1  2  1  0
  2  3  2  0
  3  4  1  0
  4  5  2  0
  5  6  1  0
  6  7  2  0
  6  8  1  0
  8  9  1  0
  9 10  2  0
 10 11  1  0
 11 12  2  0
 12 13  1  0
 13 14  2  0
 14 15  1  0
 14 16  1  0
 16 17  2  0
  7  2  1  0
 17  8  1  0
 17 11  1  0
  1 18  1  0
  1 19  1  0
  4 20  1  0
  5 21  1  0
  9 22  1  0
 10 23  1  0
 12 24  1  0
 13 25  1  0
 16 26  1  0
M  END
$$$$
[H]O[C@]1(C#Cc2c([H])c([H])nc(-n3nc(C(=O)N([H])[H])c4c([H])c([H])c([H])c([H])c43)c2[H])C(=O)N(C([H])([H])[H])C([H])([H])C1([H])[H]
     RDKit          3D

 45 48  0  0  0  0  0  0  0  0999 V2000
    7.0244   -0.0364    1.8660 C   0  0  0  0  0  0  0  0  0  0  0  0
    5.8728    0.3446    1.0546 N   0  0  0  0  0  0  0  0  0  0  0  0
    5.7964    0.2957   -0.4115 C   0  0  0  0  0  0  0  0  0  0  0  0
    4.9071    1.4590   -0.7177 C   0  0  0  0  0  0  0  0  0  0  0  0
    3.8536    1.4012    0.3703 C   0  0  1  0  0  0  0  0  0  0  0  0
    3.3653    2.6666    0.6062 O   0  0  0  0  0  0  0  0  0  0  0  0
    2.7324    0.5242   -0.0303 C   0  0  0  0  0  0  0  0  0  0  0  0
    1.8207   -0.1871   -0.3769 C   0  0  0  0  0  0  0  0  0  0  0  0
    0.7228   -1.0195   -0.8060 C   0  0  0  0  0  0  0  0  0  0  0  0
    0.9121   -2.1181   -1.6318 C   0  0  0  0  0  0  0  0  0  0  0  0
   -0.1253   -2.9245   -2.0518 C   0  0  0  0  0  0  0  0  0  0  0  0
   -1.3614   -2.6096   -1.6280 N   0  0  0  0  0  0  0  0  0  0  0  0
   -1.6155   -1.5584   -0.8262 C   0  0  0  0  0  0  0  0  0  0  0  0
   -0.5725   -0.7564   -0.4104 C   0  0  0  0  0  0  0  0  0  0  0  0
   -2.9375   -1.2412   -0.3872 N   0  0  0  0  0  0  0  0  0  0  0  0
   -3.8133   -1.9896    0.2375 N   0  0  0  0  0  0  0  0  0  0  0  0
   -4.9622   -1.3367    0.4878 C   0  0  0  0  0  0  0  0  0  0  0  0
   -6.1463   -1.8573    1.1612 C   0  0  0  0  0  0  0  0  0  0  0  0
   -7.3144   -1.1361    1.3957 N   0  0  0  0  0  0  0  0  0  0  0  0
   -6.1393   -3.0660    1.5791 O   0  0  0  0  0  0  0  0  0  0  0  0
   -4.7921   -0.0697   -0.0241 C   0  0  0  0  0  0  0  0  0  0  0  0
   -5.5762    1.0628   -0.0926 C   0  0  0  0  0  0  0  0  0  0  0  0
   -5.1027    2.2246   -0.6940 C   0  0  0  0  0  0  0  0  0  0  0  0
   -3.8382    2.2804   -1.2390 C   0  0  0  0  0  0  0  0  0  0  0  0
   -3.0668    1.1408   -1.1628 C   0  0  0  0  0  0  0  0  0  0  0  0
   -3.5098   -0.0316   -0.5704 C   0  0  0  0  0  0  0  0  0  0  0  0
    4.6153    0.8302    1.4941 C   0  0  0  0  0  0  0  0  0  0  0  0
    4.2164    0.7765    2.6765 O   0  0  0  0  0  0  0  0  0  0  0  0
    6.6863   -0.3878    2.8444 H   0  0  0  0  0  0  0  0  0  0  0  0
    7.7510    0.7978    1.9529 H   0  0  0  0  0  0  0  0  0  0  0  0
    7.5345   -0.8768    1.3595 H   0  0  0  0  0  0  0  0  0  0  0  0
    5.2536   -0.6401   -0.6500 H   0  0  0  0  0  0  0  0  0  0  0  0
    6.7944    0.3597   -0.8676 H   0  0  0  0  0  0  0  0  0  0  0  0
    4.3844    1.2793   -1.6762 H   0  0  0  0  0  0  0  0  0  0  0  0
    5.4432    2.4263   -0.7108 H   0  0  0  0  0  0  0  0  0  0  0  0
    3.4975    3.2000   -0.2137 H   0  0  0  0  0  0  0  0  0  0  0  0
    1.9276   -2.3359   -1.9504 H   0  0  0  0  0  0  0  0  0  0  0  0
    0.0369   -3.7756   -2.6940 H   0  0  0  0  0  0  0  0  0  0  0  0
   -0.8013    0.0821    0.2333 H   0  0  0  0  0  0  0  0  0  0  0  0
   -8.0876   -1.0286    0.6793 H   0  0  0  0  0  0  0  0  0  0  0  0
   -7.5141   -0.6417    2.3101 H   0  0  0  0  0  0  0  0  0  0  0  0
   -6.5617    1.0465    0.3228 H   0  0  0  0  0  0  0  0  0  0  0  0
   -5.7610    3.0970   -0.7241 H   0  0  0  0  0  0  0  0  0  0  0  0
   -3.4855    3.1929   -1.7034 H   0  0  0  0  0  0  0  0  0  0  0  0
   -2.0640    1.1361   -1.5780 H   0  0  0  0  0  0  0  0  0  0  0  0
  1  2  1  0
  2  3  1  0
  3  4  1  0
  4  5  1  0
  5  6  1  0
  5  7  1  6
  7  8  3  0
  8  9  1  0
  9 10  2  0
 10 11  1  0
 11 12  2  0
 12 13  1  0
 13 14  2  0
 13 15  1  0
 15 16  1  0
 16 17  2  0
 17 18  1  0
 18 19  1  0
 18 20  2  0
 17 21  1  0
 21 22  2  0
 22 23  1  0
 23 24  2  0
 24 25  1  0
 25 26  2  0
  5 27  1  0
 27 28  2  0
 27  2  1  0
 14  9  1  0
 26 15  1  0
 26 21  1  0
  1 29  1  0
  1 30  1  0
  1 31  1  0
  3 32  1  0
  3 33  1  0
  4 34  1  0
  4 35  1  0
  6 36  1  0
 10 37  1  0
 11 38  1  0
 14 39  1  0
 19 40  1  0
 19 41  1  0
 22 42  1  0
 23 43  1  0
 24 44  1  0
 25 45  1  0
M  END
$$$$
[H]OC(C#Cc1c([H])c([H])c2c(c1[H])-c1nc(C(=O)N([H])[H])c(-c3nn([H])c([H])c3[H])n1C([H])([H])C([H])([H])O2)(C([H])([H])[H])C([H])([H])[H]
     RDKit          3D

 47 50  0  0  0  0  0  0  0  0999 V2000
   -6.7955   -0.2103   -0.9854 C   0  0  0  0  0  0  0  0  0  0  0  0
   -6.1055   -0.4573    0.3404 C   0  0  0  0  0  0  0  0  0  0  0  0
   -5.9273   -1.9500    0.4922 C   0  0  0  0  0  0  0  0  0  0  0  0
   -6.9349    0.0160    1.3574 O   0  0  0  0  0  0  0  0  0  0  0  0
   -4.7825    0.1619    0.3711 C   0  0  0  0  0  0  0  0  0  0  0  0
   -3.6948    0.6801    0.3931 C   0  0  0  0  0  0  0  0  0  0  0  0
   -2.3830    1.3148    0.4403 C   0  0  0  0  0  0  0  0  0  0  0  0
   -2.2582    2.6561    0.7343 C   0  0  0  0  0  0  0  0  0  0  0  0
   -1.0406    3.3137    0.7934 C   0  0  0  0  0  0  0  0  0  0  0  0
    0.0946    2.5683    0.5413 C   0  0  0  0  0  0  0  0  0  0  0  0
    1.2946    3.3137    0.6201 O   0  0  0  0  0  0  0  0  0  0  0  0
    2.4307    2.9931   -0.1492 C   0  0  0  0  0  0  0  0  0  0  0  0
    3.1588    1.7379    0.3695 C   0  0  0  0  0  0  0  0  0  0  0  0
    2.4426    0.5181    0.0633 N   0  0  0  0  0  0  0  0  0  0  0  0
    1.1141    0.3024   -0.0252 C   0  0  0  0  0  0  0  0  0  0  0  0
    0.8710   -0.9599   -0.3858 N   0  0  0  0  0  0  0  0  0  0  0  0
    2.0717   -1.6185   -0.5423 C   0  0  0  0  0  0  0  0  0  0  0  0
    2.1614   -3.0139   -0.9183 C   0  0  0  0  0  0  0  0  0  0  0  0
    3.2748   -3.8644   -0.9118 N   0  0  0  0  0  0  0  0  0  0  0  0
    1.0816   -3.5963   -1.3179 O   0  0  0  0  0  0  0  0  0  0  0  0
    3.0338   -0.6908   -0.2603 C   0  0  0  0  0  0  0  0  0  0  0  0
    4.4997   -0.8566   -0.3541 C   0  0  0  0  0  0  0  0  0  0  0  0
    5.4996   -0.2346    0.3813 C   0  0  0  0  0  0  0  0  0  0  0  0
    6.7518   -0.7564    0.0258 C   0  0  0  0  0  0  0  0  0  0  0  0
    6.4747   -1.6769   -0.9106 N   0  0  0  0  0  0  0  0  0  0  0  0
    5.1834   -1.7298   -1.1236 N   0  0  0  0  0  0  0  0  0  0  0  0
   -0.0092    1.2268    0.2462 C   0  0  0  0  0  0  0  0  0  0  0  0
   -1.2395    0.5870    0.1918 C   0  0  0  0  0  0  0  0  0  0  0  0
   -6.0521   -0.2530   -1.8023 H   0  0  0  0  0  0  0  0  0  0  0  0
   -7.5966   -0.9776   -1.1293 H   0  0  0  0  0  0  0  0  0  0  0  0
   -7.3206    0.7826   -0.9424 H   0  0  0  0  0  0  0  0  0  0  0  0
   -5.9973   -2.4641   -0.5045 H   0  0  0  0  0  0  0  0  0  0  0  0
   -5.0031   -2.2166    1.0251 H   0  0  0  0  0  0  0  0  0  0  0  0
   -6.7859   -2.3672    1.0827 H   0  0  0  0  0  0  0  0  0  0  0  0
   -6.7471    0.9712    1.5402 H   0  0  0  0  0  0  0  0  0  0  0  0
   -3.1670    3.2255    0.9300 H   0  0  0  0  0  0  0  0  0  0  0  0
   -0.9536    4.3696    1.0256 H   0  0  0  0  0  0  0  0  0  0  0  0
    2.1964    2.7597   -1.2055 H   0  0  0  0  0  0  0  0  0  0  0  0
    3.1531    3.8354   -0.1850 H   0  0  0  0  0  0  0  0  0  0  0  0
    3.4599    1.8573    1.4018 H   0  0  0  0  0  0  0  0  0  0  0  0
    4.0758    1.7357   -0.3073 H   0  0  0  0  0  0  0  0  0  0  0  0
    3.6472   -4.2371   -1.8146 H   0  0  0  0  0  0  0  0  0  0  0  0
    3.7896   -4.1799   -0.0418 H   0  0  0  0  0  0  0  0  0  0  0  0
    5.3701    0.5222    1.1348 H   0  0  0  0  0  0  0  0  0  0  0  0
    7.7033   -0.4518    0.4427 H   0  0  0  0  0  0  0  0  0  0  0  0
    7.2474   -2.2369   -1.3627 H   0  0  0  0  0  0  0  0  0  0  0  0
   -1.2874   -0.4491   -0.0389 H   0  0  0  0  0  0  0  0  0  0  0  0
  1  2  1  0
  2  3  1  0
  2  4  1  0
  2  5  1  0
  5  6  3  0
  6  7  1  0
  7  8  2  0
  8  9  1  0
  9 10  2  0
 10 11  1  0
 11 12  1  0
 12 13  1  0
 13 14  1  0
 14 15  1  0
 15 16  2  0
 16 17  1  0
 17 18  1  0
 18 19  1  0
 18 20  2  0
 17 21  2  0
 21 22  1  0
 22 23  1  0
 23 24  2  0
 24 25  1  0
 25 26  1  0
 15 27  1  0
 27 28  2  0
 28  7  1  0
 27 10  1  0
 21 14  1  0
 26 22  2  0
  1 29  1  0
  1 30  1  0
  1 31  1  0
  3 32  1  0
  3 33  1  0
  3 34  1  0
  4 35  1  0
  8 36  1  0
  9 37  1  0
 12 38  1  0
 12 39  1  0
 13 40  1  0
 13 41  1  0
 19 42  1  0
 19 43  1  0
 23 44  1  0
 24 45  1  0
 25 46  1  0
 28 47  1  0
M  END
$$$$
[H]O[C@]1(C#Cc2c([H])c([H])c([H])c(-c3nc(C(=O)N([H])[H])nc([H])c3[H])c2[H])C(=O)N(C([H])([H])[H])C([H])([H])C1([H])[H]
     RDKit          3D

 41 43  0  0  0  0  0  0  0  0999 V2000
   -6.1250   -2.0773    0.2139 C   0  0  0  0  0  0  0  0  0  0  0  0
   -5.3609   -0.8421    0.2397 N   0  0  0  0  0  0  0  0  0  0  0  0
   -5.4759    0.1133    1.3351 C   0  0  0  0  0  0  0  0  0  0  0  0
   -4.1511    0.8409    1.2746 C   0  0  0  0  0  0  0  0  0  0  0  0
   -3.8796    0.8917   -0.2126 C   0  0  1  0  0  0  0  0  0  0  0  0
   -4.5738    2.0060   -0.7089 O   0  0  0  0  0  0  0  0  0  0  0  0
   -2.4549    0.9637   -0.5170 C   0  0  0  0  0  0  0  0  0  0  0  0
   -1.2725    1.0440   -0.7676 C   0  0  0  0  0  0  0  0  0  0  0  0
    0.1254    1.1630   -1.0654 C   0  0  0  0  0  0  0  0  0  0  0  0
    0.5943    2.0795   -2.0101 C   0  0  0  0  0  0  0  0  0  0  0  0
    1.9456    2.1583   -2.2630 C   0  0  0  0  0  0  0  0  0  0  0  0
    2.8023    1.3339   -1.5808 C   0  0  0  0  0  0  0  0  0  0  0  0
    2.3790    0.4039   -0.6290 C   0  0  0  0  0  0  0  0  0  0  0  0
    1.0208    0.3476   -0.3968 C   0  0  0  0  0  0  0  0  0  0  0  0
    3.3366   -0.4453    0.0640 C   0  0  0  0  0  0  0  0  0  0  0  0
    2.9793   -1.3771    1.0090 C   0  0  0  0  0  0  0  0  0  0  0  0
    3.9497   -2.1665    1.6426 C   0  0  0  0  0  0  0  0  0  0  0  0
    5.2401   -2.0030    1.3160 N   0  0  0  0  0  0  0  0  0  0  0  0
    5.5932   -1.1022    0.4014 C   0  0  0  0  0  0  0  0  0  0  0  0
    4.6445   -0.3330   -0.2156 N   0  0  0  0  0  0  0  0  0  0  0  0
    6.9991   -0.9462    0.0668 C   0  0  0  0  0  0  0  0  0  0  0  0
    7.4603   -0.0105   -0.8956 N   0  0  0  0  0  0  0  0  0  0  0  0
    7.8447   -1.6629    0.6469 O   0  0  0  0  0  0  0  0  0  0  0  0
   -4.4299   -0.3631   -0.7171 C   0  0  0  0  0  0  0  0  0  0  0  0
   -4.1537   -0.9387   -1.7912 O   0  0  0  0  0  0  0  0  0  0  0  0
   -7.1360   -1.8250   -0.1656 H   0  0  0  0  0  0  0  0  0  0  0  0
   -6.2840   -2.4368    1.2641 H   0  0  0  0  0  0  0  0  0  0  0  0
   -5.6253   -2.8798   -0.3469 H   0  0  0  0  0  0  0  0  0  0  0  0
   -6.3418    0.7940    1.1553 H   0  0  0  0  0  0  0  0  0  0  0  0
   -5.6442   -0.3983    2.2989 H   0  0  0  0  0  0  0  0  0  0  0  0
   -4.3238    1.8644    1.6733 H   0  0  0  0  0  0  0  0  0  0  0  0
   -3.3884    0.2799    1.8359 H   0  0  0  0  0  0  0  0  0  0  0  0
   -3.8653    2.6845   -0.9238 H   0  0  0  0  0  0  0  0  0  0  0  0
   -0.1451    2.6929   -2.5045 H   0  0  0  0  0  0  0  0  0  0  0  0
    2.3011    2.8563   -2.9824 H   0  0  0  0  0  0  0  0  0  0  0  0
    3.8689    1.3724   -1.7575 H   0  0  0  0  0  0  0  0  0  0  0  0
    0.6198   -0.3395    0.3179 H   0  0  0  0  0  0  0  0  0  0  0  0
    1.9588   -1.5148    1.2754 H   0  0  0  0  0  0  0  0  0  0  0  0
    3.6960   -2.9009    2.3838 H   0  0  0  0  0  0  0  0  0  0  0  0
    7.7983   -0.3420   -1.8144 H   0  0  0  0  0  0  0  0  0  0  0  0
    7.4733    1.0149   -0.7127 H   0  0  0  0  0  0  0  0  0  0  0  0
  1  2  1  0
  2  3  1  0
  3  4  1  0
  4  5  1  0
  5  6  1  0
  5  7  1  1
  7  8  3  0
  8  9  1  0
  9 10  2  0
 10 11  1  0
 11 12  2  0
 12 13  1  0
 13 14  2  0
 13 15  1  0
 15 16  2  0
 16 17  1  0
 17 18  2  0
 18 19  1  0
 19 20  2  0
 19 21  1  0
 21 22  1  0
 21 23  2  0
  5 24  1  0
 24 25  2  0
 24  2  1  0
 14  9  1  0
 20 15  1  0
  1 26  1  0
  1 27  1  0
  1 28  1  0
  3 29  1  0
  3 30  1  0
  4 31  1  0
  4 32  1  0
  6 33  1  0
 10 34  1  0
 11 35  1  0
 12 36  1  0
 14 37  1  0
 16 38  1  0
 17 39  1  0
 22 40  1  0
 22 41  1  0
M  END
$$$$
[H]O[C@](C#Cc1c([H])c([H])c2c(c1[H])-n1nc(C(=O)N([H])[H])c(C(=O)N([H])C([H])([H])[H])c1[C@]([H])(C([H])([H])[H])C([H])([H])O2)(c1noc(C([H])([H])[H])c1[H])C([H])([H])[H]
     RDKit          3D

 56 59  0  0  0  0  0  0  0  0999 V2000
   -7.1530    1.9185    0.0443 C   0  0  0  0  0  0  0  0  0  0  0  0
   -5.7384    1.6525    0.0315 N   0  0  0  0  0  0  0  0  0  0  0  0
   -5.1035    0.5162   -0.4970 C   0  0  0  0  0  0  0  0  0  0  0  0
   -5.8442   -0.3640   -0.9959 O   0  0  0  0  0  0  0  0  0  0  0  0
   -3.6765    0.2982   -0.4931 C   0  0  0  0  0  0  0  0  0  0  0  0
   -2.6472    1.0957   -0.8430 C   0  0  0  0  0  0  0  0  0  0  0  0
   -1.4983    0.4478   -0.5771 N   0  0  0  0  0  0  0  0  0  0  0  0
   -1.7993   -0.7394   -0.0713 N   0  0  0  0  0  0  0  0  0  0  0  0
   -3.1175   -0.9004    0.0119 C   0  0  0  0  0  0  0  0  0  0  0  0
   -3.9175   -1.9850    0.5217 C   0  0  2  0  0  0  0  0  0  0  0  0
   -4.8577   -1.5174    1.6446 C   0  0  0  0  0  0  0  0  0  0  0  0
   -3.3012   -3.2312    1.0049 C   0  0  0  0  0  0  0  0  0  0  0  0
   -2.1360   -3.6465    0.3680 O   0  0  0  0  0  0  0  0  0  0  0  0
   -0.8946   -2.9833    0.3921 C   0  0  0  0  0  0  0  0  0  0  0  0
    0.2138   -3.7611    0.5995 C   0  0  0  0  0  0  0  0  0  0  0  0
    1.4562   -3.1663    0.6407 C   0  0  0  0  0  0  0  0  0  0  0  0
    1.6558   -1.7931    0.4809 C   0  0  0  0  0  0  0  0  0  0  0  0
    0.5366   -1.0150    0.2684 C   0  0  0  0  0  0  0  0  0  0  0  0
   -0.6941   -1.6137    0.2280 C   0  0  0  0  0  0  0  0  0  0  0  0
    2.9837   -1.2378    0.5626 C   0  0  0  0  0  0  0  0  0  0  0  0
    4.0991   -0.7952    0.6631 C   0  0  0  0  0  0  0  0  0  0  0  0
    5.4597   -0.2881    0.8153 C   0  0  1  0  0  0  0  0  0  0  0  0
    5.6506    0.4004    2.1572 C   0  0  0  0  0  0  0  0  0  0  0  0
    6.3925   -1.3585    0.7621 O   0  0  0  0  0  0  0  0  0  0  0  0
    5.7266    0.6827   -0.2489 C   0  0  0  0  0  0  0  0  0  0  0  0
    6.8050    1.5826   -0.1675 C   0  0  0  0  0  0  0  0  0  0  0  0
    6.8092    2.3575   -1.3033 C   0  0  0  0  0  0  0  0  0  0  0  0
    7.7440    3.4625   -1.7088 C   0  0  0  0  0  0  0  0  0  0  0  0
    5.7762    1.9313   -2.0223 O   0  0  0  0  0  0  0  0  0  0  0  0
    5.1497    0.9625   -1.4131 N   0  0  0  0  0  0  0  0  0  0  0  0
   -2.7415    2.4120   -1.4909 C   0  0  0  0  0  0  0  0  0  0  0  0
   -3.8980    2.9361   -2.0545 N   0  0  0  0  0  0  0  0  0  0  0  0
   -1.6880    3.1350   -1.5502 O   0  0  0  0  0  0  0  0  0  0  0  0
   -7.2898    2.9881   -0.2343 H   0  0  0  0  0  0  0  0  0  0  0  0
   -7.5532    1.8323    1.0940 H   0  0  0  0  0  0  0  0  0  0  0  0
   -7.7092    1.2047   -0.5723 H   0  0  0  0  0  0  0  0  0  0  0  0
   -5.1174    2.3844    0.4974 H   0  0  0  0  0  0  0  0  0  0  0  0
   -4.6492   -2.2941   -0.3048 H   0  0  0  0  0  0  0  0  0  0  0  0
   -4.5511   -2.1045    2.5407 H   0  0  0  0  0  0  0  0  0  0  0  0
   -5.9027   -1.8178    1.4635 H   0  0  0  0  0  0  0  0  0  0  0  0
   -4.7008   -0.4762    1.9242 H   0  0  0  0  0  0  0  0  0  0  0  0
   -4.0518   -4.0960    0.9885 H   0  0  0  0  0  0  0  0  0  0  0  0
   -3.0603   -3.0506    2.1088 H   0  0  0  0  0  0  0  0  0  0  0  0
    0.0782   -4.8244    0.7199 H   0  0  0  0  0  0  0  0  0  0  0  0
    2.3446   -3.7404    0.8003 H   0  0  0  0  0  0  0  0  0  0  0  0
    0.6386    0.0554    0.1378 H   0  0  0  0  0  0  0  0  0  0  0  0
    5.8579    1.4684    2.0335 H   0  0  0  0  0  0  0  0  0  0  0  0
    6.4189   -0.1109    2.7807 H   0  0  0  0  0  0  0  0  0  0  0  0
    4.6936    0.3061    2.7009 H   0  0  0  0  0  0  0  0  0  0  0  0
    5.8812   -2.2038    0.7669 H   0  0  0  0  0  0  0  0  0  0  0  0
    7.5198    1.6738    0.6296 H   0  0  0  0  0  0  0  0  0  0  0  0
    7.3735    4.4374   -1.3604 H   0  0  0  0  0  0  0  0  0  0  0  0
    8.7353    3.2911   -1.2182 H   0  0  0  0  0  0  0  0  0  0  0  0
    7.9339    3.4048   -2.7893 H   0  0  0  0  0  0  0  0  0  0  0  0
   -4.4126    2.3916   -2.7844 H   0  0  0  0  0  0  0  0  0  0  0  0
   -4.2299    3.8851   -1.7220 H   0  0  0  0  0  0  0  0  0  0  0  0
  1  2  1  0
  2  3  1  0
  3  4  2  0
  3  5  1  0
  5  6  1  0
  6  7  2  0
  7  8  1  0
  8  9  1  0
  9 10  1  0
 10 11  1  0
 10 12  1  0
 12 13  1  0
 13 14  1  0
 14 15  2  0
 15 16  1  0
 16 17  2  0
 17 18  1  0
 18 19  2  0
 17 20  1  0
 20 21  3  0
 22 21  1  1
 22 23  1  0
 22 24  1  0
 22 25  1  0
 25 26  1  0
 26 27  2  0
 27 28  1  0
 27 29  1  0
 29 30  1  0
  6 31  1  0
 31 32  1  0
 31 33  2  0
  9  5  2  0
 19 14  1  0
 30 25  2  0
  8 19  1  0
  1 34  1  0
  1 35  1  0
  1 36  1  0
  2 37  1  0
 10 38  1  6
 11 39  1  0
 11 40  1  0
 11 41  1  0
 12 42  1  0
 12 43  1  0
 15 44  1  0
 16 45  1  0
 18 46  1  0
 23 47  1  0
 23 48  1  0
 23 49  1  0
 24 50  1  0
 26 51  1  0
 28 52  1  0
 28 53  1  0
 28 54  1  0
 32 55  1  0
 32 56  1  0
M  END
$$$$
[H]OC([H])([H])[C@]1(F)c2sc(C(=O)N([H])[H])nc2-c2c([H])c(C#C[C@@]3(O[H])C(=O)N(C([H])([H])[H])C([H])([H])C3([H])[H])c([H])c([H])c2OC1([H])[H]
     RDKit          3D

 48 51  0  0  0  0  0  0  0  0999 V2000
    6.6356   -0.8552   -1.7235 C   0  0  0  0  0  0  0  0  0  0  0  0
    5.6730   -0.2075   -0.8524 N   0  0  0  0  0  0  0  0  0  0  0  0
    5.5522    1.2300   -0.6926 C   0  0  0  0  0  0  0  0  0  0  0  0
    5.0126    1.4091    0.6902 C   0  0  0  0  0  0  0  0  0  0  0  0
    4.4005    0.1166    1.1159 C   0  0  1  0  0  0  0  0  0  0  0  0
    4.9970   -0.4211    2.2525 O   0  0  0  0  0  0  0  0  0  0  0  0
    2.9400    0.1912    1.2593 C   0  0  0  0  0  0  0  0  0  0  0  0
    1.7455    0.2439    1.3960 C   0  0  0  0  0  0  0  0  0  0  0  0
    0.3143    0.2917    1.5798 C   0  0  0  0  0  0  0  0  0  0  0  0
   -0.2282    0.4331    2.8527 C   0  0  0  0  0  0  0  0  0  0  0  0
   -1.5828    0.4842    3.0843 C   0  0  0  0  0  0  0  0  0  0  0  0
   -2.4149    0.3892    1.9917 C   0  0  0  0  0  0  0  0  0  0  0  0
   -3.7569    0.4529    2.3501 O   0  0  0  0  0  0  0  0  0  0  0  0
   -4.9179    0.5001    1.5329 C   0  0  0  0  0  0  0  0  0  0  0  0
   -4.9432   -0.5877    0.4955 C   0  0  2  0  0  0  0  0  0  0  0  0
   -6.2090   -0.6049   -0.0602 F   0  0  0  0  0  0  0  0  0  0  0  0
   -4.6441   -1.9310    1.0798 C   0  0  0  0  0  0  0  0  0  0  0  0
   -5.6173   -2.1931    2.0433 O   0  0  0  0  0  0  0  0  0  0  0  0
   -3.9833   -0.2382   -0.6148 C   0  0  0  0  0  0  0  0  0  0  0  0
   -4.3000   -0.2080   -2.2947 S   0  0  0  0  0  0  0  0  0  0  0  0
   -2.7509    0.2668   -2.8397 C   0  0  0  0  0  0  0  0  0  0  0  0
   -2.0759    0.3763   -1.7059 N   0  0  0  0  0  0  0  0  0  0  0  0
   -2.6596    0.1318   -0.5776 C   0  0  0  0  0  0  0  0  0  0  0  0
   -1.9201    0.2485    0.7159 C   0  0  0  0  0  0  0  0  0  0  0  0
   -0.5404    0.1999    0.5137 C   0  0  0  0  0  0  0  0  0  0  0  0
   -2.2730    0.4994   -4.2185 C   0  0  0  0  0  0  0  0  0  0  0  0
   -3.1810    0.3193   -5.2780 N   0  0  0  0  0  0  0  0  0  0  0  0
   -1.0954    0.8442   -4.4070 O   0  0  0  0  0  0  0  0  0  0  0  0
    4.6917   -0.7875   -0.0109 C   0  0  0  0  0  0  0  0  0  0  0  0
    4.1618   -1.9067   -0.2132 O   0  0  0  0  0  0  0  0  0  0  0  0
    7.6683   -0.7292   -1.3045 H   0  0  0  0  0  0  0  0  0  0  0  0
    6.4424   -1.9382   -1.7739 H   0  0  0  0  0  0  0  0  0  0  0  0
    6.6496   -0.4585   -2.7380 H   0  0  0  0  0  0  0  0  0  0  0  0
    4.8059    1.6122   -1.4381 H   0  0  0  0  0  0  0  0  0  0  0  0
    6.5216    1.7478   -0.8520 H   0  0  0  0  0  0  0  0  0  0  0  0
    4.2105    2.1835    0.6611 H   0  0  0  0  0  0  0  0  0  0  0  0
    5.7739    1.7066    1.4388 H   0  0  0  0  0  0  0  0  0  0  0  0
    4.3436   -0.8109    2.8796 H   0  0  0  0  0  0  0  0  0  0  0  0
    0.4188    0.5104    3.7361 H   0  0  0  0  0  0  0  0  0  0  0  0
   -1.9597    0.5943    4.0855 H   0  0  0  0  0  0  0  0  0  0  0  0
   -4.9928    1.4698    0.9858 H   0  0  0  0  0  0  0  0  0  0  0  0
   -5.7889    0.4332    2.2072 H   0  0  0  0  0  0  0  0  0  0  0  0
   -3.6325   -1.9417    1.4935 H   0  0  0  0  0  0  0  0  0  0  0  0
   -4.7832   -2.6943    0.2769 H   0  0  0  0  0  0  0  0  0  0  0  0
   -5.4511   -1.5307    2.7774 H   0  0  0  0  0  0  0  0  0  0  0  0
   -0.1456    0.0898   -0.4833 H   0  0  0  0  0  0  0  0  0  0  0  0
   -3.9148   -0.4424   -5.2737 H   0  0  0  0  0  0  0  0  0  0  0  0
   -3.1962    0.9228   -6.1427 H   0  0  0  0  0  0  0  0  0  0  0  0
  1  2  1  0
  2  3  1  0
  3  4  1  0
  4  5  1  0
  5  6  1  0
  5  7  1  1
  7  8  3  0
  8  9  1  0
  9 10  2  0
 10 11  1  0
 11 12  2  0
 12 13  1  0
 13 14  1  0
 14 15  1  0
 15 16  1  6
 15 17  1  0
 17 18  1  0
 15 19  1  0
 19 20  1  0
 20 21  1  0
 21 22  2  0
 22 23  1  0
 23 24  1  0
 24 25  2  0
 21 26  1  0
 26 27  1  0
 26 28  2  0
  5 29  1  0
 29 30  2  0
 29  2  1  0
 25  9  1  0
 24 12  1  0
 23 19  2  0
  1 31  1  0
  1 32  1  0
  1 33  1  0
  3 34  1  0
  3 35  1  0
  4 36  1  0
  4 37  1  0
  6 38  1  0
 10 39  1  0
 11 40  1  0
 14 41  1  0
 14 42  1  0
 17 43  1  0
 17 44  1  0
 18 45  1  0
 25 46  1  0
 27 47  1  0
 27 48  1  0
M  END
$$$$
[H]O[C@]1(C#Cc2c([H])c([H])c3c(c2[H])-n2nc(C(=O)N([H])[H])c([H])c2C2(C([H])([H])O3)C([H])([H])C2([H])[H])C(=O)N(C([H])([H])[H])C([H])([H])C1([H])[H]
     RDKit          3D

 49 53  0  0  0  0  0  0  0  0999 V2000
    7.5341   -0.0617   -0.6240 C   0  0  0  0  0  0  0  0  0  0  0  0
    6.3190    0.0743    0.1546 N   0  0  0  0  0  0  0  0  0  0  0  0
    5.6102    1.3320    0.3626 C   0  0  0  0  0  0  0  0  0  0  0  0
    4.7039    1.1006    1.5377 C   0  0  0  0  0  0  0  0  0  0  0  0
    4.5024   -0.4000    1.5590 C   0  0  1  0  0  0  0  0  0  0  0  0
    4.4031   -0.8977    2.8544 O   0  0  0  0  0  0  0  0  0  0  0  0
    3.2329   -0.6517    0.8356 C   0  0  0  0  0  0  0  0  0  0  0  0
    2.2036   -0.8373    0.2386 C   0  0  0  0  0  0  0  0  0  0  0  0
    0.9687   -1.0372   -0.4885 C   0  0  0  0  0  0  0  0  0  0  0  0
    0.9173   -1.7804   -1.6497 C   0  0  0  0  0  0  0  0  0  0  0  0
   -0.2778   -1.9416   -2.3037 C   0  0  0  0  0  0  0  0  0  0  0  0
   -1.4116   -1.3478   -1.7749 C   0  0  0  0  0  0  0  0  0  0  0  0
   -2.5327   -1.6050   -2.5516 O   0  0  0  0  0  0  0  0  0  0  0  0
   -3.6840   -0.7902   -2.6436 C   0  0  0  0  0  0  0  0  0  0  0  0
   -4.4581   -0.7130   -1.3503 C   0  0  0  0  0  0  0  0  0  0  0  0
   -5.9214   -0.4120   -1.5375 C   0  0  0  0  0  0  0  0  0  0  0  0
   -5.4830   -1.7439   -1.0136 C   0  0  0  0  0  0  0  0  0  0  0  0
   -3.7352   -0.0055   -0.2908 C   0  0  0  0  0  0  0  0  0  0  0  0
   -4.3886    0.7937    0.6225 C   0  0  0  0  0  0  0  0  0  0  0  0
   -3.4566    1.3315    1.5015 C   0  0  0  0  0  0  0  0  0  0  0  0
   -2.2708    0.8453    1.0977 N   0  0  0  0  0  0  0  0  0  0  0  0
   -2.4377    0.0605    0.0450 N   0  0  0  0  0  0  0  0  0  0  0  0
   -1.3417   -0.6078   -0.6124 C   0  0  0  0  0  0  0  0  0  0  0  0
   -0.1554   -0.4320    0.0612 C   0  0  0  0  0  0  0  0  0  0  0  0
   -3.7250    2.2367    2.6269 C   0  0  0  0  0  0  0  0  0  0  0  0
   -5.0269    2.6756    2.9469 N   0  0  0  0  0  0  0  0  0  0  0  0
   -2.7516    2.6257    3.3203 O   0  0  0  0  0  0  0  0  0  0  0  0
    5.6495   -0.9740    0.8182 C   0  0  0  0  0  0  0  0  0  0  0  0
    5.9544   -2.1866    0.7983 O   0  0  0  0  0  0  0  0  0  0  0  0
    7.6669    0.7614   -1.3530 H   0  0  0  0  0  0  0  0  0  0  0  0
    8.3807   -0.0493    0.1077 H   0  0  0  0  0  0  0  0  0  0  0  0
    7.5820   -1.0665   -1.1177 H   0  0  0  0  0  0  0  0  0  0  0  0
    4.9633    1.5715   -0.5206 H   0  0  0  0  0  0  0  0  0  0  0  0
    6.3156    2.1700    0.5562 H   0  0  0  0  0  0  0  0  0  0  0  0
    5.2419    1.4240    2.4502 H   0  0  0  0  0  0  0  0  0  0  0  0
    3.7560    1.6512    1.4342 H   0  0  0  0  0  0  0  0  0  0  0  0
    3.9963   -1.7859    2.8421 H   0  0  0  0  0  0  0  0  0  0  0  0
    1.8418   -2.2326   -2.0316 H   0  0  0  0  0  0  0  0  0  0  0  0
   -0.2856   -2.5288   -3.2101 H   0  0  0  0  0  0  0  0  0  0  0  0
   -3.4487    0.2067   -3.0540 H   0  0  0  0  0  0  0  0  0  0  0  0
   -4.3532   -1.2791   -3.3842 H   0  0  0  0  0  0  0  0  0  0  0  0
   -6.3528   -0.4727   -2.5770 H   0  0  0  0  0  0  0  0  0  0  0  0
   -6.4436    0.3165   -0.9165 H   0  0  0  0  0  0  0  0  0  0  0  0
   -5.5059   -2.6238   -1.6602 H   0  0  0  0  0  0  0  0  0  0  0  0
   -5.6990   -1.8973    0.0697 H   0  0  0  0  0  0  0  0  0  0  0  0
   -5.4497    1.0226    0.7160 H   0  0  0  0  0  0  0  0  0  0  0  0
   -0.1045    0.1545    0.9810 H   0  0  0  0  0  0  0  0  0  0  0  0
   -5.2003    3.5914    3.4086 H   0  0  0  0  0  0  0  0  0  0  0  0
   -5.8423    2.0737    2.7186 H   0  0  0  0  0  0  0  0  0  0  0  0
  1  2  1  0
  2  3  1  0
  3  4  1  0
  4  5  1  0
  5  6  1  0
  5  7  1  6
  7  8  3  0
  8  9  1  0
  9 10  2  0
 10 11  1  0
 11 12  2  0
 12 13  1  0
 13 14  1  0
 14 15  1  0
 15 16  1  0
 16 17  1  0
 15 18  1  0
 18 19  2  0
 19 20  1  0
 20 21  2  0
 21 22  1  0
 22 23  1  0
 23 24  2  0
 20 25  1  0
 25 26  1  0
 25 27  2  0
  5 28  1  0
 28 29  2  0
 28  2  1  0
 24  9  1  0
 23 12  1  0
 17 15  1  0
 22 18  1  0
  1 30  1  0
  1 31  1  0
  1 32  1  0
  3 33  1  0
  3 34  1  0
  4 35  1  0
  4 36  1  0
  6 37  1  0
 10 38  1  0
 11 39  1  0
 14 40  1  0
 14 41  1  0
 16 42  1  0
 16 43  1  0
 17 44  1  0
 17 45  1  0
 19 46  1  0
 24 47  1  0
 26 48  1  0
 26 49  1  0
M  END
$$$$
[H]O[C@@](C#Cc1c([H])c([H])c2c(c1[H])-c1nc(C(=O)N([H])[H])c([H])n1C1([H])C([H])([H])C2([H])C1([H])[H])(c1nc([H])c(C([H])([H])[H])o1)C([H])([H])[H]
     RDKit          3D

 49 53  0  0  0  0  0  0  0  0999 V2000
   -6.6880    2.6873   -0.3075 C   0  0  0  0  0  0  0  0  0  0  0  0
   -6.3289    1.3354    0.1910 C   0  0  0  0  0  0  0  0  0  0  0  0
   -7.1542    0.2352    0.2990 C   0  0  0  0  0  0  0  0  0  0  0  0
   -6.3761   -0.7376    0.7950 N   0  0  0  0  0  0  0  0  0  0  0  0
   -5.1281   -0.2592    0.9910 C   0  0  0  0  0  0  0  0  0  0  0  0
   -5.1491    0.9833    0.6128 O   0  0  0  0  0  0  0  0  0  0  0  0
   -4.0047   -1.0106    1.5284 C   0  0  1  0  0  0  0  0  0  0  0  0
   -3.5737   -0.5233    2.9087 C   0  0  0  0  0  0  0  0  0  0  0  0
   -4.4156   -2.3760    1.6776 O   0  0  0  0  0  0  0  0  0  0  0  0
   -2.7974   -0.9471    0.7052 C   0  0  0  0  0  0  0  0  0  0  0  0
   -1.7762   -0.9216    0.0455 C   0  0  0  0  0  0  0  0  0  0  0  0
   -0.5357   -0.9227   -0.7253 C   0  0  0  0  0  0  0  0  0  0  0  0
   -0.4944   -1.4168   -2.0016 C   0  0  0  0  0  0  0  0  0  0  0  0
    0.6763   -1.4516   -2.7671 C   0  0  0  0  0  0  0  0  0  0  0  0
    1.8177   -0.9706   -2.1937 C   0  0  0  0  0  0  0  0  0  0  0  0
    3.0393   -1.0371   -3.0603 C   0  0  0  0  0  0  0  0  0  0  0  0
    4.1934   -1.6666   -2.2681 C   0  0  0  0  0  0  0  0  0  0  0  0
    4.7328   -0.3027   -1.8822 C   0  0  0  0  0  0  0  0  0  0  0  0
    3.8547    0.2202   -3.0261 C   0  0  0  0  0  0  0  0  0  0  0  0
    4.2325    0.1481   -0.5877 N   0  0  0  0  0  0  0  0  0  0  0  0
    4.9676    0.6943    0.3861 C   0  0  0  0  0  0  0  0  0  0  0  0
    4.1660    1.0086    1.4839 C   0  0  0  0  0  0  0  0  0  0  0  0
    2.8968    0.6106    1.0874 N   0  0  0  0  0  0  0  0  0  0  0  0
    2.9456    0.0995   -0.1394 C   0  0  0  0  0  0  0  0  0  0  0  0
    1.8096   -0.4588   -0.8897 C   0  0  0  0  0  0  0  0  0  0  0  0
    0.6343   -0.4368   -0.1629 C   0  0  0  0  0  0  0  0  0  0  0  0
    4.5256    1.6099    2.7653 C   0  0  0  0  0  0  0  0  0  0  0  0
    5.8633    1.9581    3.0432 N   0  0  0  0  0  0  0  0  0  0  0  0
    3.6278    1.8128    3.6210 O   0  0  0  0  0  0  0  0  0  0  0  0
   -7.7577    2.8398   -0.1697 H   0  0  0  0  0  0  0  0  0  0  0  0
   -6.3980    2.7633   -1.3692 H   0  0  0  0  0  0  0  0  0  0  0  0
   -6.1513    3.4988    0.2397 H   0  0  0  0  0  0  0  0  0  0  0  0
   -8.1978    0.1763    0.0337 H   0  0  0  0  0  0  0  0  0  0  0  0
   -3.4811    0.5593    2.9045 H   0  0  0  0  0  0  0  0  0  0  0  0
   -4.2210   -0.9031    3.7067 H   0  0  0  0  0  0  0  0  0  0  0  0
   -2.5662   -0.9556    3.0805 H   0  0  0  0  0  0  0  0  0  0  0  0
   -4.6246   -2.6446    0.7229 H   0  0  0  0  0  0  0  0  0  0  0  0
   -1.3902   -1.7930   -2.4599 H   0  0  0  0  0  0  0  0  0  0  0  0
    0.7380   -1.8403   -3.7581 H   0  0  0  0  0  0  0  0  0  0  0  0
    2.8953   -1.5097   -4.0470 H   0  0  0  0  0  0  0  0  0  0  0  0
    4.8638   -2.3029   -2.8381 H   0  0  0  0  0  0  0  0  0  0  0  0
    3.7917   -2.2400   -1.3779 H   0  0  0  0  0  0  0  0  0  0  0  0
    5.7907   -0.1351   -2.0183 H   0  0  0  0  0  0  0  0  0  0  0  0
    4.4656    0.3636   -3.9340 H   0  0  0  0  0  0  0  0  0  0  0  0
    3.2769    1.1120   -2.6885 H   0  0  0  0  0  0  0  0  0  0  0  0
    6.0365    0.8757    0.3341 H   0  0  0  0  0  0  0  0  0  0  0  0
    0.5964   -0.0518    0.8188 H   0  0  0  0  0  0  0  0  0  0  0  0
    6.0672    2.8057    3.6329 H   0  0  0  0  0  0  0  0  0  0  0  0
    6.7045    1.4174    2.7155 H   0  0  0  0  0  0  0  0  0  0  0  0
  1  2  1  0
  2  3  2  0
  3  4  1  0
  4  5  2  0
  5  6  1  0
  5  7  1  0
  7  8  1  0
  7  9  1  0
  7 10  1  6
 10 11  3  0
 11 12  1  0
 12 13  2  0
 13 14  1  0
 14 15  2  0
 15 16  1  0
 16 17  1  0
 17 18  1  0
 18 19  1  0
 18 20  1  0
 20 21  1  0
 21 22  2  0
 22 23  1  0
 23 24  2  0
 24 25  1  0
 25 26  2  0
 22 27  1  0
 27 28  1  0
 27 29  2  0
  6  2  1  0
 26 12  1  0
 25 15  1  0
 19 16  1  0
 24 20  1  0
  1 30  1  0
  1 31  1  0
  1 32  1  0
  3 33  1  0
  8 34  1  0
  8 35  1  0
  8 36  1  0
  9 37  1  0
 13 38  1  0
 14 39  1  0
 16 40  1  0
 17 41  1  0
 17 42  1  0
 18 43  1  0
 19 44  1  0
 19 45  1  0
 21 46  1  0
 26 47  1  0
 28 48  1  0
 28 49  1  0
M  END
$$$$
[H]OC1(C#Cc2c([H])c3c(c([H])c2F)OC([H])([H])C([H])([H])c2sc(C(=O)N([H])[H])nc2-3)C([H])([H])C([H])([H])C([H])([H])C1([H])[H]
     RDKit          3D

 43 46  0  0  0  0  0  0  0  0999 V2000
    4.4297    0.6495    4.1672 N   0  0  0  0  0  0  0  0  0  0  0  0
    3.2893    0.5436    3.3538 C   0  0  0  0  0  0  0  0  0  0  0  0
    2.1637    0.4372    3.8607 O   0  0  0  0  0  0  0  0  0  0  0  0
    3.4201    0.5580    1.8957 C   0  0  0  0  0  0  0  0  0  0  0  0
    2.5052    0.4734    0.9558 N   0  0  0  0  0  0  0  0  0  0  0  0
    2.8256    0.5053   -0.2969 C   0  0  0  0  0  0  0  0  0  0  0  0
    4.1560    0.6309   -0.6070 C   0  0  0  0  0  0  0  0  0  0  0  0
    4.9429    0.7071   -1.8621 C   0  0  0  0  0  0  0  0  0  0  0  0
    4.2399    1.5146   -2.9245 C   0  0  0  0  0  0  0  0  0  0  0  0
    3.0607    0.8967   -3.3979 O   0  0  0  0  0  0  0  0  0  0  0  0
    1.8828    0.5819   -2.6986 C   0  0  0  0  0  0  0  0  0  0  0  0
    0.7891    0.4545   -3.5327 C   0  0  0  0  0  0  0  0  0  0  0  0
   -0.4266    0.1458   -2.9568 C   0  0  0  0  0  0  0  0  0  0  0  0
   -1.5082    0.0192   -3.7770 F   0  0  0  0  0  0  0  0  0  0  0  0
   -0.5607   -0.0326   -1.5956 C   0  0  0  0  0  0  0  0  0  0  0  0
    0.5362    0.0972   -0.7771 C   0  0  0  0  0  0  0  0  0  0  0  0
    1.7652    0.4070   -1.3383 C   0  0  0  0  0  0  0  0  0  0  0  0
   -1.8505   -0.3580   -1.0038 C   0  0  0  0  0  0  0  0  0  0  0  0
   -2.9219   -0.6133   -0.5302 C   0  0  0  0  0  0  0  0  0  0  0  0
   -4.2510   -0.9311    0.0293 C   0  0  0  0  0  0  0  0  0  0  0  0
   -5.2187   -0.9593   -0.9817 O   0  0  0  0  0  0  0  0  0  0  0  0
   -4.2537   -2.2181    0.7953 C   0  0  0  0  0  0  0  0  0  0  0  0
   -4.1237   -1.7925    2.2266 C   0  0  0  0  0  0  0  0  0  0  0  0
   -4.9639   -0.5344    2.2823 C   0  0  0  0  0  0  0  0  0  0  0  0
   -4.6090    0.1731    0.9723 C   0  0  0  0  0  0  0  0  0  0  0  0
    4.8638    0.6951    0.9437 S   0  0  0  0  0  0  0  0  0  0  0  0
    4.5249    0.0022    4.9824 H   0  0  0  0  0  0  0  0  0  0  0  0
    5.1965    1.3479    3.9998 H   0  0  0  0  0  0  0  0  0  0  0  0
    5.1935   -0.2874   -2.2779 H   0  0  0  0  0  0  0  0  0  0  0  0
    5.8955    1.2220   -1.6420 H   0  0  0  0  0  0  0  0  0  0  0  0
    4.9281    1.6448   -3.7621 H   0  0  0  0  0  0  0  0  0  0  0  0
    4.0316    2.5315   -2.5144 H   0  0  0  0  0  0  0  0  0  0  0  0
    0.9339    0.6006   -4.5851 H   0  0  0  0  0  0  0  0  0  0  0  0
    0.4552   -0.0377    0.2894 H   0  0  0  0  0  0  0  0  0  0  0  0
   -5.0774   -0.1261   -1.5297 H   0  0  0  0  0  0  0  0  0  0  0  0
   -5.1944   -2.7988    0.6336 H   0  0  0  0  0  0  0  0  0  0  0  0
   -3.4179   -2.8984    0.5274 H   0  0  0  0  0  0  0  0  0  0  0  0
   -4.4778   -2.5572    2.9515 H   0  0  0  0  0  0  0  0  0  0  0  0
   -3.0733   -1.5752    2.4892 H   0  0  0  0  0  0  0  0  0  0  0  0
   -4.7196    0.0913    3.1521 H   0  0  0  0  0  0  0  0  0  0  0  0
   -6.0313   -0.8369    2.2978 H   0  0  0  0  0  0  0  0  0  0  0  0
   -5.5442    0.7079    0.6666 H   0  0  0  0  0  0  0  0  0  0  0  0
   -3.8055    0.9187    1.1188 H   0  0  0  0  0  0  0  0  0  0  0  0
  1  2  1  0
  2  3  2  0
  2  4  1  0
  4  5  2  0
  5  6  1  0
  6  7  2  0
  7  8  1  0
  8  9  1  0
  9 10  1  0
 10 11  1  0
 11 12  2  0
 12 13  1  0
 13 14  1  0
 13 15  2  0
 15 16  1  0
 16 17  2  0
 15 18  1  0
 18 19  3  0
 19 20  1  0
 20 21  1  0
 20 22  1  0
 22 23  1  0
 23 24  1  0
 24 25  1  0
  7 26  1  0
 26  4  1  0
  6 17  1  0
 25 20  1  0
 17 11  1  0
  1 27  1  0
  1 28  1  0
  8 29  1  0
  8 30  1  0
  9 31  1  0
  9 32  1  0
 12 33  1  0
 16 34  1  0
 21 35  1  0
 22 36  1  0
 22 37  1  0
 23 38  1  0
 23 39  1  0
 24 40  1  0
 24 41  1  0
 25 42  1  0
 25 43  1  0
M  END
$$$$
[H]OC1(C#Cc2c([H])c3c(c([H])c2F)C2([H])C([H])([H])C([H])(n4c-3nc(C(=O)N([H])[H])c4C(=O)N([H])C([H])([H])[H])C2([H])[H])C([H])([H])C([H])([H])C1([H])[H]
     RDKit          3D

 51 55  0  0  0  0  0  0  0  0999 V2000
   -7.0207   -0.2128   -0.1970 C   0  0  0  0  0  0  0  0  0  0  0  0
   -5.5657   -0.1924   -0.3677 N   0  0  0  0  0  0  0  0  0  0  0  0
   -4.7515   -0.7078    0.6768 C   0  0  0  0  0  0  0  0  0  0  0  0
   -5.3075   -1.1778    1.7234 O   0  0  0  0  0  0  0  0  0  0  0  0
   -3.2876   -0.7388    0.6204 C   0  0  0  0  0  0  0  0  0  0  0  0
   -2.4249   -1.7558    0.9720 C   0  0  0  0  0  0  0  0  0  0  0  0
   -1.1532   -1.2705    0.8113 N   0  0  0  0  0  0  0  0  0  0  0  0
   -1.1984   -0.0240    0.3832 C   0  0  0  0  0  0  0  0  0  0  0  0
   -0.0313    0.8366    0.0709 C   0  0  0  0  0  0  0  0  0  0  0  0
    1.1763    0.2097    0.2740 C   0  0  0  0  0  0  0  0  0  0  0  0
    2.3353    0.9024    0.0102 C   0  0  0  0  0  0  0  0  0  0  0  0
    3.5977    0.2167    0.2332 C   0  0  0  0  0  0  0  0  0  0  0  0
    4.6432   -0.3495    0.4391 C   0  0  0  0  0  0  0  0  0  0  0  0
    5.9142   -1.0295    0.7117 C   0  0  0  0  0  0  0  0  0  0  0  0
    6.0481   -1.4814    2.0183 O   0  0  0  0  0  0  0  0  0  0  0  0
    7.1441   -0.2604    0.2922 C   0  0  0  0  0  0  0  0  0  0  0  0
    7.6209   -1.4600   -0.4584 C   0  0  0  0  0  0  0  0  0  0  0  0
    6.2085   -2.0250   -0.3637 C   0  0  0  0  0  0  0  0  0  0  0  0
    2.3179    2.2196   -0.4564 C   0  0  0  0  0  0  0  0  0  0  0  0
    3.4714    2.8825   -0.7097 F   0  0  0  0  0  0  0  0  0  0  0  0
    1.0831    2.8480   -0.6593 C   0  0  0  0  0  0  0  0  0  0  0  0
   -0.0653    2.1473   -0.3927 C   0  0  0  0  0  0  0  0  0  0  0  0
   -1.3190    2.9368   -0.6410 C   0  0  0  0  0  0  0  0  0  0  0  0
   -2.2075    2.7282    0.5953 C   0  0  0  0  0  0  0  0  0  0  0  0
   -3.0016    1.6132   -0.1385 C   0  0  0  0  0  0  0  0  0  0  0  0
   -2.3489    2.1224   -1.4043 C   0  0  0  0  0  0  0  0  0  0  0  0
   -2.5117    0.3126    0.2642 N   0  0  0  0  0  0  0  0  0  0  0  0
   -2.7626   -3.0956    1.3772 C   0  0  0  0  0  0  0  0  0  0  0  0
   -4.0472   -3.6552    1.3387 N   0  0  0  0  0  0  0  0  0  0  0  0
   -1.8101   -3.8291    1.8015 O   0  0  0  0  0  0  0  0  0  0  0  0
   -7.3116    0.6646    0.4211 H   0  0  0  0  0  0  0  0  0  0  0  0
   -7.5438   -0.2531   -1.1589 H   0  0  0  0  0  0  0  0  0  0  0  0
   -7.2612   -1.1756    0.3288 H   0  0  0  0  0  0  0  0  0  0  0  0
   -5.2207    0.1874   -1.2531 H   0  0  0  0  0  0  0  0  0  0  0  0
    1.2166   -0.7977    0.6304 H   0  0  0  0  0  0  0  0  0  0  0  0
    5.1692   -1.7464    2.3789 H   0  0  0  0  0  0  0  0  0  0  0  0
    6.8909    0.6184   -0.3580 H   0  0  0  0  0  0  0  0  0  0  0  0
    7.7783    0.0716    1.1487 H   0  0  0  0  0  0  0  0  0  0  0  0
    8.3919   -2.0354    0.0554 H   0  0  0  0  0  0  0  0  0  0  0  0
    7.9404   -1.1890   -1.4844 H   0  0  0  0  0  0  0  0  0  0  0  0
    5.6672   -1.9116   -1.3024 H   0  0  0  0  0  0  0  0  0  0  0  0
    6.2573   -3.0781    0.0248 H   0  0  0  0  0  0  0  0  0  0  0  0
    1.0510    3.8564   -1.0162 H   0  0  0  0  0  0  0  0  0  0  0  0
   -1.1734    3.9630   -0.9474 H   0  0  0  0  0  0  0  0  0  0  0  0
   -2.8235    3.5974    0.8536 H   0  0  0  0  0  0  0  0  0  0  0  0
   -1.6396    2.3373    1.4637 H   0  0  0  0  0  0  0  0  0  0  0  0
   -4.0846    1.7757   -0.0309 H   0  0  0  0  0  0  0  0  0  0  0  0
   -1.9197    1.3342   -2.0547 H   0  0  0  0  0  0  0  0  0  0  0  0
   -3.0478    2.8205   -1.9260 H   0  0  0  0  0  0  0  0  0  0  0  0
   -4.6199   -3.7074    0.4751 H   0  0  0  0  0  0  0  0  0  0  0  0
   -4.4630   -4.0427    2.2116 H   0  0  0  0  0  0  0  0  0  0  0  0
  1  2  1  0
  2  3  1  0
  3  4  2  0
  3  5  1  0
  5  6  2  0
  6  7  1  0
  7  8  2  0
  8  9  1  0
  9 10  2  0
 10 11  1  0
 11 12  1  0
 12 13  3  0
 13 14  1  0
 14 15  1  0
 14 16  1  0
 16 17  1  0
 17 18  1  0
 11 19  2  0
 19 20  1  0
 19 21  1  0
 21 22  2  0
 22 23  1  0
 23 24  1  0
 24 25  1  0
 25 26  1  0
 25 27  1  0
  6 28  1  0
 28 29  1  0
 28 30  2  0
 27  5  1  0
 27  8  1  0
 22  9  1  0
 26 23  1  0
 18 14  1  0
  1 31  1  0
  1 32  1  0
  1 33  1  0
  2 34  1  0
 10 35  1  0
 15 36  1  0
 16 37  1  0
 16 38  1  0
 17 39  1  0
 17 40  1  0
 18 41  1  0
 18 42  1  0
 21 43  1  0
 23 44  1  0
 24 45  1  0
 24 46  1  0
 25 47  1  0
 26 48  1  0
 26 49  1  0
 29 50  1  0
 29 51  1  0
M  END
$$$$
[H]OC(C#Cc1c([H])c2c(c([H])c1F)OC([H])([H])C([H])([H])n1c-2nc(C(=O)N([H])[H])c1C(=O)N([H])C([H])([H])C1([H])C([H])([H])OC([H])([H])C1([H])[H])(C([H])([H])[H])C([H])([H])[H]
     RDKit          3D

 58 61  0  0  0  0  0  0  0  0999 V2000
    7.6069   -1.7712   -1.1381 C   0  0  0  0  0  0  0  0  0  0  0  0
    7.5348   -0.2725   -1.2978 C   0  0  0  0  0  0  0  0  0  0  0  0
    7.4666    0.1234   -2.7527 C   0  0  0  0  0  0  0  0  0  0  0  0
    8.7001    0.3068   -0.7454 O   0  0  0  0  0  0  0  0  0  0  0  0
    6.3447    0.1899   -0.5831 C   0  0  0  0  0  0  0  0  0  0  0  0
    5.3709    0.5616    0.0233 C   0  0  0  0  0  0  0  0  0  0  0  0
    4.2022    0.9924    0.7721 C   0  0  0  0  0  0  0  0  0  0  0  0
    2.9944    0.4293    0.4792 C   0  0  0  0  0  0  0  0  0  0  0  0
    1.8881    0.8658    1.2185 C   0  0  0  0  0  0  0  0  0  0  0  0
    0.6785    0.1397    0.7587 C   0  0  0  0  0  0  0  0  0  0  0  0
    0.7163   -0.6544   -0.2987 N   0  0  0  0  0  0  0  0  0  0  0  0
   -0.5431   -1.1744   -0.4434 C   0  0  0  0  0  0  0  0  0  0  0  0
   -0.9253   -2.1328   -1.4769 C   0  0  0  0  0  0  0  0  0  0  0  0
   -2.0942   -2.8922   -1.5455 N   0  0  0  0  0  0  0  0  0  0  0  0
   -0.0946   -2.3103   -2.4368 O   0  0  0  0  0  0  0  0  0  0  0  0
   -1.3184   -0.6529    0.5647 C   0  0  0  0  0  0  0  0  0  0  0  0
   -2.7400   -0.7791    0.8425 C   0  0  0  0  0  0  0  0  0  0  0  0
   -3.1596   -1.0079    2.0318 O   0  0  0  0  0  0  0  0  0  0  0  0
   -3.7177   -0.6482   -0.1725 N   0  0  0  0  0  0  0  0  0  0  0  0
   -5.1416   -0.7868    0.1235 C   0  0  0  0  0  0  0  0  0  0  0  0
   -5.9961   -0.6089   -1.1073 C   0  0  0  0  0  0  0  0  0  0  0  0
   -7.4473   -0.7574   -0.7664 C   0  0  0  0  0  0  0  0  0  0  0  0
   -8.0694    0.3435   -1.6266 C   0  0  0  0  0  0  0  0  0  0  0  0
   -7.1334    1.3379   -1.6951 O   0  0  0  0  0  0  0  0  0  0  0  0
   -5.8814    0.7884   -1.6288 C   0  0  0  0  0  0  0  0  0  0  0  0
   -0.5304    0.1875    1.3330 N   0  0  0  0  0  0  0  0  0  0  0  0
   -1.0124    0.9183    2.4802 C   0  0  0  0  0  0  0  0  0  0  0  0
   -0.4284    2.3129    2.6025 C   0  0  0  0  0  0  0  0  0  0  0  0
    0.9433    2.2916    2.9629 O   0  0  0  0  0  0  0  0  0  0  0  0
    2.0113    1.8187    2.1956 C   0  0  0  0  0  0  0  0  0  0  0  0
    3.2116    2.3797    2.4883 C   0  0  0  0  0  0  0  0  0  0  0  0
    4.3084    1.9577    1.7669 C   0  0  0  0  0  0  0  0  0  0  0  0
    5.5364    2.4810    2.0127 F   0  0  0  0  0  0  0  0  0  0  0  0
    7.4247   -2.2687   -2.1286 H   0  0  0  0  0  0  0  0  0  0  0  0
    6.9084   -2.1280   -0.3579 H   0  0  0  0  0  0  0  0  0  0  0  0
    8.6404   -2.0563   -0.8179 H   0  0  0  0  0  0  0  0  0  0  0  0
    6.7123    0.9485   -2.8397 H   0  0  0  0  0  0  0  0  0  0  0  0
    8.4325    0.5539   -3.1112 H   0  0  0  0  0  0  0  0  0  0  0  0
    7.1156   -0.7162   -3.3542 H   0  0  0  0  0  0  0  0  0  0  0  0
    8.4395    0.9456   -0.0094 H   0  0  0  0  0  0  0  0  0  0  0  0
    2.8795   -0.3236   -0.2886 H   0  0  0  0  0  0  0  0  0  0  0  0
   -2.7002   -2.7696   -2.4099 H   0  0  0  0  0  0  0  0  0  0  0  0
   -2.4362   -3.5714   -0.8322 H   0  0  0  0  0  0  0  0  0  0  0  0
   -3.5010   -0.4208   -1.1651 H   0  0  0  0  0  0  0  0  0  0  0  0
   -5.3814    0.0474    0.8286 H   0  0  0  0  0  0  0  0  0  0  0  0
   -5.3400   -1.7275    0.6495 H   0  0  0  0  0  0  0  0  0  0  0  0
   -5.6982   -1.3852   -1.8494 H   0  0  0  0  0  0  0  0  0  0  0  0
   -7.8452   -1.7523   -1.0420 H   0  0  0  0  0  0  0  0  0  0  0  0
   -7.5958   -0.4834    0.2798 H   0  0  0  0  0  0  0  0  0  0  0  0
   -9.0081    0.6465   -1.0970 H   0  0  0  0  0  0  0  0  0  0  0  0
   -8.3630   -0.0494   -2.6251 H   0  0  0  0  0  0  0  0  0  0  0  0
   -5.3227    0.8323   -2.5884 H   0  0  0  0  0  0  0  0  0  0  0  0
   -5.2803    1.3979   -0.9089 H   0  0  0  0  0  0  0  0  0  0  0  0
   -0.9561    0.3710    3.4216 H   0  0  0  0  0  0  0  0  0  0  0  0
   -2.1130    1.1172    2.2847 H   0  0  0  0  0  0  0  0  0  0  0  0
   -0.6264    2.8861    1.6899 H   0  0  0  0  0  0  0  0  0  0  0  0
   -0.9722    2.8030    3.4345 H   0  0  0  0  0  0  0  0  0  0  0  0
    3.3055    3.1259    3.2542 H   0  0  0  0  0  0  0  0  0  0  0  0
  1  2  1  0
  2  3  1  0
  2  4  1  0
  2  5  1  0
  5  6  3  0
  6  7  1  0
  7  8  2  0
  8  9  1  0
  9 10  1  0
 10 11  2  0
 11 12  1  0
 12 13  1  0
 13 14  1  0
 13 15  2  0
 12 16  2  0
 16 17  1  0
 17 18  2  0
 17 19  1  0
 19 20  1  0
 20 21  1  0
 21 22  1  0
 22 23  1  0
 23 24  1  0
 24 25  1  0
 16 26  1  0
 26 27  1  0
 27 28  1  0
 28 29  1  0
 29 30  1  0
 30 31  1  0
 31 32  2  0
 32 33  1  0
 32  7  1  0
 30  9  2  0
 26 10  1  0
 25 21  1  0
  1 34  1  0
  1 35  1  0
  1 36  1  0
  3 37  1  0
  3 38  1  0
  3 39  1  0
  4 40  1  0
  8 41  1  0
 14 42  1  0
 14 43  1  0
 19 44  1  0
 20 45  1  0
 20 46  1  0
 21 47  1  0
 22 48  1  0
 22 49  1  0
 23 50  1  0
 23 51  1  0
 25 52  1  0
 25 53  1  0
 27 54  1  0
 27 55  1  0
 28 56  1  0
 28 57  1  0
 31 58  1  0
M  END
$$$$
[H]OC1(C#Cc2c([H])c([H])c3c(c2[H])-c2nc(C(=O)N([H])[H])c(C(=O)N([H])C([H])([H])[H])n2C([H])([H])C([H])([H])O3)C([H])([H])C([H])([H])C([H])([H])C([H])([H])C1([H])[H]
     RDKit          3D

 54 57  0  0  0  0  0  0  0  0999 V2000
   -7.7965    1.5573   -0.7776 C   0  0  0  0  0  0  0  0  0  0  0  0
   -6.3930    1.4526   -0.4406 N   0  0  0  0  0  0  0  0  0  0  0  0
   -5.7112    0.2251   -0.4798 C   0  0  0  0  0  0  0  0  0  0  0  0
   -6.3824   -0.8077   -0.8437 O   0  0  0  0  0  0  0  0  0  0  0  0
   -4.3081    0.0025   -0.1551 C   0  0  0  0  0  0  0  0  0  0  0  0
   -3.6053    0.5353    0.9105 C   0  0  0  0  0  0  0  0  0  0  0  0
   -2.2998    0.1334    0.7360 N   0  0  0  0  0  0  0  0  0  0  0  0
   -2.2283   -0.5943   -0.3595 C   0  0  0  0  0  0  0  0  0  0  0  0
   -0.9671   -1.1777   -0.8170 C   0  0  0  0  0  0  0  0  0  0  0  0
    0.1345   -0.5701   -0.2579 C   0  0  0  0  0  0  0  0  0  0  0  0
    1.4070   -1.0006   -0.5829 C   0  0  0  0  0  0  0  0  0  0  0  0
    1.5072   -2.0531   -1.4818 C   0  0  0  0  0  0  0  0  0  0  0  0
    0.4057   -2.6602   -2.0404 C   0  0  0  0  0  0  0  0  0  0  0  0
   -0.8554   -2.2281   -1.7136 C   0  0  0  0  0  0  0  0  0  0  0  0
   -1.8677   -2.9552   -2.3717 O   0  0  0  0  0  0  0  0  0  0  0  0
   -3.2474   -2.8540   -2.0674 C   0  0  0  0  0  0  0  0  0  0  0  0
   -3.7276   -1.4166   -2.1642 C   0  0  0  0  0  0  0  0  0  0  0  0
   -3.4580   -0.7002   -0.9443 N   0  0  0  0  0  0  0  0  0  0  0  0
    2.5711   -0.3759   -0.0071 C   0  0  0  0  0  0  0  0  0  0  0  0
    3.5384    0.1670    0.4741 C   0  0  0  0  0  0  0  0  0  0  0  0
    4.6978    0.8382    1.0671 C   0  0  0  0  0  0  0  0  0  0  0  0
    4.2326    1.9725    1.7258 O   0  0  0  0  0  0  0  0  0  0  0  0
    5.6881    1.2148   -0.0091 C   0  0  0  0  0  0  0  0  0  0  0  0
    7.0509    1.5180    0.5260 C   0  0  0  0  0  0  0  0  0  0  0  0
    7.5686    0.4805    1.4774 C   0  0  0  0  0  0  0  0  0  0  0  0
    6.5951    0.3949    2.6442 C   0  0  0  0  0  0  0  0  0  0  0  0
    5.2866   -0.1093    2.0820 C   0  0  0  0  0  0  0  0  0  0  0  0
   -4.0438    1.2810    2.0755 C   0  0  0  0  0  0  0  0  0  0  0  0
   -5.3895    1.3636    2.4726 N   0  0  0  0  0  0  0  0  0  0  0  0
   -3.1633    1.8869    2.7775 O   0  0  0  0  0  0  0  0  0  0  0  0
   -7.9394    1.9726   -1.7772 H   0  0  0  0  0  0  0  0  0  0  0  0
   -8.2323    0.5223   -0.6671 H   0  0  0  0  0  0  0  0  0  0  0  0
   -8.3145    2.1850    0.0030 H   0  0  0  0  0  0  0  0  0  0  0  0
   -5.9048    2.3300   -0.1948 H   0  0  0  0  0  0  0  0  0  0  0  0
    0.0153    0.2512    0.4420 H   0  0  0  0  0  0  0  0  0  0  0  0
    2.5080   -2.3843   -1.7311 H   0  0  0  0  0  0  0  0  0  0  0  0
    0.5123   -3.4762   -2.7362 H   0  0  0  0  0  0  0  0  0  0  0  0
   -3.7976   -3.4350   -2.8140 H   0  0  0  0  0  0  0  0  0  0  0  0
   -3.4349   -3.2038   -1.0456 H   0  0  0  0  0  0  0  0  0  0  0  0
   -3.2096   -0.9066   -3.0274 H   0  0  0  0  0  0  0  0  0  0  0  0
   -4.7839   -1.4289   -2.4378 H   0  0  0  0  0  0  0  0  0  0  0  0
    3.7154    2.5653    1.1319 H   0  0  0  0  0  0  0  0  0  0  0  0
    5.7065    0.4699   -0.8311 H   0  0  0  0  0  0  0  0  0  0  0  0
    5.2952    2.1584   -0.4758 H   0  0  0  0  0  0  0  0  0  0  0  0
    7.7547    1.5541   -0.3355 H   0  0  0  0  0  0  0  0  0  0  0  0
    7.0912    2.5041    1.0136 H   0  0  0  0  0  0  0  0  0  0  0  0
    8.5800    0.8067    1.8049 H   0  0  0  0  0  0  0  0  0  0  0  0
    7.5723   -0.5032    0.9706 H   0  0  0  0  0  0  0  0  0  0  0  0
    6.9289   -0.3659    3.3898 H   0  0  0  0  0  0  0  0  0  0  0  0
    6.4680    1.3799    3.1353 H   0  0  0  0  0  0  0  0  0  0  0  0
    4.5539   -0.2073    2.9085 H   0  0  0  0  0  0  0  0  0  0  0  0
    5.4807   -1.0810    1.5888 H   0  0  0  0  0  0  0  0  0  0  0  0
   -5.8284    2.2671    2.7412 H   0  0  0  0  0  0  0  0  0  0  0  0
   -5.9761    0.5052    2.5039 H   0  0  0  0  0  0  0  0  0  0  0  0
  1  2  1  0
  2  3  1  0
  3  4  2  0
  3  5  1  0
  5  6  2  0
  6  7  1  0
  7  8  2  0
  8  9  1  0
  9 10  2  0
 10 11  1  0
 11 12  2  0
 12 13  1  0
 13 14  2  0
 14 15  1  0
 15 16  1  0
 16 17  1  0
 17 18  1  0
 11 19  1  0
 19 20  3  0
 20 21  1  0
 21 22  1  0
 21 23  1  0
 23 24  1  0
 24 25  1  0
 25 26  1  0
 26 27  1  0
  6 28  1  0
 28 29  1  0
 28 30  2  0
 18  5  1  0
 27 21  1  0
 18  8  1  0
 14  9  1  0
  1 31  1  0
  1 32  1  0
  1 33  1  0
  2 34  1  0
 10 35  1  0
 12 36  1  0
 13 37  1  0
 16 38  1  0
 16 39  1  0
 17 40  1  0
 17 41  1  0
 22 42  1  0
 23 43  1  0
 23 44  1  0
 24 45  1  0
 24 46  1  0
 25 47  1  0
 25 48  1  0
 26 49  1  0
 26 50  1  0
 27 51  1  0
 27 52  1  0
 29 53  1  0
 29 54  1  0
M  END
$$$$
[H]OC([H])([H])C1([H])Oc2c([H])c([H])c(C#CC(O[H])(c3noc(C([H])([H])[H])c3[H])C([H])([H])[H])c([H])c2-c2nc(C(=O)N([H])[H])c([H])n2C1([H])[H]
     RDKit          3D

 50 53  0  0  0  0  0  0  0  0999 V2000
    7.8838    1.4731    0.7730 C   0  0  0  0  0  0  0  0  0  0  0  0
    6.7663    0.7251    0.1563 C   0  0  0  0  0  0  0  0  0  0  0  0
    6.1461   -0.4065    0.6256 C   0  0  0  0  0  0  0  0  0  0  0  0
    5.1828   -0.7154   -0.2848 C   0  0  0  0  0  0  0  0  0  0  0  0
    5.2503    0.2197   -1.2575 N   0  0  0  0  0  0  0  0  0  0  0  0
    6.1989    1.0485   -0.9540 O   0  0  0  0  0  0  0  0  0  0  0  0
    4.1595   -1.7912   -0.3441 C   0  0  0  0  0  0  0  0  0  0  0  0
    4.3024   -2.8299    0.6986 C   0  0  0  0  0  0  0  0  0  0  0  0
    4.2270   -2.3631   -1.6190 O   0  0  0  0  0  0  0  0  0  0  0  0
    2.8145   -1.1560   -0.1867 C   0  0  0  0  0  0  0  0  0  0  0  0
    1.7645   -0.5886   -0.0657 C   0  0  0  0  0  0  0  0  0  0  0  0
    0.5443    0.1478    0.0684 C   0  0  0  0  0  0  0  0  0  0  0  0
    0.6176    1.5099    0.3890 C   0  0  0  0  0  0  0  0  0  0  0  0
   -0.4943    2.2686    0.5047 C   0  0  0  0  0  0  0  0  0  0  0  0
   -1.7096    1.6674    0.2981 C   0  0  0  0  0  0  0  0  0  0  0  0
   -2.7348    2.5629    0.4410 O   0  0  0  0  0  0  0  0  0  0  0  0
   -4.1055    2.3671    0.6367 C   0  0  0  0  0  0  0  0  0  0  0  0
   -4.7454    3.7450    0.5049 C   0  0  0  0  0  0  0  0  0  0  0  0
   -4.4773    4.2295   -0.7814 O   0  0  0  0  0  0  0  0  0  0  0  0
   -4.7609    1.4874   -0.4088 C   0  0  0  0  0  0  0  0  0  0  0  0
   -4.2884    0.1317   -0.4139 N   0  0  0  0  0  0  0  0  0  0  0  0
   -5.1272   -0.8972   -0.6080 C   0  0  0  0  0  0  0  0  0  0  0  0
   -4.4239   -2.0708   -0.5667 C   0  0  0  0  0  0  0  0  0  0  0  0
   -3.1159   -1.7668   -0.3376 N   0  0  0  0  0  0  0  0  0  0  0  0
   -3.0576   -0.4289   -0.2489 C   0  0  0  0  0  0  0  0  0  0  0  0
   -1.8295    0.3097   -0.0215 C   0  0  0  0  0  0  0  0  0  0  0  0
   -0.6788   -0.4265   -0.1288 C   0  0  0  0  0  0  0  0  0  0  0  0
   -4.9919   -3.4022   -0.7457 C   0  0  0  0  0  0  0  0  0  0  0  0
   -4.2294   -4.5523   -0.5195 N   0  0  0  0  0  0  0  0  0  0  0  0
   -6.2233   -3.5010   -1.1114 O   0  0  0  0  0  0  0  0  0  0  0  0
    7.4735    2.4609    1.0876 H   0  0  0  0  0  0  0  0  0  0  0  0
    8.6133    1.7398   -0.0353 H   0  0  0  0  0  0  0  0  0  0  0  0
    8.3665    0.9372    1.5779 H   0  0  0  0  0  0  0  0  0  0  0  0
    6.3437   -0.9773    1.5245 H   0  0  0  0  0  0  0  0  0  0  0  0
    3.3631   -3.2462    1.0808 H   0  0  0  0  0  0  0  0  0  0  0  0
    4.9404   -2.4987    1.5705 H   0  0  0  0  0  0  0  0  0  0  0  0
    4.9114   -3.6935    0.2743 H   0  0  0  0  0  0  0  0  0  0  0  0
    3.5982   -1.9841   -2.2614 H   0  0  0  0  0  0  0  0  0  0  0  0
    1.5785    1.9666    0.5482 H   0  0  0  0  0  0  0  0  0  0  0  0
   -0.3930    3.3075    0.7477 H   0  0  0  0  0  0  0  0  0  0  0  0
   -4.2973    1.9805    1.6577 H   0  0  0  0  0  0  0  0  0  0  0  0
   -4.3735    4.4337    1.2926 H   0  0  0  0  0  0  0  0  0  0  0  0
   -5.8464    3.6893    0.6067 H   0  0  0  0  0  0  0  0  0  0  0  0
   -3.6764    3.7266   -1.1152 H   0  0  0  0  0  0  0  0  0  0  0  0
   -5.8434    1.4522   -0.0929 H   0  0  0  0  0  0  0  0  0  0  0  0
   -4.7235    2.0000   -1.3711 H   0  0  0  0  0  0  0  0  0  0  0  0
   -6.2126   -0.8644   -0.7742 H   0  0  0  0  0  0  0  0  0  0  0  0
   -0.7614   -1.4763   -0.3809 H   0  0  0  0  0  0  0  0  0  0  0  0
   -4.4081   -5.0935    0.3879 H   0  0  0  0  0  0  0  0  0  0  0  0
   -3.5172   -4.8575   -1.2027 H   0  0  0  0  0  0  0  0  0  0  0  0
  1  2  1  0
  2  3  2  0
  3  4  1  0
  4  5  2  0
  5  6  1  0
  4  7  1  0
  7  8  1  0
  7  9  1  0
  7 10  1  0
 10 11  3  0
 11 12  1  0
 12 13  2  0
 13 14  1  0
 14 15  2  0
 15 16  1  0
 16 17  1  0
 17 18  1  0
 18 19  1  0
 17 20  1  0
 20 21  1  0
 21 22  1  0
 22 23  2  0
 23 24  1  0
 24 25  2  0
 25 26  1  0
 26 27  2  0
 23 28  1  0
 28 29  1  0
 28 30  2  0
  6  2  1  0
 27 12  1  0
 26 15  1  0
 25 21  1  0
  1 31  1  0
  1 32  1  0
  1 33  1  0
  3 34  1  0
  8 35  1  0
  8 36  1  0
  8 37  1  0
  9 38  1  0
 13 39  1  0
 14 40  1  0
 17 41  1  0
 18 42  1  0
 18 43  1  0
 19 44  1  0
 20 45  1  0
 20 46  1  0
 22 47  1  0
 27 48  1  0
 29 49  1  0
 29 50  1  0
M  END
$$$$
[H]OC(C#Cc1c([H])c([H])c2c(c1[H])-c1nc(C(=O)N([H])[H])c([H])n1C1([H])C([H])([H])C2([H])C1([H])[H])(c1nc([H])n([H])n1)C([H])([H])[H]
     RDKit          3D

 46 50  0  0  0  0  0  0  0  0999 V2000
    4.4791    2.1211   -1.8121 C   0  0  0  0  0  0  0  0  0  0  0  0
    4.3990    1.7310   -0.3366 C   0  0  0  0  0  0  0  0  0  0  0  0
    4.2269    2.8921    0.4285 O   0  0  0  0  0  0  0  0  0  0  0  0
    3.1700    0.9275   -0.1106 C   0  0  0  0  0  0  0  0  0  0  0  0
    2.1812    0.2617    0.0538 C   0  0  0  0  0  0  0  0  0  0  0  0
    1.0098   -0.5475    0.2140 C   0  0  0  0  0  0  0  0  0  0  0  0
    1.0729   -1.9234    0.3808 C   0  0  0  0  0  0  0  0  0  0  0  0
   -0.0538   -2.7090    0.5102 C   0  0  0  0  0  0  0  0  0  0  0  0
   -1.2764   -2.0961    0.4716 C   0  0  0  0  0  0  0  0  0  0  0  0
   -2.4313   -3.0545    0.5945 C   0  0  0  0  0  0  0  0  0  0  0  0
   -3.4774   -2.4883    1.5216 C   0  0  0  0  0  0  0  0  0  0  0  0
   -4.2587   -1.8616    0.3478 C   0  0  0  0  0  0  0  0  0  0  0  0
   -3.4402   -2.7646   -0.5337 C   0  0  0  0  0  0  0  0  0  0  0  0
   -3.8979   -0.4598    0.2299 N   0  0  0  0  0  0  0  0  0  0  0  0
   -4.7437    0.5661    0.1238 C   0  0  0  0  0  0  0  0  0  0  0  0
   -4.0020    1.7493    0.0603 C   0  0  0  0  0  0  0  0  0  0  0  0
   -2.7181    1.3935    0.1312 N   0  0  0  0  0  0  0  0  0  0  0  0
   -2.6322    0.0698    0.2327 C   0  0  0  0  0  0  0  0  0  0  0  0
   -1.4013   -0.7333    0.3094 C   0  0  0  0  0  0  0  0  0  0  0  0
   -0.2612    0.0228    0.1828 C   0  0  0  0  0  0  0  0  0  0  0  0
   -4.5045    3.1175   -0.0857 C   0  0  0  0  0  0  0  0  0  0  0  0
   -5.8692    3.3328   -0.3669 N   0  0  0  0  0  0  0  0  0  0  0  0
   -3.7230    4.0684    0.0388 O   0  0  0  0  0  0  0  0  0  0  0  0
    5.6225    0.9808    0.0069 C   0  0  0  0  0  0  0  0  0  0  0  0
    5.7488    0.1434    1.0450 N   0  0  0  0  0  0  0  0  0  0  0  0
    7.0074   -0.3557    1.0357 C   0  0  0  0  0  0  0  0  0  0  0  0
    7.6547    0.1802   -0.0120 N   0  0  0  0  0  0  0  0  0  0  0  0
    6.8022    0.9853   -0.6221 N   0  0  0  0  0  0  0  0  0  0  0  0
    3.7459    2.8939   -2.0443 H   0  0  0  0  0  0  0  0  0  0  0  0
    5.5354    2.4922   -1.9377 H   0  0  0  0  0  0  0  0  0  0  0  0
    4.3235    1.1941   -2.4074 H   0  0  0  0  0  0  0  0  0  0  0  0
    4.1823    3.6484   -0.1906 H   0  0  0  0  0  0  0  0  0  0  0  0
    2.0837   -2.3250    0.3992 H   0  0  0  0  0  0  0  0  0  0  0  0
    0.0340   -3.7744    0.6385 H   0  0  0  0  0  0  0  0  0  0  0  0
   -2.1794   -4.0957    0.7162 H   0  0  0  0  0  0  0  0  0  0  0  0
   -3.1616   -1.7390    2.2407 H   0  0  0  0  0  0  0  0  0  0  0  0
   -4.1314   -3.2872    1.9502 H   0  0  0  0  0  0  0  0  0  0  0  0
   -5.3323   -2.0356    0.3703 H   0  0  0  0  0  0  0  0  0  0  0  0
   -3.9118   -3.6948   -0.8406 H   0  0  0  0  0  0  0  0  0  0  0  0
   -2.9641   -2.2866   -1.4164 H   0  0  0  0  0  0  0  0  0  0  0  0
   -5.8097    0.5517    0.0885 H   0  0  0  0  0  0  0  0  0  0  0  0
   -0.3652    1.1002    0.0542 H   0  0  0  0  0  0  0  0  0  0  0  0
   -6.4683    2.5373   -0.6735 H   0  0  0  0  0  0  0  0  0  0  0  0
   -6.2676    4.3058   -0.2660 H   0  0  0  0  0  0  0  0  0  0  0  0
    7.3726   -1.0537    1.7617 H   0  0  0  0  0  0  0  0  0  0  0  0
    8.6303    0.0188   -0.3136 H   0  0  0  0  0  0  0  0  0  0  0  0
  1  2  1  0
  2  3  1  0
  2  4  1  0
  4  5  3  0
  5  6  1  0
  6  7  2  0
  7  8  1  0
  8  9  2  0
  9 10  1  0
 10 11  1  0
 11 12  1  0
 12 13  1  0
 12 14  1  0
 14 15  1  0
 15 16  2  0
 16 17  1  0
 17 18  2  0
 18 19  1  0
 19 20  2  0
 16 21  1  0
 21 22  1  0
 21 23  2  0
  2 24  1  0
 24 25  1  0
 25 26  2  0
 26 27  1  0
 27 28  1  0
 20  6  1  0
 28 24  2  0
 19  9  1  0
 13 10  1  0
 18 14  1  0
  1 29  1  0
  1 30  1  0
  1 31  1  0
  3 32  1  0
  7 33  1  0
  8 34  1  0
 10 35  1  0
 11 36  1  0
 11 37  1  0
 12 38  1  0
 13 39  1  0
 13 40  1  0
 15 41  1  0
 20 42  1  0
 22 43  1  0
 22 44  1  0
 26 45  1  0
 27 46  1  0
M  END
$$$$
[H]O[C@@]1(C#Cc2c([H])c([H])c3c(c2[H])-n2nc(C(=O)N([H])[H])c([H])c2C(F)(F)C([H])([H])O3)C(=O)N(C([H])([H])[H])C([H])([H])C1([H])[H]
     RDKit          3D

 45 48  0  0  0  0  0  0  0  0999 V2000
    5.8569    2.8721    0.7457 C   0  0  0  0  0  0  0  0  0  0  0  0
    5.3236    1.5503    0.4942 N   0  0  0  0  0  0  0  0  0  0  0  0
    6.0777    0.4767   -0.1228 C   0  0  0  0  0  0  0  0  0  0  0  0
    4.9642   -0.3609   -0.7235 C   0  0  0  0  0  0  0  0  0  0  0  0
    3.9364   -0.3237    0.4075 C   0  0  2  0  0  0  0  0  0  0  0  0
    4.3090   -1.1859    1.4274 O   0  0  0  0  0  0  0  0  0  0  0  0
    2.5945   -0.6465   -0.0840 C   0  0  0  0  0  0  0  0  0  0  0  0
    1.4786   -0.9159   -0.4703 C   0  0  0  0  0  0  0  0  0  0  0  0
    0.1541   -1.2613   -0.9306 C   0  0  0  0  0  0  0  0  0  0  0  0
   -0.0433   -2.1968   -1.9452 C   0  0  0  0  0  0  0  0  0  0  0  0
   -1.3276   -2.4957   -2.3528 C   0  0  0  0  0  0  0  0  0  0  0  0
   -2.3793   -1.8427   -1.7258 C   0  0  0  0  0  0  0  0  0  0  0  0
   -3.6331   -2.2334   -2.2294 O   0  0  0  0  0  0  0  0  0  0  0  0
   -4.8923   -2.1424   -1.5867 C   0  0  0  0  0  0  0  0  0  0  0  0
   -5.2250   -0.6755   -1.4301 C   0  0  0  0  0  0  0  0  0  0  0  0
   -4.8710   -0.0318   -2.6191 F   0  0  0  0  0  0  0  0  0  0  0  0
   -6.5881   -0.4751   -1.2805 F   0  0  0  0  0  0  0  0  0  0  0  0
   -4.4939   -0.0699   -0.2970 C   0  0  0  0  0  0  0  0  0  0  0  0
   -5.0595    0.7298    0.6662 C   0  0  0  0  0  0  0  0  0  0  0  0
   -4.0479    1.1056    1.5620 C   0  0  0  0  0  0  0  0  0  0  0  0
   -2.9426    0.5146    1.0888 N   0  0  0  0  0  0  0  0  0  0  0  0
   -3.1866   -0.1831   -0.0074 N   0  0  0  0  0  0  0  0  0  0  0  0
   -2.1753   -0.9185   -0.7229 C   0  0  0  0  0  0  0  0  0  0  0  0
   -0.8991   -0.6179   -0.3139 C   0  0  0  0  0  0  0  0  0  0  0  0
   -4.1972    1.9577    2.7452 C   0  0  0  0  0  0  0  0  0  0  0  0
   -3.0357    2.2078    3.5116 N   0  0  0  0  0  0  0  0  0  0  0  0
   -5.2904    2.4463    3.0735 O   0  0  0  0  0  0  0  0  0  0  0  0
    4.0034    1.1026    0.8052 C   0  0  0  0  0  0  0  0  0  0  0  0
    3.1106    1.8140    1.3142 O   0  0  0  0  0  0  0  0  0  0  0  0
    5.0834    3.6556    0.5165 H   0  0  0  0  0  0  0  0  0  0  0  0
    6.1886    2.9993    1.7970 H   0  0  0  0  0  0  0  0  0  0  0  0
    6.6894    3.0764    0.0412 H   0  0  0  0  0  0  0  0  0  0  0  0
    6.6998    0.8352   -0.9696 H   0  0  0  0  0  0  0  0  0  0  0  0
    6.6355   -0.1277    0.6035 H   0  0  0  0  0  0  0  0  0  0  0  0
    5.2748   -1.3827   -0.9602 H   0  0  0  0  0  0  0  0  0  0  0  0
    4.5115    0.1893   -1.5634 H   0  0  0  0  0  0  0  0  0  0  0  0
    4.5752   -2.0501    0.9876 H   0  0  0  0  0  0  0  0  0  0  0  0
    0.8295   -2.6612   -2.3826 H   0  0  0  0  0  0  0  0  0  0  0  0
   -1.5088   -3.2202   -3.1405 H   0  0  0  0  0  0  0  0  0  0  0  0
   -5.6545   -2.6848   -2.1763 H   0  0  0  0  0  0  0  0  0  0  0  0
   -4.7858   -2.5502   -0.5603 H   0  0  0  0  0  0  0  0  0  0  0  0
   -6.0893    1.0403    0.7589 H   0  0  0  0  0  0  0  0  0  0  0  0
   -0.7469    0.1109    0.4765 H   0  0  0  0  0  0  0  0  0  0  0  0
   -2.8760    3.1233    3.9276 H   0  0  0  0  0  0  0  0  0  0  0  0
   -2.3478    1.4460    3.6448 H   0  0  0  0  0  0  0  0  0  0  0  0
  1  2  1  0
  2  3  1  0
  3  4  1  0
  4  5  1  0
  5  6  1  0
  5  7  1  6
  7  8  3  0
  8  9  1  0
  9 10  2  0
 10 11  1  0
 11 12  2  0
 12 13  1  0
 13 14  1  0
 14 15  1  0
 15 16  1  0
 15 17  1  0
 15 18  1  0
 18 19  2  0
 19 20  1  0
 20 21  2  0
 21 22  1  0
 22 23  1  0
 23 24  2  0
 20 25  1  0
 25 26  1  0
 25 27  2  0
  5 28  1  0
 28 29  2  0
 28  2  1  0
 24  9  1  0
 23 12  1  0
 22 18  1  0
  1 30  1  0
  1 31  1  0
  1 32  1  0
  3 33  1  0
  3 34  1  0
  4 35  1  0
  4 36  1  0
  6 37  1  0
 10 38  1  0
 11 39  1  0
 14 40  1  0
 14 41  1  0
 19 42  1  0
 24 43  1  0
 26 44  1  0
 26 45  1  0
M  END
$$$$
[H]OC(C#Cc1c([H])c2c(c([H])c1F)C1([H])C([H])([H])C([H])(n3c-2nc(C(=O)N([H])[H])c3C([H])([H])N([H])C(=O)C2([H])C([H])([H])C([H])([H])C2([H])[H])C1([H])[H])(C([H])([H])[H])C([H])([H])[H]
     RDKit          3D

 60 64  0  0  0  0  0  0  0  0999 V2000
   -7.1168   -1.4747    2.6526 C   0  0  0  0  0  0  0  0  0  0  0  0
   -7.4908   -1.0743    1.2315 C   0  0  0  0  0  0  0  0  0  0  0  0
   -8.4525    0.0886    1.3514 C   0  0  0  0  0  0  0  0  0  0  0  0
   -8.1723   -2.1089    0.6311 O   0  0  0  0  0  0  0  0  0  0  0  0
   -6.2671   -0.6946    0.5518 C   0  0  0  0  0  0  0  0  0  0  0  0
   -5.2578   -0.3382   -0.0221 C   0  0  0  0  0  0  0  0  0  0  0  0
   -4.0671    0.1398   -0.6956 C   0  0  0  0  0  0  0  0  0  0  0  0
   -2.8236   -0.2407   -0.2559 C   0  0  0  0  0  0  0  0  0  0  0  0
   -1.7147    0.2814   -0.9186 C   0  0  0  0  0  0  0  0  0  0  0  0
   -0.4377   -0.2618   -0.4366 C   0  0  0  0  0  0  0  0  0  0  0  0
   -0.3319   -1.4061    0.2723 N   0  0  0  0  0  0  0  0  0  0  0  0
    0.9340   -1.6867    0.4355 C   0  0  0  0  0  0  0  0  0  0  0  0
    1.4717   -2.8267    1.2251 C   0  0  0  0  0  0  0  0  0  0  0  0
    2.7624   -3.3805    1.0063 N   0  0  0  0  0  0  0  0  0  0  0  0
    0.7366   -3.3044    2.1133 O   0  0  0  0  0  0  0  0  0  0  0  0
    1.6885   -0.6884   -0.1915 C   0  0  0  0  0  0  0  0  0  0  0  0
    3.1335   -0.7535   -0.4181 C   0  0  0  0  0  0  0  0  0  0  0  0
    3.9240    0.2338    0.2737 N   0  0  0  0  0  0  0  0  0  0  0  0
    5.3218    0.2144    0.0508 C   0  0  0  0  0  0  0  0  0  0  0  0
    5.8394   -0.5610   -0.7839 O   0  0  0  0  0  0  0  0  0  0  0  0
    6.2947    1.0884    0.8000 C   0  0  0  0  0  0  0  0  0  0  0  0
    7.6613    1.2503    0.2546 C   0  0  0  0  0  0  0  0  0  0  0  0
    8.2306    0.3659    1.3140 C   0  0  0  0  0  0  0  0  0  0  0  0
    6.8908    0.2793    1.9767 C   0  0  0  0  0  0  0  0  0  0  0  0
    0.8124    0.2106   -0.7386 N   0  0  0  0  0  0  0  0  0  0  0  0
    1.0978    1.3514   -1.5722 C   0  0  0  0  0  0  0  0  0  0  0  0
    0.0830    2.4658   -1.4694 C   0  0  0  0  0  0  0  0  0  0  0  0
   -0.7518    1.8626   -2.6539 C   0  0  0  0  0  0  0  0  0  0  0  0
    0.4657    1.0482   -2.9670 C   0  0  0  0  0  0  0  0  0  0  0  0
   -1.8730    1.1627   -1.9861 C   0  0  0  0  0  0  0  0  0  0  0  0
   -3.0958    1.5483   -2.4365 C   0  0  0  0  0  0  0  0  0  0  0  0
   -4.1965    1.0156   -1.7649 C   0  0  0  0  0  0  0  0  0  0  0  0
   -5.4503    1.3106   -2.1531 F   0  0  0  0  0  0  0  0  0  0  0  0
   -6.1040   -1.8945    2.6966 H   0  0  0  0  0  0  0  0  0  0  0  0
   -7.8645   -2.2680    2.9556 H   0  0  0  0  0  0  0  0  0  0  0  0
   -7.2420   -0.6497    3.3809 H   0  0  0  0  0  0  0  0  0  0  0  0
   -8.3753    0.5439    2.3553 H   0  0  0  0  0  0  0  0  0  0  0  0
   -8.2418    0.9018    0.5968 H   0  0  0  0  0  0  0  0  0  0  0  0
   -9.5105   -0.2322    1.1886 H   0  0  0  0  0  0  0  0  0  0  0  0
   -8.5465   -1.8984   -0.2544 H   0  0  0  0  0  0  0  0  0  0  0  0
   -2.6860   -0.9185    0.5863 H   0  0  0  0  0  0  0  0  0  0  0  0
    3.5180   -3.2467    1.6990 H   0  0  0  0  0  0  0  0  0  0  0  0
    2.9381   -3.9008    0.1562 H   0  0  0  0  0  0  0  0  0  0  0  0
    3.2513   -0.4278   -1.5418 H   0  0  0  0  0  0  0  0  0  0  0  0
    3.6179   -1.7202   -0.4294 H   0  0  0  0  0  0  0  0  0  0  0  0
    3.5452    0.9430    0.9496 H   0  0  0  0  0  0  0  0  0  0  0  0
    5.8223    1.9831    1.2199 H   0  0  0  0  0  0  0  0  0  0  0  0
    7.7446    0.7773   -0.7640 H   0  0  0  0  0  0  0  0  0  0  0  0
    8.0714    2.2983    0.2596 H   0  0  0  0  0  0  0  0  0  0  0  0
    8.6446   -0.6004    0.8974 H   0  0  0  0  0  0  0  0  0  0  0  0
    9.0433    0.8995    1.8913 H   0  0  0  0  0  0  0  0  0  0  0  0
    6.5532   -0.8071    1.9063 H   0  0  0  0  0  0  0  0  0  0  0  0
    6.7579    0.7050    2.9688 H   0  0  0  0  0  0  0  0  0  0  0  0
    2.1370    1.6345   -1.6112 H   0  0  0  0  0  0  0  0  0  0  0  0
   -0.4913    2.4305   -0.5129 H   0  0  0  0  0  0  0  0  0  0  0  0
    0.4262    3.4685   -1.7380 H   0  0  0  0  0  0  0  0  0  0  0  0
   -1.0671    2.6428   -3.3790 H   0  0  0  0  0  0  0  0  0  0  0  0
    1.0981    1.5577   -3.7249 H   0  0  0  0  0  0  0  0  0  0  0  0
    0.2907   -0.0082   -3.1611 H   0  0  0  0  0  0  0  0  0  0  0  0
   -3.1794    2.2244   -3.2681 H   0  0  0  0  0  0  0  0  0  0  0  0
  1  2  1  0
  2  3  1  0
  2  4  1  0
  2  5  1  0
  5  6  3  0
  6  7  1  0
  7  8  1  0
  8  9  2  0
  9 10  1  0
 10 11  2  0
 11 12  1  0
 12 13  1  0
 13 14  1  0
 13 15  2  0
 12 16  2  0
 16 17  1  0
 17 18  1  0
 18 19  1  0
 19 20  2  0
 19 21  1  0
 21 22  1  0
 22 23  1  0
 23 24  1  0
 16 25  1  0
 25 26  1  0
 26 27  1  0
 27 28  1  0
 28 29  1  0
 28 30  1  0
 30 31  2  0
 31 32  1  0
 32 33  1  0
 32  7  2  0
 30  9  1  0
 25 10  1  0
 29 26  1  0
 24 21  1  0
  1 34  1  0
  1 35  1  0
  1 36  1  0
  3 37  1  0
  3 38  1  0
  3 39  1  0
  4 40  1  0
  8 41  1  0
 14 42  1  0
 14 43  1  0
 17 44  1  0
 17 45  1  0
 18 46  1  0
 21 47  1  0
 22 48  1  0
 22 49  1  0
 23 50  1  0
 23 51  1  0
 24 52  1  0
 24 53  1  0
 26 54  1  0
 27 55  1  0
 27 56  1  0
 28 57  1  0
 29 58  1  0
 29 59  1  0
 31 60  1  0
M  END
$$$$
[H]O[C@](C#Cc1c([H])c([H])c2c(c1[H])-c1nc(C(=O)N([H])[H])sc1C1([H])C([H])([H])C2([H])C1([H])[H])(c1noc(C([H])([H])[H])c1[H])C([H])([H])[H]
     RDKit          3D

 48 52  0  0  0  0  0  0  0  0999 V2000
    7.7506    1.9158    1.1350 C   0  0  0  0  0  0  0  0  0  0  0  0
    6.4244    1.6394    0.5093 C   0  0  0  0  0  0  0  0  0  0  0  0
    6.0135    0.5307   -0.1890 C   0  0  0  0  0  0  0  0  0  0  0  0
    4.6923    0.7415   -0.5832 C   0  0  0  0  0  0  0  0  0  0  0  0
    4.3790    1.9655   -0.1009 N   0  0  0  0  0  0  0  0  0  0  0  0
    5.3994    2.4686    0.5289 O   0  0  0  0  0  0  0  0  0  0  0  0
    3.8543   -0.1614   -1.3645 C   0  0  2  0  0  0  0  0  0  0  0  0
    4.6038   -1.4859   -1.5405 C   0  0  0  0  0  0  0  0  0  0  0  0
    3.6899    0.3082   -2.6919 O   0  0  0  0  0  0  0  0  0  0  0  0
    2.5399   -0.3703   -0.7885 C   0  0  0  0  0  0  0  0  0  0  0  0
    1.4314   -0.5951   -0.3281 C   0  0  0  0  0  0  0  0  0  0  0  0
    0.1220   -0.9172    0.1873 C   0  0  0  0  0  0  0  0  0  0  0  0
   -0.0185   -2.0114    1.0519 C   0  0  0  0  0  0  0  0  0  0  0  0
   -1.2348   -2.4056    1.5542 C   0  0  0  0  0  0  0  0  0  0  0  0
   -2.3430   -1.6684    1.1697 C   0  0  0  0  0  0  0  0  0  0  0  0
   -3.6134   -2.2241    1.7235 C   0  0  0  0  0  0  0  0  0  0  0  0
   -4.5921   -2.4073    0.5420 C   0  0  0  0  0  0  0  0  0  0  0  0
   -5.2838   -1.1255    0.8616 C   0  0  0  0  0  0  0  0  0  0  0  0
   -4.5847   -1.1904    2.2389 C   0  0  0  0  0  0  0  0  0  0  0  0
   -4.6895    0.0205    0.0898 C   0  0  0  0  0  0  0  0  0  0  0  0
   -5.4857    1.3207   -0.6774 S   0  0  0  0  0  0  0  0  0  0  0  0
   -4.1033    2.1350   -1.2718 C   0  0  0  0  0  0  0  0  0  0  0  0
   -3.1115    1.3673   -0.8517 N   0  0  0  0  0  0  0  0  0  0  0  0
   -3.3607    0.2962   -0.1651 C   0  0  0  0  0  0  0  0  0  0  0  0
   -2.2421   -0.5814    0.3231 C   0  0  0  0  0  0  0  0  0  0  0  0
   -1.0171   -0.2203   -0.1570 C   0  0  0  0  0  0  0  0  0  0  0  0
   -4.0518    3.3897   -2.0598 C   0  0  0  0  0  0  0  0  0  0  0  0
   -5.2654    4.0367   -2.3563 N   0  0  0  0  0  0  0  0  0  0  0  0
   -2.9660    3.8407   -2.4344 O   0  0  0  0  0  0  0  0  0  0  0  0
    8.4685    2.1528    0.2927 H   0  0  0  0  0  0  0  0  0  0  0  0
    7.7051    2.6937    1.9020 H   0  0  0  0  0  0  0  0  0  0  0  0
    8.1603    0.9962    1.5800 H   0  0  0  0  0  0  0  0  0  0  0  0
    6.6241   -0.3336   -0.3891 H   0  0  0  0  0  0  0  0  0  0  0  0
    5.4331   -1.2844   -2.2107 H   0  0  0  0  0  0  0  0  0  0  0  0
    3.9535   -2.2705   -1.9257 H   0  0  0  0  0  0  0  0  0  0  0  0
    5.0090   -1.7796   -0.5422 H   0  0  0  0  0  0  0  0  0  0  0  0
    3.1891   -0.3748   -3.1615 H   0  0  0  0  0  0  0  0  0  0  0  0
    0.8912   -2.5349    1.3087 H   0  0  0  0  0  0  0  0  0  0  0  0
   -1.3498   -3.2459    2.2192 H   0  0  0  0  0  0  0  0  0  0  0  0
   -3.4742   -3.1336    2.3322 H   0  0  0  0  0  0  0  0  0  0  0  0
   -5.2198   -3.2929    0.7362 H   0  0  0  0  0  0  0  0  0  0  0  0
   -4.0916   -2.4819   -0.4402 H   0  0  0  0  0  0  0  0  0  0  0  0
   -6.3745   -1.0949    0.9004 H   0  0  0  0  0  0  0  0  0  0  0  0
   -4.1829   -0.1989    2.4907 H   0  0  0  0  0  0  0  0  0  0  0  0
   -5.2645   -1.6264    2.9897 H   0  0  0  0  0  0  0  0  0  0  0  0
   -0.9456    0.6380   -0.8225 H   0  0  0  0  0  0  0  0  0  0  0  0
   -5.8205    4.5345   -1.6105 H   0  0  0  0  0  0  0  0  0  0  0  0
   -5.6475    4.0251   -3.3239 H   0  0  0  0  0  0  0  0  0  0  0  0
  1  2  1  0
  2  3  2  0
  3  4  1  0
  4  5  2  0
  5  6  1  0
  4  7  1  0
  7  8  1  0
  7  9  1  0
  7 10  1  1
 10 11  3  0
 11 12  1  0
 12 13  2  0
 13 14  1  0
 14 15  2  0
 15 16  1  0
 16 17  1  0
 17 18  1  0
 18 19  1  0
 18 20  1  0
 20 21  1  0
 21 22  1  0
 22 23  2  0
 23 24  1  0
 24 25  1  0
 25 26  2  0
 22 27  1  0
 27 28  1  0
 27 29  2  0
  6  2  1  0
 26 12  1  0
 25 15  1  0
 19 16  1  0
 24 20  2  0
  1 30  1  0
  1 31  1  0
  1 32  1  0
  3 33  1  0
  8 34  1  0
  8 35  1  0
  8 36  1  0
  9 37  1  0
 13 38  1  0
 14 39  1  0
 16 40  1  0
 17 41  1  0
 17 42  1  0
 18 43  1  0
 19 44  1  0
 19 45  1  0
 26 46  1  0
 28 47  1  0
 28 48  1  0
M  END
$$$$
[H]OC([H])([H])C(C#Cc1c([H])c2c(c([H])c1F)OC([H])([H])C([H])([H])n1c-2nc(C(=O)N([H])[H])c1[H])(O[H])C([H])([H])[H]
     RDKit          3D

 41 43  0  0  0  0  0  0  0  0999 V2000
    5.0133    1.9898   -0.1787 C   0  0  0  0  0  0  0  0  0  0  0  0
    4.4648    0.9198    0.7453 C   0  0  0  0  0  0  0  0  0  0  0  0
    4.1933    1.4465    1.9849 O   0  0  0  0  0  0  0  0  0  0  0  0
    5.5829   -0.1175    0.9029 C   0  0  0  0  0  0  0  0  0  0  0  0
    5.2027   -1.1428    1.7652 O   0  0  0  0  0  0  0  0  0  0  0  0
    3.2620    0.2998    0.1896 C   0  0  0  0  0  0  0  0  0  0  0  0
    2.2562   -0.1964   -0.2635 C   0  0  0  0  0  0  0  0  0  0  0  0
    1.0399   -0.7686   -0.8094 C   0  0  0  0  0  0  0  0  0  0  0  0
   -0.1408   -0.2699   -0.2986 C   0  0  0  0  0  0  0  0  0  0  0  0
   -1.3161   -0.7839   -0.7877 C   0  0  0  0  0  0  0  0  0  0  0  0
   -2.5054   -0.1718   -0.1635 C   0  0  0  0  0  0  0  0  0  0  0  0
   -2.3959    0.8539    0.6828 N   0  0  0  0  0  0  0  0  0  0  0  0
   -3.6594    1.1682    1.0667 C   0  0  0  0  0  0  0  0  0  0  0  0
   -4.5314    0.2881    0.4153 C   0  0  0  0  0  0  0  0  0  0  0  0
   -3.7897   -0.5341   -0.3429 N   0  0  0  0  0  0  0  0  0  0  0  0
   -4.3921   -1.5725   -1.1515 C   0  0  0  0  0  0  0  0  0  0  0  0
   -3.6838   -1.7716   -2.4740 C   0  0  0  0  0  0  0  0  0  0  0  0
   -2.4144   -2.3677   -2.3342 O   0  0  0  0  0  0  0  0  0  0  0  0
   -1.2998   -1.7693   -1.7608 C   0  0  0  0  0  0  0  0  0  0  0  0
   -0.1031   -2.2596   -2.2635 C   0  0  0  0  0  0  0  0  0  0  0  0
    1.0807   -1.7528   -1.7817 C   0  0  0  0  0  0  0  0  0  0  0  0
    2.2963   -2.1712   -2.2137 F   0  0  0  0  0  0  0  0  0  0  0  0
   -4.0068    2.2302    1.9873 C   0  0  0  0  0  0  0  0  0  0  0  0
   -3.0040    3.0343    2.5627 N   0  0  0  0  0  0  0  0  0  0  0  0
   -5.2042    2.4310    2.2700 O   0  0  0  0  0  0  0  0  0  0  0  0
    5.5835    2.7319    0.4104 H   0  0  0  0  0  0  0  0  0  0  0  0
    4.1774    2.4775   -0.7148 H   0  0  0  0  0  0  0  0  0  0  0  0
    5.7073    1.5834   -0.9363 H   0  0  0  0  0  0  0  0  0  0  0  0
    4.4657    0.8111    2.6775 H   0  0  0  0  0  0  0  0  0  0  0  0
    5.7134   -0.5499   -0.1269 H   0  0  0  0  0  0  0  0  0  0  0  0
    6.5213    0.3667    1.1660 H   0  0  0  0  0  0  0  0  0  0  0  0
    4.8783   -1.9284    1.2238 H   0  0  0  0  0  0  0  0  0  0  0  0
   -0.1539    0.4903    0.4521 H   0  0  0  0  0  0  0  0  0  0  0  0
   -5.6012    0.3315    0.5543 H   0  0  0  0  0  0  0  0  0  0  0  0
   -4.5079   -2.5196   -0.5928 H   0  0  0  0  0  0  0  0  0  0  0  0
   -5.4163   -1.2335   -1.4066 H   0  0  0  0  0  0  0  0  0  0  0  0
   -3.6441   -0.7757   -2.9613 H   0  0  0  0  0  0  0  0  0  0  0  0
   -4.3301   -2.4569   -3.0702 H   0  0  0  0  0  0  0  0  0  0  0  0
   -0.0953   -3.0188   -3.0132 H   0  0  0  0  0  0  0  0  0  0  0  0
   -2.7074    2.8858    3.5444 H   0  0  0  0  0  0  0  0  0  0  0  0
   -2.5358    3.7928    2.0265 H   0  0  0  0  0  0  0  0  0  0  0  0
  1  2  1  0
  2  3  1  0
  2  4  1  0
  4  5  1  0
  2  6  1  0
  6  7  3  0
  7  8  1  0
  8  9  2  0
  9 10  1  0
 10 11  1  0
 11 12  2  0
 12 13  1  0
 13 14  2  0
 14 15  1  0
 15 16  1  0
 16 17  1  0
 17 18  1  0
 18 19  1  0
 19 20  1  0
 20 21  2  0
 21 22  1  0
 13 23  1  0
 23 24  1  0
 23 25  2  0
 21  8  1  0
 19 10  2  0
 15 11  1  0
  1 26  1  0
  1 27  1  0
  1 28  1  0
  3 29  1  0
  4 30  1  0
  4 31  1  0
  5 32  1  0
  9 33  1  0
 14 34  1  0
 16 35  1  0
 16 36  1  0
 17 37  1  0
 17 38  1  0
 20 39  1  0
 24 40  1  0
 24 41  1  0
M  END
$$$$
[H]OC(C#Cc1c([H])c2c(c([H])c1F)OC([H])([H])C([H])([H])n1c-2nc(C(=O)N([H])[H])c1C(=O)N([H])C([H])([H])[H])(C([H])([H])[H])C([H])([H])OC([H])([H])[H]
     RDKit          3D

 51 53  0  0  0  0  0  0  0  0999 V2000
    6.9455    2.2432   -0.7513 C   0  0  0  0  0  0  0  0  0  0  0  0
    5.5377    1.9345   -0.6922 N   0  0  0  0  0  0  0  0  0  0  0  0
    4.9699    1.1222    0.3074 C   0  0  0  0  0  0  0  0  0  0  0  0
    5.8091    0.6608    1.1589 O   0  0  0  0  0  0  0  0  0  0  0  0
    3.5460    0.7856    0.4181 C   0  0  0  0  0  0  0  0  0  0  0  0
    2.5099    1.6824    0.2389 C   0  0  0  0  0  0  0  0  0  0  0  0
    1.3609    0.9296    0.3311 N   0  0  0  0  0  0  0  0  0  0  0  0
    1.6858   -0.3395    0.5549 C   0  0  0  0  0  0  0  0  0  0  0  0
    0.7061   -1.4126    0.7092 C   0  0  0  0  0  0  0  0  0  0  0  0
   -0.5491   -1.0176    0.3139 C   0  0  0  0  0  0  0  0  0  0  0  0
   -1.5892   -1.9104    0.3954 C   0  0  0  0  0  0  0  0  0  0  0  0
   -2.9366   -1.5372   -0.0119 C   0  0  0  0  0  0  0  0  0  0  0  0
   -4.0514   -1.2152   -0.3325 C   0  0  0  0  0  0  0  0  0  0  0  0
   -5.4069   -0.8467   -0.7333 C   0  0  0  0  0  0  0  0  0  0  0  0
   -6.4596   -1.6111    0.0209 C   0  0  0  0  0  0  0  0  0  0  0  0
   -5.6257   -1.0408   -2.0894 O   0  0  0  0  0  0  0  0  0  0  0  0
   -5.5745    0.6300   -0.4091 C   0  0  0  0  0  0  0  0  0  0  0  0
   -4.6151    1.3079   -1.1865 O   0  0  0  0  0  0  0  0  0  0  0  0
   -4.7340    2.6758   -0.9187 C   0  0  0  0  0  0  0  0  0  0  0  0
   -1.3234   -3.1803    0.8768 C   0  0  0  0  0  0  0  0  0  0  0  0
   -2.3531   -4.0506    0.9530 F   0  0  0  0  0  0  0  0  0  0  0  0
   -0.0745   -3.5998    1.2790 C   0  0  0  0  0  0  0  0  0  0  0  0
    0.9645   -2.6989    1.1945 C   0  0  0  0  0  0  0  0  0  0  0  0
    2.1822   -3.2005    1.6176 O   0  0  0  0  0  0  0  0  0  0  0  0
    3.3283   -2.4543    1.9850 C   0  0  0  0  0  0  0  0  0  0  0  0
    3.8433   -1.6271    0.8226 C   0  0  0  0  0  0  0  0  0  0  0  0
    3.0508   -0.4504    0.6132 N   0  0  0  0  0  0  0  0  0  0  0  0
    2.5281    3.1373    0.0798 C   0  0  0  0  0  0  0  0  0  0  0  0
    1.2653    3.7282   -0.3379 N   0  0  0  0  0  0  0  0  0  0  0  0
    3.5000    3.8776    0.2661 O   0  0  0  0  0  0  0  0  0  0  0  0
    7.3761    2.3968    0.2761 H   0  0  0  0  0  0  0  0  0  0  0  0
    7.5385    1.3951   -1.1838 H   0  0  0  0  0  0  0  0  0  0  0  0
    7.1738    3.1477   -1.3162 H   0  0  0  0  0  0  0  0  0  0  0  0
    4.9348    2.3147   -1.4468 H   0  0  0  0  0  0  0  0  0  0  0  0
   -0.6806   -0.0146   -0.0499 H   0  0  0  0  0  0  0  0  0  0  0  0
   -7.4267   -1.0807   -0.1325 H   0  0  0  0  0  0  0  0  0  0  0  0
   -6.2902   -1.6458    1.1092 H   0  0  0  0  0  0  0  0  0  0  0  0
   -6.6024   -2.6210   -0.4311 H   0  0  0  0  0  0  0  0  0  0  0  0
   -5.7034   -2.0261   -2.2470 H   0  0  0  0  0  0  0  0  0  0  0  0
   -5.3785    0.8099    0.6680 H   0  0  0  0  0  0  0  0  0  0  0  0
   -6.6084    0.9235   -0.6980 H   0  0  0  0  0  0  0  0  0  0  0  0
   -3.9732    3.2100   -1.5355 H   0  0  0  0  0  0  0  0  0  0  0  0
   -4.6201    2.8950    0.1581 H   0  0  0  0  0  0  0  0  0  0  0  0
   -5.7558    3.0346   -1.2110 H   0  0  0  0  0  0  0  0  0  0  0  0
    0.1432   -4.5767    1.6521 H   0  0  0  0  0  0  0  0  0  0  0  0
    4.1422   -3.0825    2.3615 H   0  0  0  0  0  0  0  0  0  0  0  0
    3.0836   -1.7310    2.8076 H   0  0  0  0  0  0  0  0  0  0  0  0
    3.7258   -2.2943   -0.0778 H   0  0  0  0  0  0  0  0  0  0  0  0
    4.8927   -1.4665    0.9659 H   0  0  0  0  0  0  0  0  0  0  0  0
    0.3538    3.3389   -0.0119 H   0  0  0  0  0  0  0  0  0  0  0  0
    1.2342    4.5515   -0.9703 H   0  0  0  0  0  0  0  0  0  0  0  0
  1  2  1  0
  2  3  1  0
  3  4  2  0
  3  5  1  0
  5  6  2  0
  6  7  1  0
  7  8  2  0
  8  9  1  0
  9 10  2  0
 10 11  1  0
 11 12  1  0
 12 13  3  0
 13 14  1  0
 14 15  1  0
 14 16  1  0
 14 17  1  0
 17 18  1  0
 18 19  1  0
 11 20  2  0
 20 21  1  0
 20 22  1  0
 22 23  2  0
 23 24  1  0
 24 25  1  0
 25 26  1  0
 26 27  1  0
  6 28  1  0
 28 29  1  0
 28 30  2  0
 27  5  1  0
 27  8  1  0
 23  9  1  0
  1 31  1  0
  1 32  1  0
  1 33  1  0
  2 34  1  0
 10 35  1  0
 15 36  1  0
 15 37  1  0
 15 38  1  0
 16 39  1  0
 17 40  1  0
 17 41  1  0
 19 42  1  0
 19 43  1  0
 19 44  1  0
 22 45  1  0
 25 46  1  0
 25 47  1  0
 26 48  1  0
 26 49  1  0
 29 50  1  0
 29 51  1  0
M  END
$$$$
[H]OC([H])([H])C(C#Cc1c([H])c2c(c([H])c1F)OC([H])([H])C([H])([H])n1c-2nc(C(=O)N([H])[H])c1C(=O)N([H])C([H])([H])[H])(O[H])C([H])([H])[H]
     RDKit          3D

 48 50  0  0  0  0  0  0  0  0999 V2000
   -6.9426    1.3177   -0.3754 C   0  0  0  0  0  0  0  0  0  0  0  0
   -5.5180    0.9817   -0.5561 N   0  0  0  0  0  0  0  0  0  0  0  0
   -4.6926    0.9344    0.5691 C   0  0  0  0  0  0  0  0  0  0  0  0
   -5.1922    1.1917    1.7290 O   0  0  0  0  0  0  0  0  0  0  0  0
   -3.2738    0.6170    0.5483 C   0  0  0  0  0  0  0  0  0  0  0  0
   -2.3233    1.2471    1.3372 C   0  0  0  0  0  0  0  0  0  0  0  0
   -1.1181    0.6483    1.1160 N   0  0  0  0  0  0  0  0  0  0  0  0
   -1.3324   -0.3133    0.2205 C   0  0  0  0  0  0  0  0  0  0  0  0
   -0.2797   -1.2026   -0.2958 C   0  0  0  0  0  0  0  0  0  0  0  0
    0.9770   -0.6596   -0.1704 C   0  0  0  0  0  0  0  0  0  0  0  0
    2.0736   -1.4041   -0.6212 C   0  0  0  0  0  0  0  0  0  0  0  0
    3.3636   -0.8014   -0.4715 C   0  0  0  0  0  0  0  0  0  0  0  0
    4.4520   -0.2936   -0.3507 C   0  0  0  0  0  0  0  0  0  0  0  0
    5.7809    0.3290   -0.1808 C   0  0  0  0  0  0  0  0  0  0  0  0
    5.7237    1.6679   -0.8593 C   0  0  0  0  0  0  0  0  0  0  0  0
    6.7733   -0.4906   -0.6760 O   0  0  0  0  0  0  0  0  0  0  0  0
    6.0459    0.5075    1.3168 C   0  0  0  0  0  0  0  0  0  0  0  0
    7.3059    1.0897    1.4335 O   0  0  0  0  0  0  0  0  0  0  0  0
    1.8815   -2.6492   -1.1748 C   0  0  0  0  0  0  0  0  0  0  0  0
    2.9575   -3.3400   -1.5989 F   0  0  0  0  0  0  0  0  0  0  0  0
    0.6282   -3.2048   -1.3064 C   0  0  0  0  0  0  0  0  0  0  0  0
   -0.4522   -2.4609   -0.8574 C   0  0  0  0  0  0  0  0  0  0  0  0
   -1.6901   -3.0540   -1.0070 O   0  0  0  0  0  0  0  0  0  0  0  0
   -2.8919   -2.5338   -1.4260 C   0  0  0  0  0  0  0  0  0  0  0  0
   -3.3546   -1.2025   -1.0479 C   0  0  0  0  0  0  0  0  0  0  0  0
   -2.6334   -0.3743   -0.1586 N   0  0  0  0  0  0  0  0  0  0  0  0
   -2.4463    2.3843    2.2326 C   0  0  0  0  0  0  0  0  0  0  0  0
   -1.2985    2.7293    3.0498 N   0  0  0  0  0  0  0  0  0  0  0  0
   -3.4392    3.1065    2.3808 O   0  0  0  0  0  0  0  0  0  0  0  0
   -7.0509    2.4162   -0.2909 H   0  0  0  0  0  0  0  0  0  0  0  0
   -7.5275    0.9644   -1.2300 H   0  0  0  0  0  0  0  0  0  0  0  0
   -7.2915    0.8250    0.5746 H   0  0  0  0  0  0  0  0  0  0  0  0
   -5.1911    0.8090   -1.5145 H   0  0  0  0  0  0  0  0  0  0  0  0
    1.0645    0.3200    0.2722 H   0  0  0  0  0  0  0  0  0  0  0  0
    4.8711    1.7420   -1.5931 H   0  0  0  0  0  0  0  0  0  0  0  0
    5.5718    2.5085   -0.1574 H   0  0  0  0  0  0  0  0  0  0  0  0
    6.6389    1.8235   -1.4724 H   0  0  0  0  0  0  0  0  0  0  0  0
    6.4436   -1.3696   -0.9684 H   0  0  0  0  0  0  0  0  0  0  0  0
    5.2809    1.2176    1.6865 H   0  0  0  0  0  0  0  0  0  0  0  0
    6.0085   -0.4756    1.8117 H   0  0  0  0  0  0  0  0  0  0  0  0
    7.9622    0.7051    0.8141 H   0  0  0  0  0  0  0  0  0  0  0  0
    0.4623   -4.1838   -1.7391 H   0  0  0  0  0  0  0  0  0  0  0  0
   -3.6868   -3.2731   -1.0462 H   0  0  0  0  0  0  0  0  0  0  0  0
   -3.0266   -2.6631   -2.5610 H   0  0  0  0  0  0  0  0  0  0  0  0
   -3.4401   -0.6051   -2.0169 H   0  0  0  0  0  0  0  0  0  0  0  0
   -4.4302   -1.2431   -0.6623 H   0  0  0  0  0  0  0  0  0  0  0  0
   -0.3342    2.5051    2.7377 H   0  0  0  0  0  0  0  0  0  0  0  0
   -1.4089    3.2095    3.9683 H   0  0  0  0  0  0  0  0  0  0  0  0
  1  2  1  0
  2  3  1  0
  3  4  2  0
  3  5  1  0
  5  6  2  0
  6  7  1  0
  7  8  2  0
  8  9  1  0
  9 10  2  0
 10 11  1  0
 11 12  1  0
 12 13  3  0
 13 14  1  0
 14 15  1  0
 14 16  1  0
 14 17  1  0
 17 18  1  0
 11 19  2  0
 19 20  1  0
 19 21  1  0
 21 22  2  0
 22 23  1  0
 23 24  1  0
 24 25  1  0
 25 26  1  0
  6 27  1  0
 27 28  1  0
 27 29  2  0
 26  5  1  0
 26  8  1  0
 22  9  1  0
  1 30  1  0
  1 31  1  0
  1 32  1  0
  2 33  1  0
 10 34  1  0
 15 35  1  0
 15 36  1  0
 15 37  1  0
 16 38  1  0
 17 39  1  0
 17 40  1  0
 18 41  1  0
 21 42  1  0
 24 43  1  0
 24 44  1  0
 25 45  1  0
 25 46  1  0
 28 47  1  0
 28 48  1  0
M  END
$$$$
[H]O[C@]1(C#Cc2c([H])c([H])c3c(c2[H])-c2nc(C(=O)N([H])[H])n(C([H])([H])[H])c2C2([H])C([H])([H])C3([H])C2([H])[H])C(=O)N(C([H])([H])[H])C([H])([H])C1([H])[H]
     RDKit          3D

 51 55  0  0  0  0  0  0  0  0999 V2000
    5.9050    2.8275    0.0404 C   0  0  0  0  0  0  0  0  0  0  0  0
    5.5194    1.4265    0.0887 N   0  0  0  0  0  0  0  0  0  0  0  0
    5.4871    0.6346    1.3237 C   0  0  0  0  0  0  0  0  0  0  0  0
    5.7408   -0.7674    0.8465 C   0  0  0  0  0  0  0  0  0  0  0  0
    4.9941   -0.7959   -0.4893 C   0  0  1  0  0  0  0  0  0  0  0  0
    5.6049   -1.7069   -1.3416 O   0  0  0  0  0  0  0  0  0  0  0  0
    3.5753   -1.0972   -0.2886 C   0  0  0  0  0  0  0  0  0  0  0  0
    2.4080   -1.3661   -0.1272 C   0  0  0  0  0  0  0  0  0  0  0  0
    1.0139   -1.7127    0.0667 C   0  0  0  0  0  0  0  0  0  0  0  0
    0.6330   -3.0145    0.3372 C   0  0  0  0  0  0  0  0  0  0  0  0
   -0.6915   -3.3514    0.5228 C   0  0  0  0  0  0  0  0  0  0  0  0
   -1.6071   -2.3290    0.4248 C   0  0  0  0  0  0  0  0  0  0  0  0
   -3.0222   -2.7928    0.6416 C   0  0  0  0  0  0  0  0  0  0  0  0
   -3.9193   -2.1983   -0.4528 C   0  0  0  0  0  0  0  0  0  0  0  0
   -4.3645   -1.0627    0.4823 C   0  0  0  0  0  0  0  0  0  0  0  0
   -3.7540   -1.8833    1.6105 C   0  0  0  0  0  0  0  0  0  0  0  0
   -3.5256    0.1256    0.1749 C   0  0  0  0  0  0  0  0  0  0  0  0
   -2.1461    0.1605    0.0271 C   0  0  0  0  0  0  0  0  0  0  0  0
   -1.7795    1.4191   -0.2449 N   0  0  0  0  0  0  0  0  0  0  0  0
   -2.9097    2.1816   -0.2712 C   0  0  0  0  0  0  0  0  0  0  0  0
   -2.9857    3.6153   -0.5306 C   0  0  0  0  0  0  0  0  0  0  0  0
   -4.1977    4.3389   -0.5413 N   0  0  0  0  0  0  0  0  0  0  0  0
   -1.9186    4.2409   -0.7564 O   0  0  0  0  0  0  0  0  0  0  0  0
   -3.9613    1.3652   -0.0114 N   0  0  0  0  0  0  0  0  0  0  0  0
   -5.3273    1.7964    0.0484 C   0  0  0  0  0  0  0  0  0  0  0  0
   -1.2426   -1.0116    0.1530 C   0  0  0  0  0  0  0  0  0  0  0  0
    0.0731   -0.7324   -0.0213 C   0  0  0  0  0  0  0  0  0  0  0  0
    5.1176    0.5776   -0.9763 C   0  0  0  0  0  0  0  0  0  0  0  0
    4.9079    0.9736   -2.1469 O   0  0  0  0  0  0  0  0  0  0  0  0
    7.0329    2.8512    0.0081 H   0  0  0  0  0  0  0  0  0  0  0  0
    5.5613    3.3487    0.9579 H   0  0  0  0  0  0  0  0  0  0  0  0
    5.4628    3.3240   -0.8478 H   0  0  0  0  0  0  0  0  0  0  0  0
    4.4725    0.7514    1.7483 H   0  0  0  0  0  0  0  0  0  0  0  0
    6.2783    0.9725    2.0244 H   0  0  0  0  0  0  0  0  0  0  0  0
    5.3419   -1.5445    1.5260 H   0  0  0  0  0  0  0  0  0  0  0  0
    6.8176   -0.8856    0.6538 H   0  0  0  0  0  0  0  0  0  0  0  0
    5.3432   -2.6161   -1.0302 H   0  0  0  0  0  0  0  0  0  0  0  0
    1.4301   -3.7713    0.3984 H   0  0  0  0  0  0  0  0  0  0  0  0
   -0.9905   -4.3691    0.7344 H   0  0  0  0  0  0  0  0  0  0  0  0
   -3.1312   -3.8603    0.7967 H   0  0  0  0  0  0  0  0  0  0  0  0
   -3.3200   -1.8234   -1.3081 H   0  0  0  0  0  0  0  0  0  0  0  0
   -4.7267   -2.8521   -0.7862 H   0  0  0  0  0  0  0  0  0  0  0  0
   -5.4315   -0.9099    0.5335 H   0  0  0  0  0  0  0  0  0  0  0  0
   -4.5448   -2.4733    2.1224 H   0  0  0  0  0  0  0  0  0  0  0  0
   -3.1212   -1.3224    2.3103 H   0  0  0  0  0  0  0  0  0  0  0  0
   -4.5555    4.7373    0.3332 H   0  0  0  0  0  0  0  0  0  0  0  0
   -4.7363    4.4767   -1.4192 H   0  0  0  0  0  0  0  0  0  0  0  0
   -6.0309    0.9952    0.2640 H   0  0  0  0  0  0  0  0  0  0  0  0
   -5.6414    2.2355   -0.9268 H   0  0  0  0  0  0  0  0  0  0  0  0
   -5.4998    2.5883    0.8354 H   0  0  0  0  0  0  0  0  0  0  0  0
    0.3622    0.2860   -0.2321 H   0  0  0  0  0  0  0  0  0  0  0  0
  1  2  1  0
  2  3  1  0
  3  4  1  0
  4  5  1  0
  5  6  1  0
  5  7  1  1
  7  8  3  0
  8  9  1  0
  9 10  2  0
 10 11  1  0
 11 12  2  0
 12 13  1  0
 13 14  1  0
 14 15  1  0
 15 16  1  0
 15 17  1  0
 17 18  2  0
 18 19  1  0
 19 20  2  0
 20 21  1  0
 21 22  1  0
 21 23  2  0
 20 24  1  0
 24 25  1  0
 18 26  1  0
 26 27  2  0
  5 28  1  0
 28 29  2  0
 28  2  1  0
 27  9  1  0
 26 12  1  0
 16 13  1  0
 24 17  1  0
  1 30  1  0
  1 31  1  0
  1 32  1  0
  3 33  1  0
  3 34  1  0
  4 35  1  0
  4 36  1  0
  6 37  1  0
 10 38  1  0
 11 39  1  0
 13 40  1  0
 14 41  1  0
 14 42  1  0
 15 43  1  0
 16 44  1  0
 16 45  1  0
 22 46  1  0
 22 47  1  0
 25 48  1  0
 25 49  1  0
 25 50  1  0
 27 51  1  0
M  END
$$$$
[H]OC(C#Cc1c([H])c2c(c([H])c1F)C1([H])C([H])([H])C([H])(n3c-2nc(C(=O)N([H])[H])c3-c2nc(C3([H])C([H])([H])C3([H])[H])no2)C1([H])[H])(C([H])([H])[H])C([H])([H])[H]
     RDKit          3D

 55 60  0  0  0  0  0  0  0  0999 V2000
    7.6403   -1.9446    0.8788 C   0  0  0  0  0  0  0  0  0  0  0  0
    6.7806   -1.4557   -0.2826 C   0  0  0  0  0  0  0  0  0  0  0  0
    7.6371   -0.5502   -1.1148 C   0  0  0  0  0  0  0  0  0  0  0  0
    6.4358   -2.5647   -1.0286 O   0  0  0  0  0  0  0  0  0  0  0  0
    5.5609   -0.8249    0.1855 C   0  0  0  0  0  0  0  0  0  0  0  0
    4.5515   -0.3055    0.5922 C   0  0  0  0  0  0  0  0  0  0  0  0
    3.3444    0.3423    1.0730 C   0  0  0  0  0  0  0  0  0  0  0  0
    2.1389    0.0372    0.4662 C   0  0  0  0  0  0  0  0  0  0  0  0
    0.9872    0.6337    0.9004 C   0  0  0  0  0  0  0  0  0  0  0  0
   -0.2185    0.2150    0.1644 C   0  0  0  0  0  0  0  0  0  0  0  0
   -0.2278   -0.6529   -0.8374 N   0  0  0  0  0  0  0  0  0  0  0  0
   -1.5257   -0.8186   -1.3001 C   0  0  0  0  0  0  0  0  0  0  0  0
   -1.8644   -1.7044   -2.3915 C   0  0  0  0  0  0  0  0  0  0  0  0
   -0.7682   -2.4304   -2.9988 N   0  0  0  0  0  0  0  0  0  0  0  0
   -2.9875   -1.9029   -2.8548 O   0  0  0  0  0  0  0  0  0  0  0  0
   -2.3004   -0.0006   -0.5200 C   0  0  0  0  0  0  0  0  0  0  0  0
   -3.7611    0.1967   -0.5981 C   0  0  0  0  0  0  0  0  0  0  0  0
   -4.6321   -0.3680   -1.4339 N   0  0  0  0  0  0  0  0  0  0  0  0
   -5.8757    0.0690   -1.1893 C   0  0  0  0  0  0  0  0  0  0  0  0
   -5.7194    0.9230   -0.1689 N   0  0  0  0  0  0  0  0  0  0  0  0
   -4.4877    0.9778    0.1529 O   0  0  0  0  0  0  0  0  0  0  0  0
   -7.1542   -0.3040   -1.8890 C   0  0  0  0  0  0  0  0  0  0  0  0
   -8.3617   -0.4255   -1.0603 C   0  0  0  0  0  0  0  0  0  0  0  0
   -8.2302    0.7274   -1.9971 C   0  0  0  0  0  0  0  0  0  0  0  0
   -1.5016    0.6318    0.3758 N   0  0  0  0  0  0  0  0  0  0  0  0
   -1.8905    1.5830    1.3896 C   0  0  0  0  0  0  0  0  0  0  0  0
   -1.2196    1.2336    2.7343 C   0  0  0  0  0  0  0  0  0  0  0  0
   -0.1310    2.2621    2.5194 C   0  0  0  0  0  0  0  0  0  0  0  0
   -0.9523    2.8055    1.3658 C   0  0  0  0  0  0  0  0  0  0  0  0
    1.0788    1.5412    1.9562 C   0  0  0  0  0  0  0  0  0  0  0  0
    2.2540    1.8596    2.5718 C   0  0  0  0  0  0  0  0  0  0  0  0
    3.4058    1.2510    2.1238 C   0  0  0  0  0  0  0  0  0  0  0  0
    4.5781    1.5465    2.7126 F   0  0  0  0  0  0  0  0  0  0  0  0
    6.9844   -2.6174    1.4734 H   0  0  0  0  0  0  0  0  0  0  0  0
    8.5339   -2.4423    0.4964 H   0  0  0  0  0  0  0  0  0  0  0  0
    7.8859   -1.0866    1.5374 H   0  0  0  0  0  0  0  0  0  0  0  0
    8.6551   -0.9993   -1.1497 H   0  0  0  0  0  0  0  0  0  0  0  0
    7.2973   -0.4726   -2.1725 H   0  0  0  0  0  0  0  0  0  0  0  0
    7.7725    0.4535   -0.6476 H   0  0  0  0  0  0  0  0  0  0  0  0
    5.4924   -2.5290   -1.3299 H   0  0  0  0  0  0  0  0  0  0  0  0
    2.1212   -0.6606   -0.3343 H   0  0  0  0  0  0  0  0  0  0  0  0
    0.1389   -1.9684   -3.1260 H   0  0  0  0  0  0  0  0  0  0  0  0
   -0.9321   -3.4004   -3.2888 H   0  0  0  0  0  0  0  0  0  0  0  0
   -7.0254   -1.0353   -2.7070 H   0  0  0  0  0  0  0  0  0  0  0  0
   -8.3049   -0.1375    0.0194 H   0  0  0  0  0  0  0  0  0  0  0  0
   -9.1353   -1.1913   -1.2727 H   0  0  0  0  0  0  0  0  0  0  0  0
   -8.8707    0.7093   -2.8852 H   0  0  0  0  0  0  0  0  0  0  0  0
   -7.9425    1.7271   -1.6191 H   0  0  0  0  0  0  0  0  0  0  0  0
   -2.9201    1.8732    1.4821 H   0  0  0  0  0  0  0  0  0  0  0  0
   -0.8406    0.2024    2.6969 H   0  0  0  0  0  0  0  0  0  0  0  0
   -1.8737    1.4140    3.6071 H   0  0  0  0  0  0  0  0  0  0  0  0
    0.0808    2.9400    3.3350 H   0  0  0  0  0  0  0  0  0  0  0  0
   -0.4230    2.8154    0.3949 H   0  0  0  0  0  0  0  0  0  0  0  0
   -1.5125    3.7132    1.6109 H   0  0  0  0  0  0  0  0  0  0  0  0
    2.2345    2.5725    3.3815 H   0  0  0  0  0  0  0  0  0  0  0  0
  1  2  1  0
  2  3  1  0
  2  4  1  0
  2  5  1  0
  5  6  3  0
  6  7  1  0
  7  8  1  0
  8  9  2  0
  9 10  1  0
 10 11  2  0
 11 12  1  0
 12 13  1  0
 13 14  1  0
 13 15  2  0
 12 16  2  0
 16 17  1  0
 17 18  2  0
 18 19  1  0
 19 20  2  0
 20 21  1  0
 19 22  1  0
 22 23  1  0
 23 24  1  0
 16 25  1  0
 25 26  1  0
 26 27  1  0
 27 28  1  0
 28 29  1  0
 28 30  1  0
 30 31  2  0
 31 32  1  0
 32 33  1  0
 32  7  2  0
 30  9  1  0
 25 10  1  0
 29 26  1  0
 21 17  1  0
 24 22  1  0
  1 34  1  0
  1 35  1  0
  1 36  1  0
  3 37  1  0
  3 38  1  0
  3 39  1  0
  4 40  1  0
  8 41  1  0
 14 42  1  0
 14 43  1  0
 22 44  1  0
 23 45  1  0
 23 46  1  0
 24 47  1  0
 24 48  1  0
 26 49  1  0
 27 50  1  0
 27 51  1  0
 28 52  1  0
 29 53  1  0
 29 54  1  0
 31 55  1  0
M  END
$$$$
[H]O[C@]1(C([H])([H])[H])c2sc(C(=O)N([H])[H])nc2-c2c([H])c(C#C[C@@]3(O[H])C(=O)N(C([H])([H])[H])C([H])([H])C3([H])[H])c([H])c([H])c2OC1([H])[H]
     RDKit          3D

 48 51  0  0  0  0  0  0  0  0999 V2000
    7.5224    0.6063   -0.1884 C   0  0  0  0  0  0  0  0  0  0  0  0
    6.3272    0.1509    0.4862 N   0  0  0  0  0  0  0  0  0  0  0  0
    5.9128    0.4491    1.8456 C   0  0  0  0  0  0  0  0  0  0  0  0
    4.4253    0.2857    1.7937 C   0  0  0  0  0  0  0  0  0  0  0  0
    4.1774   -0.8221    0.7940 C   0  0  1  0  0  0  0  0  0  0  0  0
    4.2213   -2.0782    1.3948 O   0  0  0  0  0  0  0  0  0  0  0  0
    2.9109   -0.5835    0.0981 C   0  0  0  0  0  0  0  0  0  0  0  0
    1.8611   -0.3735   -0.4603 C   0  0  0  0  0  0  0  0  0  0  0  0
    0.5949   -0.1032   -1.1143 C   0  0  0  0  0  0  0  0  0  0  0  0
    0.5138    0.1480   -2.4685 C   0  0  0  0  0  0  0  0  0  0  0  0
   -0.7139    0.4003   -3.0475 C   0  0  0  0  0  0  0  0  0  0  0  0
   -1.8705    0.4049   -2.2850 C   0  0  0  0  0  0  0  0  0  0  0  0
   -3.0178    0.6772   -3.0314 O   0  0  0  0  0  0  0  0  0  0  0  0
   -4.2929    1.0493   -2.5471 C   0  0  0  0  0  0  0  0  0  0  0  0
   -4.9009    0.0078   -1.6386 C   0  0  2  0  0  0  0  0  0  0  0  0
   -4.8597   -1.3480   -2.2585 C   0  0  0  0  0  0  0  0  0  0  0  0
   -6.2294    0.3767   -1.4186 O   0  0  0  0  0  0  0  0  0  0  0  0
   -4.2298    0.0487   -0.2963 C   0  0  0  0  0  0  0  0  0  0  0  0
   -5.0066    0.0243    1.2236 S   0  0  0  0  0  0  0  0  0  0  0  0
   -3.6196    0.0960    2.2177 C   0  0  0  0  0  0  0  0  0  0  0  0
   -2.6354    0.1348    1.3311 N   0  0  0  0  0  0  0  0  0  0  0  0
   -2.9093    0.1125    0.0667 C   0  0  0  0  0  0  0  0  0  0  0  0
   -1.8089    0.1561   -0.9310 C   0  0  0  0  0  0  0  0  0  0  0  0
   -0.5745   -0.0918   -0.3811 C   0  0  0  0  0  0  0  0  0  0  0  0
   -3.5216    0.1118    3.6974 C   0  0  0  0  0  0  0  0  0  0  0  0
   -4.7347    0.0612    4.4148 N   0  0  0  0  0  0  0  0  0  0  0  0
   -2.3900    0.1679    4.1938 O   0  0  0  0  0  0  0  0  0  0  0  0
    5.3467   -0.6853   -0.1019 C   0  0  0  0  0  0  0  0  0  0  0  0
    5.4625   -1.2287   -1.2246 O   0  0  0  0  0  0  0  0  0  0  0  0
    7.9018    1.5088    0.3434 H   0  0  0  0  0  0  0  0  0  0  0  0
    8.2748   -0.2294   -0.1050 H   0  0  0  0  0  0  0  0  0  0  0  0
    7.3487    0.7686   -1.2612 H   0  0  0  0  0  0  0  0  0  0  0  0
    6.2329    1.4573    2.1620 H   0  0  0  0  0  0  0  0  0  0  0  0
    6.3407   -0.2722    2.5552 H   0  0  0  0  0  0  0  0  0  0  0  0
    3.9806    0.0306    2.7842 H   0  0  0  0  0  0  0  0  0  0  0  0
    3.9080    1.1987    1.3900 H   0  0  0  0  0  0  0  0  0  0  0  0
    4.6326   -2.0506    2.2933 H   0  0  0  0  0  0  0  0  0  0  0  0
    1.4453    0.1356   -3.0333 H   0  0  0  0  0  0  0  0  0  0  0  0
   -0.7524    0.5933   -4.1039 H   0  0  0  0  0  0  0  0  0  0  0  0
   -4.2783    2.0325   -2.0547 H   0  0  0  0  0  0  0  0  0  0  0  0
   -4.9689    1.1282   -3.4402 H   0  0  0  0  0  0  0  0  0  0  0  0
   -4.5404   -1.3042   -3.3250 H   0  0  0  0  0  0  0  0  0  0  0  0
   -4.2251   -2.0521   -1.6958 H   0  0  0  0  0  0  0  0  0  0  0  0
   -5.8926   -1.8033   -2.2763 H   0  0  0  0  0  0  0  0  0  0  0  0
   -6.4802    0.3173   -0.4502 H   0  0  0  0  0  0  0  0  0  0  0  0
   -0.5242   -0.2897    0.6948 H   0  0  0  0  0  0  0  0  0  0  0  0
   -5.0735   -0.8323    4.8188 H   0  0  0  0  0  0  0  0  0  0  0  0
   -5.2906    0.9201    4.5394 H   0  0  0  0  0  0  0  0  0  0  0  0
  1  2  1  0
  2  3  1  0
  3  4  1  0
  4  5  1  0
  5  6  1  0
  5  7  1  6
  7  8  3  0
  8  9  1  0
  9 10  2  0
 10 11  1  0
 11 12  2  0
 12 13  1  0
 13 14  1  0
 14 15  1  0
 15 16  1  0
 15 17  1  1
 15 18  1  0
 18 19  1  0
 19 20  1  0
 20 21  2  0
 21 22  1  0
 22 23  1  0
 23 24  2  0
 20 25  1  0
 25 26  1  0
 25 27  2  0
  5 28  1  0
 28 29  2  0
 28  2  1  0
 24  9  1  0
 23 12  1  0
 22 18  2  0
  1 30  1  0
  1 31  1  0
  1 32  1  0
  3 33  1  0
  3 34  1  0
  4 35  1  0
  4 36  1  0
  6 37  1  0
 10 38  1  0
 11 39  1  0
 14 40  1  0
 14 41  1  0
 16 42  1  0
 16 43  1  0
 16 44  1  0
 17 45  1  0
 24 46  1  0
 26 47  1  0
 26 48  1  0
M  END
$$$$
[H]O[C@](C#Cc1c([H])c([H])c2c(c1[H])-c1nc(C(=O)N([H])[H])c([H])n1C([H])([H])C([H])([H])O2)(c1noc(C([H])([H])[H])c1[H])C([H])([H])[H]
     RDKit          3D

 46 49  0  0  0  0  0  0  0  0999 V2000
    6.2981    3.1887    1.0202 C   0  0  0  0  0  0  0  0  0  0  0  0
    5.1651    2.2925    0.6274 C   0  0  0  0  0  0  0  0  0  0  0  0
    5.3424    1.1516   -0.1342 C   0  0  0  0  0  0  0  0  0  0  0  0
    4.0792    0.5701   -0.3044 C   0  0  0  0  0  0  0  0  0  0  0  0
    3.2462    1.3714    0.3463 N   0  0  0  0  0  0  0  0  0  0  0  0
    3.9011    2.3791    0.8877 O   0  0  0  0  0  0  0  0  0  0  0  0
    3.9017   -0.6727   -1.0722 C   0  0  2  0  0  0  0  0  0  0  0  0
    4.8076   -1.7202   -0.4139 C   0  0  0  0  0  0  0  0  0  0  0  0
    4.2486   -0.4820   -2.3847 O   0  0  0  0  0  0  0  0  0  0  0  0
    2.4834   -1.0667   -0.9014 C   0  0  0  0  0  0  0  0  0  0  0  0
    1.3346   -1.3987   -0.7415 C   0  0  0  0  0  0  0  0  0  0  0  0
   -0.0213   -1.8059   -0.5258 C   0  0  0  0  0  0  0  0  0  0  0  0
   -0.4272   -3.1405   -0.5770 C   0  0  0  0  0  0  0  0  0  0  0  0
   -1.7230   -3.5500   -0.3578 C   0  0  0  0  0  0  0  0  0  0  0  0
   -2.6825   -2.5902   -0.0696 C   0  0  0  0  0  0  0  0  0  0  0  0
   -3.9603   -3.0865    0.1410 O   0  0  0  0  0  0  0  0  0  0  0  0
   -5.1625   -2.4358    0.5096 C   0  0  0  0  0  0  0  0  0  0  0  0
   -4.9872   -1.3300    1.5089 C   0  0  0  0  0  0  0  0  0  0  0  0
   -4.3498   -0.1443    0.9309 N   0  0  0  0  0  0  0  0  0  0  0  0
   -4.8145    1.1103    0.9610 C   0  0  0  0  0  0  0  0  0  0  0  0
   -3.9231    1.9544    0.3073 C   0  0  0  0  0  0  0  0  0  0  0  0
   -2.9120    1.1572   -0.1113 N   0  0  0  0  0  0  0  0  0  0  0  0
   -3.1627   -0.1125    0.2618 C   0  0  0  0  0  0  0  0  0  0  0  0
   -2.3141   -1.2606   -0.0121 C   0  0  0  0  0  0  0  0  0  0  0  0
   -1.0136   -0.8724   -0.2350 C   0  0  0  0  0  0  0  0  0  0  0  0
   -4.0705    3.3865    0.1215 C   0  0  0  0  0  0  0  0  0  0  0  0
   -3.1363    4.1524   -0.5897 N   0  0  0  0  0  0  0  0  0  0  0  0
   -5.0845    3.9614    0.6201 O   0  0  0  0  0  0  0  0  0  0  0  0
    6.6125    3.8022    0.1565 H   0  0  0  0  0  0  0  0  0  0  0  0
    7.1291    2.5202    1.3912 H   0  0  0  0  0  0  0  0  0  0  0  0
    6.0458    3.8612    1.8626 H   0  0  0  0  0  0  0  0  0  0  0  0
    6.2906    0.7972   -0.5157 H   0  0  0  0  0  0  0  0  0  0  0  0
    4.3497   -2.0146    0.5498 H   0  0  0  0  0  0  0  0  0  0  0  0
    4.8619   -2.5891   -1.1053 H   0  0  0  0  0  0  0  0  0  0  0  0
    5.8044   -1.2975   -0.1974 H   0  0  0  0  0  0  0  0  0  0  0  0
    3.4744   -0.1715   -2.9259 H   0  0  0  0  0  0  0  0  0  0  0  0
    0.3391   -3.8694   -0.8021 H   0  0  0  0  0  0  0  0  0  0  0  0
   -2.0431   -4.5710   -0.3948 H   0  0  0  0  0  0  0  0  0  0  0  0
   -5.7401   -2.0437   -0.3483 H   0  0  0  0  0  0  0  0  0  0  0  0
   -5.8067   -3.2089    0.9995 H   0  0  0  0  0  0  0  0  0  0  0  0
   -4.4059   -1.6775    2.4044 H   0  0  0  0  0  0  0  0  0  0  0  0
   -5.9872   -1.0405    1.8800 H   0  0  0  0  0  0  0  0  0  0  0  0
   -5.7352    1.4362    1.4135 H   0  0  0  0  0  0  0  0  0  0  0  0
   -0.7060    0.1665   -0.1967 H   0  0  0  0  0  0  0  0  0  0  0  0
   -3.1074    4.0864   -1.6507 H   0  0  0  0  0  0  0  0  0  0  0  0
   -2.4388    4.8071   -0.1648 H   0  0  0  0  0  0  0  0  0  0  0  0
  1  2  1  0
  2  3  2  0
  3  4  1  0
  4  5  2  0
  5  6  1  0
  4  7  1  0
  7  8  1  0
  7  9  1  0
  7 10  1  6
 10 11  3  0
 11 12  1  0
 12 13  2  0
 13 14  1  0
 14 15  2  0
 15 16  1  0
 16 17  1  0
 17 18  1  0
 18 19  1  0
 19 20  1  0
 20 21  2  0
 21 22  1  0
 22 23  2  0
 23 24  1  0
 24 25  2  0
 21 26  1  0
 26 27  1  0
 26 28  2  0
  6  2  1  0
 25 12  1  0
 24 15  1  0
 23 19  1  0
  1 29  1  0
  1 30  1  0
  1 31  1  0
  3 32  1  0
  8 33  1  0
  8 34  1  0
  8 35  1  0
  9 36  1  0
 13 37  1  0
 14 38  1  0
 17 39  1  0
 17 40  1  0
 18 41  1  0
 18 42  1  0
 20 43  1  0
 25 44  1  0
 27 45  1  0
 27 46  1  0
M  END
$$$$
[H]O[C@](C#Cc1c([H])c([H])c2c(c1[H])-c1nc(C(=O)N([H])[H])c(C(F)(F)F)n1C1([H])C([H])([H])C2([H])C1([H])[H])(c1noc(C([H])([H])[H])n1)C([H])([H])[H]
     RDKit          3D

 51 55  0  0  0  0  0  0  0  0999 V2000
    9.2714   -0.0854    0.3693 C   0  0  0  0  0  0  0  0  0  0  0  0
    7.7961   -0.2917    0.5014 C   0  0  0  0  0  0  0  0  0  0  0  0
    6.9428   -0.5410   -0.4891 N   0  0  0  0  0  0  0  0  0  0  0  0
    5.6515   -0.6610    0.0204 C   0  0  0  0  0  0  0  0  0  0  0  0
    5.8316   -0.4730    1.2939 N   0  0  0  0  0  0  0  0  0  0  0  0
    7.0890   -0.2591    1.5939 O   0  0  0  0  0  0  0  0  0  0  0  0
    4.5288   -0.9537   -0.8796 C   0  0  2  0  0  0  0  0  0  0  0  0
    4.4658   -2.4058   -1.3199 C   0  0  0  0  0  0  0  0  0  0  0  0
    4.8658   -0.2607   -2.1106 O   0  0  0  0  0  0  0  0  0  0  0  0
    3.2342   -0.4472   -0.4463 C   0  0  0  0  0  0  0  0  0  0  0  0
    2.1631    0.0263   -0.1414 C   0  0  0  0  0  0  0  0  0  0  0  0
    0.8680    0.6268    0.1394 C   0  0  0  0  0  0  0  0  0  0  0  0
    0.8905    1.9680    0.5477 C   0  0  0  0  0  0  0  0  0  0  0  0
   -0.2835    2.6527    0.7726 C   0  0  0  0  0  0  0  0  0  0  0  0
   -1.4477    1.9606    0.5708 C   0  0  0  0  0  0  0  0  0  0  0  0
   -2.6457    2.8636    0.7813 C   0  0  0  0  0  0  0  0  0  0  0  0
   -3.6120    2.1719    1.7135 C   0  0  0  0  0  0  0  0  0  0  0  0
   -4.4002    1.5876    0.5831 C   0  0  0  0  0  0  0  0  0  0  0  0
   -3.6358    2.5889   -0.3541 C   0  0  0  0  0  0  0  0  0  0  0  0
   -4.0331    0.2403    0.1829 N   0  0  0  0  0  0  0  0  0  0  0  0
   -2.7412   -0.1720   -0.0597 C   0  0  0  0  0  0  0  0  0  0  0  0
   -2.8060   -1.4108   -0.5368 N   0  0  0  0  0  0  0  0  0  0  0  0
   -4.1123   -1.8051   -0.6094 C   0  0  0  0  0  0  0  0  0  0  0  0
   -4.5693   -3.0931   -1.0608 C   0  0  0  0  0  0  0  0  0  0  0  0
   -5.5194   -3.2409   -2.0872 N   0  0  0  0  0  0  0  0  0  0  0  0
   -4.1093   -4.1341   -0.5349 O   0  0  0  0  0  0  0  0  0  0  0  0
   -4.8708   -0.7618   -0.1469 C   0  0  0  0  0  0  0  0  0  0  0  0
   -6.3519   -0.7213   -0.0099 C   0  0  0  0  0  0  0  0  0  0  0  0
   -6.8624    0.3161    0.7107 F   0  0  0  0  0  0  0  0  0  0  0  0
   -6.8537   -1.9123    0.4529 F   0  0  0  0  0  0  0  0  0  0  0  0
   -6.9288   -0.4868   -1.2979 F   0  0  0  0  0  0  0  0  0  0  0  0
   -1.5256    0.6427    0.1735 C   0  0  0  0  0  0  0  0  0  0  0  0
   -0.3319   -0.0070   -0.0362 C   0  0  0  0  0  0  0  0  0  0  0  0
    9.8817   -0.8846    0.7498 H   0  0  0  0  0  0  0  0  0  0  0  0
    9.5327    0.0158   -0.7302 H   0  0  0  0  0  0  0  0  0  0  0  0
    9.5848    0.9132    0.8144 H   0  0  0  0  0  0  0  0  0  0  0  0
    3.9323   -3.0638   -0.6378 H   0  0  0  0  0  0  0  0  0  0  0  0
    5.5313   -2.7289   -1.4855 H   0  0  0  0  0  0  0  0  0  0  0  0
    4.0261   -2.4465   -2.3564 H   0  0  0  0  0  0  0  0  0  0  0  0
    4.6731    0.6940   -1.8949 H   0  0  0  0  0  0  0  0  0  0  0  0
    1.8383    2.4493    0.6817 H   0  0  0  0  0  0  0  0  0  0  0  0
   -0.2905    3.7015    1.1034 H   0  0  0  0  0  0  0  0  0  0  0  0
   -2.3995    3.8989    0.9368 H   0  0  0  0  0  0  0  0  0  0  0  0
   -4.1681    2.9710    2.2866 H   0  0  0  0  0  0  0  0  0  0  0  0
   -3.2118    1.4249    2.4010 H   0  0  0  0  0  0  0  0  0  0  0  0
   -5.4624    1.8432    0.5599 H   0  0  0  0  0  0  0  0  0  0  0  0
   -3.2273    1.9879   -1.1911 H   0  0  0  0  0  0  0  0  0  0  0  0
   -4.2557    3.4014   -0.6796 H   0  0  0  0  0  0  0  0  0  0  0  0
   -5.0985   -3.5744   -3.0232 H   0  0  0  0  0  0  0  0  0  0  0  0
   -6.5240   -3.0870   -2.1209 H   0  0  0  0  0  0  0  0  0  0  0  0
   -0.3203   -1.0375   -0.3394 H   0  0  0  0  0  0  0  0  0  0  0  0
  1  2  1  0
  2  3  2  0
  3  4  1  0
  4  5  2  0
  5  6  1  0
  4  7  1  0
  7  8  1  0
  7  9  1  0
  7 10  1  1
 10 11  3  0
 11 12  1  0
 12 13  2  0
 13 14  1  0
 14 15  2  0
 15 16  1  0
 16 17  1  0
 17 18  1  0
 18 19  1  0
 18 20  1  0
 20 21  1  0
 21 22  2  0
 22 23  1  0
 23 24  1  0
 24 25  1  0
 24 26  2  0
 23 27  2  0
 27 28  1  0
 28 29  1  0
 28 30  1  0
 28 31  1  0
 21 32  1  0
 32 33  2  0
  6  2  1  0
 33 12  1  0
 32 15  1  0
 19 16  1  0
 27 20  1  0
  1 34  1  0
  1 35  1  0
  1 36  1  0
  8 37  1  0
  8 38  1  0
  8 39  1  0
  9 40  1  0
 13 41  1  0
 14 42  1  0
 16 43  1  0
 17 44  1  0
 17 45  1  0
 18 46  1  0
 19 47  1  0
 19 48  1  0
 25 49  1  0
 25 50  1  0
 33 51  1  0
M  END
$$$$
[H]O[C@](C#Cc1c([H])c([H])c2c(c1[H])-n1nc(C(=O)N([H])[H])c([H])c1[C@]([H])(C([H])([H])[H])C([H])([H])O2)(c1nc([H])c([H])c([H])n1)C([H])([H])[H]
     RDKit          3D

 48 51  0  0  0  0  0  0  0  0999 V2000
   -5.5545    1.1007   -0.2650 C   0  0  0  0  0  0  0  0  0  0  0  0
   -4.8364    0.2474    0.8032 C   0  0  2  0  0  0  0  0  0  0  0  0
   -4.5391    1.1217    1.9500 C   0  0  0  0  0  0  0  0  0  0  0  0
   -3.3274    0.9844    2.6258 O   0  0  0  0  0  0  0  0  0  0  0  0
   -2.0267    0.9936    2.1787 C   0  0  0  0  0  0  0  0  0  0  0  0
   -1.0978    1.6214    2.9511 C   0  0  0  0  0  0  0  0  0  0  0  0
    0.2233    1.6627    2.5509 C   0  0  0  0  0  0  0  0  0  0  0  0
    0.6618    1.0774    1.3661 C   0  0  0  0  0  0  0  0  0  0  0  0
   -0.2824    0.4382    0.5732 C   0  0  0  0  0  0  0  0  0  0  0  0
   -1.5875    0.4025    0.9866 C   0  0  0  0  0  0  0  0  0  0  0  0
   -2.3961   -0.3747    0.0940 N   0  0  0  0  0  0  0  0  0  0  0  0
   -1.8465   -1.2051   -0.7656 N   0  0  0  0  0  0  0  0  0  0  0  0
   -2.8632   -1.8845   -1.3917 C   0  0  0  0  0  0  0  0  0  0  0  0
   -4.0311   -1.3981   -0.8520 C   0  0  0  0  0  0  0  0  0  0  0  0
   -3.7266   -0.4217    0.1075 C   0  0  0  0  0  0  0  0  0  0  0  0
   -2.7331   -2.8903   -2.4253 C   0  0  0  0  0  0  0  0  0  0  0  0
   -3.5607   -4.0481   -2.3192 N   0  0  0  0  0  0  0  0  0  0  0  0
   -1.9308   -2.7570   -3.3457 O   0  0  0  0  0  0  0  0  0  0  0  0
    2.0512    1.1100    0.9910 C   0  0  0  0  0  0  0  0  0  0  0  0
    3.2452    1.1376    0.7003 C   0  0  0  0  0  0  0  0  0  0  0  0
    4.6774    1.2016    0.4037 C   0  0  1  0  0  0  0  0  0  0  0  0
    5.0417    2.5866   -0.1582 C   0  0  0  0  0  0  0  0  0  0  0  0
    5.4287    1.1304    1.6142 O   0  0  0  0  0  0  0  0  0  0  0  0
    5.0455    0.1370   -0.5010 C   0  0  0  0  0  0  0  0  0  0  0  0
    5.3693    0.4013   -1.7963 N   0  0  0  0  0  0  0  0  0  0  0  0
    5.7818   -0.5399   -2.6586 C   0  0  0  0  0  0  0  0  0  0  0  0
    5.8955   -1.8599   -2.2382 C   0  0  0  0  0  0  0  0  0  0  0  0
    5.5678   -2.1360   -0.9314 C   0  0  0  0  0  0  0  0  0  0  0  0
    5.1572   -1.1326   -0.1159 N   0  0  0  0  0  0  0  0  0  0  0  0
   -6.4845    0.5977   -0.5767 H   0  0  0  0  0  0  0  0  0  0  0  0
   -5.8068    2.1087    0.1677 H   0  0  0  0  0  0  0  0  0  0  0  0
   -4.9004    1.2433   -1.1228 H   0  0  0  0  0  0  0  0  0  0  0  0
   -5.6074   -0.5164    1.0976 H   0  0  0  0  0  0  0  0  0  0  0  0
   -4.6712    2.2340    1.7080 H   0  0  0  0  0  0  0  0  0  0  0  0
   -5.3265    0.8841    2.7492 H   0  0  0  0  0  0  0  0  0  0  0  0
   -1.4167    2.0831    3.8770 H   0  0  0  0  0  0  0  0  0  0  0  0
    0.9842    2.1430    3.1294 H   0  0  0  0  0  0  0  0  0  0  0  0
    0.0155   -0.0348   -0.3869 H   0  0  0  0  0  0  0  0  0  0  0  0
   -5.0375   -1.6927   -1.1199 H   0  0  0  0  0  0  0  0  0  0  0  0
   -3.1533   -5.0242   -2.1999 H   0  0  0  0  0  0  0  0  0  0  0  0
   -4.5978   -3.9256   -2.3612 H   0  0  0  0  0  0  0  0  0  0  0  0
    6.1581    2.6585   -0.0193 H   0  0  0  0  0  0  0  0  0  0  0  0
    4.5257    3.3398    0.4749 H   0  0  0  0  0  0  0  0  0  0  0  0
    4.7080    2.6698   -1.1745 H   0  0  0  0  0  0  0  0  0  0  0  0
    4.8653    0.6147    2.2568 H   0  0  0  0  0  0  0  0  0  0  0  0
    6.0488   -0.3206   -3.7089 H   0  0  0  0  0  0  0  0  0  0  0  0
    6.2375   -2.6166   -2.9217 H   0  0  0  0  0  0  0  0  0  0  0  0
    5.6527   -3.1525   -0.5885 H   0  0  0  0  0  0  0  0  0  0  0  0
  1  2  1  0
  2  3  1  0
  3  4  1  0
  4  5  1  0
  5  6  2  0
  6  7  1  0
  7  8  2  0
  8  9  1  0
  9 10  2  0
 10 11  1  0
 11 12  1  0
 12 13  2  0
 13 14  1  0
 14 15  2  0
 13 16  1  0
 16 17  1  0
 16 18  2  0
  8 19  1  0
 19 20  3  0
 21 20  1  1
 21 22  1  0
 21 23  1  0
 21 24  1  0
 24 25  2  0
 25 26  1  0
 26 27  2  0
 27 28  1  0
 28 29  2  0
 15  2  1  0
 29 24  1  0
 10  5  1  0
 15 11  1  0
  1 30  1  0
  1 31  1  0
  1 32  1  0
  2 33  1  1
  3 34  1  0
  3 35  1  0
  6 36  1  0
  7 37  1  0
  9 38  1  0
 14 39  1  0
 17 40  1  0
 17 41  1  0
 22 42  1  0
 22 43  1  0
 22 44  1  0
 23 45  1  0
 26 46  1  0
 27 47  1  0
 28 48  1  0
M  END
$$$$
[H]OC(c1c(C(=O)N([H])[H])nc2n1C1([H])C([H])([H])C([H])(c3c([H])c(F)c([H])c([H])c3-2)C1([H])[H])(C([H])([H])[H])C([H])([H])[H]
     RDKit          3D

 41 44  0  0  0  0  0  0  0  0999 V2000
   -2.8629    1.8547   -0.6603 C   0  0  0  0  0  0  0  0  0  0  0  0
   -2.7540    0.4033   -0.3675 C   0  0  0  0  0  0  0  0  0  0  0  0
   -3.5660    0.2523    0.9477 C   0  0  0  0  0  0  0  0  0  0  0  0
   -3.4626   -0.3303   -1.3546 O   0  0  0  0  0  0  0  0  0  0  0  0
   -1.4651   -0.2241   -0.1693 C   0  0  0  0  0  0  0  0  0  0  0  0
   -1.3620   -1.5590    0.2496 C   0  0  0  0  0  0  0  0  0  0  0  0
   -0.0259   -1.7690    0.3909 N   0  0  0  0  0  0  0  0  0  0  0  0
    0.6279   -0.6616    0.0825 C   0  0  0  0  0  0  0  0  0  0  0  0
    2.1096   -0.5498    0.1630 C   0  0  0  0  0  0  0  0  0  0  0  0
    2.6955   -1.7379    0.5575 C   0  0  0  0  0  0  0  0  0  0  0  0
    4.0539   -1.7928    0.6908 C   0  0  0  0  0  0  0  0  0  0  0  0
    4.8402   -0.6719    0.4344 C   0  0  0  0  0  0  0  0  0  0  0  0
    6.1597   -0.7743    0.5783 F   0  0  0  0  0  0  0  0  0  0  0  0
    4.2646    0.5164    0.0405 C   0  0  0  0  0  0  0  0  0  0  0  0
    2.9032    0.5482   -0.0867 C   0  0  0  0  0  0  0  0  0  0  0  0
    2.3499    1.8800   -0.5355 C   0  0  0  0  0  0  0  0  0  0  0  0
    1.3797    1.5281   -1.6683 C   0  0  0  0  0  0  0  0  0  0  0  0
    0.1687    1.6379   -0.6999 C   0  0  0  0  0  0  0  0  0  0  0  0
    1.1615    2.2681    0.2752 C   0  0  0  0  0  0  0  0  0  0  0  0
   -0.2485    0.3157   -0.2733 N   0  0  0  0  0  0  0  0  0  0  0  0
   -2.3526   -2.6049    0.4533 C   0  0  0  0  0  0  0  0  0  0  0  0
   -1.8853   -3.8119    1.0999 N   0  0  0  0  0  0  0  0  0  0  0  0
   -3.5512   -2.6325    0.1598 O   0  0  0  0  0  0  0  0  0  0  0  0
   -3.9708    2.1849   -0.5694 H   0  0  0  0  0  0  0  0  0  0  0  0
   -2.3799    2.5194    0.0486 H   0  0  0  0  0  0  0  0  0  0  0  0
   -2.6895    2.0329   -1.7376 H   0  0  0  0  0  0  0  0  0  0  0  0
   -3.0437   -0.3255    1.7014 H   0  0  0  0  0  0  0  0  0  0  0  0
   -3.6993    1.2708    1.4355 H   0  0  0  0  0  0  0  0  0  0  0  0
   -4.5955   -0.0440    0.6992 H   0  0  0  0  0  0  0  0  0  0  0  0
   -4.4237   -0.1085   -1.3261 H   0  0  0  0  0  0  0  0  0  0  0  0
    2.0404   -2.5851    0.7461 H   0  0  0  0  0  0  0  0  0  0  0  0
    4.4988   -2.7300    1.0006 H   0  0  0  0  0  0  0  0  0  0  0  0
    4.8909    1.3609   -0.1499 H   0  0  0  0  0  0  0  0  0  0  0  0
    3.0928    2.6343   -0.7728 H   0  0  0  0  0  0  0  0  0  0  0  0
    1.4348    2.3265   -2.4112 H   0  0  0  0  0  0  0  0  0  0  0  0
    1.4965    0.4999   -2.0665 H   0  0  0  0  0  0  0  0  0  0  0  0
   -0.5007    2.3070   -1.1854 H   0  0  0  0  0  0  0  0  0  0  0  0
    1.1112    1.7155    1.2445 H   0  0  0  0  0  0  0  0  0  0  0  0
    0.9756    3.3413    0.4178 H   0  0  0  0  0  0  0  0  0  0  0  0
   -2.1737   -4.0723    2.0519 H   0  0  0  0  0  0  0  0  0  0  0  0
   -1.2425   -4.4129    0.5655 H   0  0  0  0  0  0  0  0  0  0  0  0
  1  2  1  0
  2  3  1  0
  2  4  1  0
  2  5  1  0
  5  6  2  0
  6  7  1  0
  7  8  2  0
  8  9  1  0
  9 10  2  0
 10 11  1  0
 11 12  2  0
 12 13  1  0
 12 14  1  0
 14 15  2  0
 15 16  1  0
 16 17  1  0
 17 18  1  0
 18 19  1  0
 18 20  1  0
  6 21  1  0
 21 22  1  0
 21 23  2  0
 20  5  1  0
 20  8  1  0
 15  9  1  0
 19 16  1  0
  1 24  1  0
  1 25  1  0
  1 26  1  0
  3 27  1  0
  3 28  1  0
  3 29  1  0
  4 30  1  0
 10 31  1  0
 11 32  1  0
 14 33  1  0
 16 34  1  0
 17 35  1  0
 17 36  1  0
 18 37  1  0
 19 38  1  0
 19 39  1  0
 22 40  1  0
 22 41  1  0
M  END
$$$$
