[H]c1nc(N([H])C2([H])C([H])([H])C([H])([H])N(C([H])([H])C([H])(C([H])([H])[H])C([H])([H])[H])C([H])([H])C2([H])[H])c2c([H])nn(-c3c([H])c([H])c([H])c(Cl)c3[H])c2n1
     RDKit          3D

 52 55  0  0  0  0  0  0  0  0999 V2000
   -7.3483   -0.7821   -0.5223 C   0  0  0  0  0  0  0  0  0  0  0  0
   -6.1308    0.1225   -0.2463 C   0  0  0  0  0  0  0  0  0  0  0  0
   -5.9831    0.9953   -1.4351 C   0  0  0  0  0  0  0  0  0  0  0  0
   -5.0184   -0.7916    0.0874 C   0  0  0  0  0  0  0  0  0  0  0  0
   -3.7469   -0.1895    0.3972 N   0  0  0  0  0  0  0  0  0  0  0  0
   -2.8943   -1.3385    0.7956 C   0  0  0  0  0  0  0  0  0  0  0  0
   -1.5971   -0.8275    1.3940 C   0  0  0  0  0  0  0  0  0  0  0  0
   -1.2311    0.4620    0.7294 C   0  0  0  0  0  0  0  0  0  0  0  0
   -1.6087    0.2835   -0.7448 C   0  0  0  0  0  0  0  0  0  0  0  0
   -3.1449    0.3300   -0.8377 C   0  0  0  0  0  0  0  0  0  0  0  0
    0.1208    0.8668    0.8116 N   0  0  0  0  0  0  0  0  0  0  0  0
    1.2720    0.2161    0.3366 C   0  0  0  0  0  0  0  0  0  0  0  0
    1.1686   -0.9562   -0.2975 N   0  0  0  0  0  0  0  0  0  0  0  0
    2.2682   -1.6004   -0.7651 C   0  0  0  0  0  0  0  0  0  0  0  0
    3.5129   -1.1004   -0.6184 N   0  0  0  0  0  0  0  0  0  0  0  0
    3.6651    0.0757    0.0127 C   0  0  0  0  0  0  0  0  0  0  0  0
    4.7543    0.8060    0.3018 N   0  0  0  0  0  0  0  0  0  0  0  0
    4.3604    1.8974    0.9425 N   0  0  0  0  0  0  0  0  0  0  0  0
    3.0144    1.8904    1.0775 C   0  0  0  0  0  0  0  0  0  0  0  0
    2.5472    0.7285    0.4870 C   0  0  0  0  0  0  0  0  0  0  0  0
    6.1226    0.5246    0.0057 C   0  0  0  0  0  0  0  0  0  0  0  0
    7.1086    0.9623    0.8712 C   0  0  0  0  0  0  0  0  0  0  0  0
    8.4433    0.7013    0.6045 C   0  0  0  0  0  0  0  0  0  0  0  0
    8.7879    0.0036   -0.5264 C   0  0  0  0  0  0  0  0  0  0  0  0
    7.8315   -0.4500   -1.4146 C   0  0  0  0  0  0  0  0  0  0  0  0
    8.2643   -1.3460   -2.8681 Cl  0  0  0  0  0  0  0  0  0  0  0  0
    6.5128   -0.1748   -1.1220 C   0  0  0  0  0  0  0  0  0  0  0  0
   -7.2898   -1.6596    0.1355 H   0  0  0  0  0  0  0  0  0  0  0  0
   -7.2754   -1.1426   -1.5659 H   0  0  0  0  0  0  0  0  0  0  0  0
   -8.2875   -0.2118   -0.3620 H   0  0  0  0  0  0  0  0  0  0  0  0
   -6.4153    0.7383    0.6347 H   0  0  0  0  0  0  0  0  0  0  0  0
   -5.6444    2.0260   -1.1406 H   0  0  0  0  0  0  0  0  0  0  0  0
   -5.4593    0.5726   -2.2900 H   0  0  0  0  0  0  0  0  0  0  0  0
   -7.0337    1.1966   -1.8248 H   0  0  0  0  0  0  0  0  0  0  0  0
   -4.9180   -1.6166   -0.6544 H   0  0  0  0  0  0  0  0  0  0  0  0
   -5.3267   -1.3306    1.0347 H   0  0  0  0  0  0  0  0  0  0  0  0
   -3.4832   -1.8747    1.5645 H   0  0  0  0  0  0  0  0  0  0  0  0
   -2.7687   -1.9922   -0.0676 H   0  0  0  0  0  0  0  0  0  0  0  0
   -0.8268   -1.5843    1.1633 H   0  0  0  0  0  0  0  0  0  0  0  0
   -1.6511   -0.7620    2.5005 H   0  0  0  0  0  0  0  0  0  0  0  0
   -1.9395    1.2348    1.1627 H   0  0  0  0  0  0  0  0  0  0  0  0
   -1.2524   -0.7166   -1.0627 H   0  0  0  0  0  0  0  0  0  0  0  0
   -1.1792    1.1033   -1.3497 H   0  0  0  0  0  0  0  0  0  0  0  0
   -3.3829   -0.3616   -1.6681 H   0  0  0  0  0  0  0  0  0  0  0  0
   -3.3740    1.3855   -1.0205 H   0  0  0  0  0  0  0  0  0  0  0  0
    0.3139    1.8015    1.3037 H   0  0  0  0  0  0  0  0  0  0  0  0
    2.1991   -2.5586   -1.2851 H   0  0  0  0  0  0  0  0  0  0  0  0
    2.3596    2.6078    1.5394 H   0  0  0  0  0  0  0  0  0  0  0  0
    6.8196    1.5094    1.7549 H   0  0  0  0  0  0  0  0  0  0  0  0
    9.1846    1.0655    1.3141 H   0  0  0  0  0  0  0  0  0  0  0  0
    9.8283   -0.2108   -0.7525 H   0  0  0  0  0  0  0  0  0  0  0  0
    5.7513   -0.5281   -1.8159 H   0  0  0  0  0  0  0  0  0  0  0  0
  1  2  1  0
  2  3  1  0
  2  4  1  0
  4  5  1  0
  5  6  1  0
  6  7  1  0
  7  8  1  0
  8  9  1  0
  9 10  1  0
  8 11  1  0
 11 12  1  0
 12 13  2  0
 13 14  1  0
 14 15  2  0
 15 16  1  0
 16 17  1  0
 17 18  1  0
 18 19  2  0
 19 20  1  0
 17 21  1  0
 21 22  2  0
 22 23  1  0
 23 24  2  0
 24 25  1  0
 25 26  1  0
 25 27  2  0
 10  5  1  0
 20 12  1  0
 27 21  1  0
 20 16  2  0
  1 28  1  0
  1 29  1  0
  1 30  1  0
  2 31  1  0
  3 32  1  0
  3 33  1  0
  3 34  1  0
  4 35  1  0
  4 36  1  0
  6 37  1  0
  6 38  1  0
  7 39  1  0
  7 40  1  0
  8 41  1  0
  9 42  1  0
  9 43  1  0
 10 44  1  0
 10 45  1  0
 11 46  1  0
 14 47  1  0
 19 48  1  0
 22 49  1  0
 23 50  1  0
 24 51  1  0
 27 52  1  0
M  END
$$$$
[H]OC1([H])N([H])C([H])([H])C([H])([H])N(c2nc3c([H])c([H])c(OC([H])([H])c4nc5c([H])c([H])c([H])c([H])c5n4[H])c([H])c3c([H])c2[H])C1([H])[H]
     RDKit          3D

 49 53  0  0  0  0  0  0  0  0999 V2000
   -8.1205    1.8162   -0.0931 O   0  0  0  0  0  0  0  0  0  0  0  0
   -7.2656    0.7777    0.2422 C   0  0  0  0  0  0  0  0  0  0  0  0
   -5.9348    1.0749   -0.4494 C   0  0  0  0  0  0  0  0  0  0  0  0
   -5.0005    0.0637    0.0020 N   0  0  0  0  0  0  0  0  0  0  0  0
   -5.5350   -1.1570    0.5597 C   0  0  0  0  0  0  0  0  0  0  0  0
   -6.7786   -1.5223   -0.2415 C   0  0  0  0  0  0  0  0  0  0  0  0
   -7.7787   -0.4969   -0.1743 N   0  0  0  0  0  0  0  0  0  0  0  0
   -3.5926    0.2582   -0.0972 C   0  0  0  0  0  0  0  0  0  0  0  0
   -3.1022    1.4306   -0.6339 C   0  0  0  0  0  0  0  0  0  0  0  0
   -1.7384    1.6288   -0.7343 C   0  0  0  0  0  0  0  0  0  0  0  0
   -0.9066    0.6289   -0.2860 C   0  0  0  0  0  0  0  0  0  0  0  0
    0.4714    0.7967   -0.3726 C   0  0  0  0  0  0  0  0  0  0  0  0
    1.3310   -0.1816    0.0657 C   0  0  0  0  0  0  0  0  0  0  0  0
    2.6901    0.0370   -0.0439 O   0  0  0  0  0  0  0  0  0  0  0  0
    3.5751   -0.9865    0.4148 C   0  0  0  0  0  0  0  0  0  0  0  0
    4.9958   -0.5657    0.2128 C   0  0  0  0  0  0  0  0  0  0  0  0
    5.7897    0.1059    1.0666 N   0  0  0  0  0  0  0  0  0  0  0  0
    7.0053    0.3107    0.5499 C   0  0  0  0  0  0  0  0  0  0  0  0
    8.1709    0.9299    0.9907 C   0  0  0  0  0  0  0  0  0  0  0  0
    9.3050    0.9828    0.2028 C   0  0  0  0  0  0  0  0  0  0  0  0
    9.2859    0.4095   -1.0516 C   0  0  0  0  0  0  0  0  0  0  0  0
    8.1438   -0.1995   -1.4886 C   0  0  0  0  0  0  0  0  0  0  0  0
    6.9897   -0.2617   -0.7053 C   0  0  0  0  0  0  0  0  0  0  0  0
    5.7623   -0.7837   -0.8817 N   0  0  0  0  0  0  0  0  0  0  0  0
    0.8190   -1.3366    0.5948 C   0  0  0  0  0  0  0  0  0  0  0  0
   -0.5372   -1.5446    0.6996 C   0  0  0  0  0  0  0  0  0  0  0  0
   -1.4038   -0.5467    0.2523 C   0  0  0  0  0  0  0  0  0  0  0  0
   -2.7340   -0.6847    0.3251 N   0  0  0  0  0  0  0  0  0  0  0  0
   -7.6518    2.6825    0.0505 H   0  0  0  0  0  0  0  0  0  0  0  0
   -7.0349    0.8028    1.3463 H   0  0  0  0  0  0  0  0  0  0  0  0
   -5.6521    2.0982   -0.1109 H   0  0  0  0  0  0  0  0  0  0  0  0
   -6.0248    0.9836   -1.5400 H   0  0  0  0  0  0  0  0  0  0  0  0
   -4.8281   -2.0063    0.4419 H   0  0  0  0  0  0  0  0  0  0  0  0
   -5.8441   -1.0573    1.6170 H   0  0  0  0  0  0  0  0  0  0  0  0
   -7.2114   -2.4397    0.2322 H   0  0  0  0  0  0  0  0  0  0  0  0
   -6.5130   -1.8096   -1.2822 H   0  0  0  0  0  0  0  0  0  0  0  0
   -8.1905   -0.3756   -1.1249 H   0  0  0  0  0  0  0  0  0  0  0  0
   -3.8042    2.1816   -0.9702 H   0  0  0  0  0  0  0  0  0  0  0  0
   -1.3945    2.5508   -1.1562 H   0  0  0  0  0  0  0  0  0  0  0  0
    0.8212    1.7250   -0.7974 H   0  0  0  0  0  0  0  0  0  0  0  0
    3.3385   -1.8948   -0.1782 H   0  0  0  0  0  0  0  0  0  0  0  0
    3.3769   -1.2240    1.4686 H   0  0  0  0  0  0  0  0  0  0  0  0
    8.1768    1.3709    1.9628 H   0  0  0  0  0  0  0  0  0  0  0  0
   10.2242    1.4726    0.5537 H   0  0  0  0  0  0  0  0  0  0  0  0
   10.2005    0.4675   -1.6531 H   0  0  0  0  0  0  0  0  0  0  0  0
    8.1338   -0.6433   -2.4636 H   0  0  0  0  0  0  0  0  0  0  0  0
    5.4461   -1.2817   -1.7321 H   0  0  0  0  0  0  0  0  0  0  0  0
    1.4736   -2.1419    0.9560 H   0  0  0  0  0  0  0  0  0  0  0  0
   -0.9487   -2.4452    1.1122 H   0  0  0  0  0  0  0  0  0  0  0  0
  1  2  1  0
  2  3  1  0
  3  4  1  0
  4  5  1  0
  5  6  1  0
  6  7  1  0
  4  8  1  0
  8  9  2  0
  9 10  1  0
 10 11  2  0
 11 12  1  0
 12 13  2  0
 13 14  1  0
 14 15  1  0
 15 16  1  0
 16 17  2  0
 17 18  1  0
 18 19  2  0
 19 20  1  0
 20 21  2  0
 21 22  1  0
 22 23  2  0
 23 24  1  0
 13 25  1  0
 25 26  2  0
 26 27  1  0
 27 28  2  0
  7  2  1  0
 28  8  1  0
 27 11  1  0
 24 16  1  0
 23 18  1  0
  1 29  1  0
  2 30  1  0
  3 31  1  0
  3 32  1  0
  5 33  1  0
  5 34  1  0
  6 35  1  0
  6 36  1  0
  7 37  1  0
  9 38  1  0
 10 39  1  0
 12 40  1  0
 15 41  1  0
 15 42  1  0
 19 43  1  0
 20 44  1  0
 21 45  1  0
 22 46  1  0
 24 47  1  0
 25 48  1  0
 26 49  1  0
M  END
$$$$
[H]c1nc(C(N([H])C(=O)c2nc3c([H])c([H])c(N4C([H])([H])C([H])(C(=O)N([H])c5c(C([H])([H])[H])nc([H])c([H])c5[H])C4([H])[H])c([H])c3o2)(C([H])([H])[H])C([H])([H])[H])c([H])c([H])c1[H]
     RDKit          3D

 61 65  0  0  0  0  0  0  0  0999 V2000
   -6.5180    2.1038   -0.6774 C   0  0  0  0  0  0  0  0  0  0  0  0
   -7.7007    1.2737   -0.2125 C   0  0  0  0  0  0  0  0  0  0  0  0
   -8.7924    1.8421    0.3158 N   0  0  0  0  0  0  0  0  0  0  0  0
   -9.8597    1.1578    0.6571 C   0  0  0  0  0  0  0  0  0  0  0  0
   -9.8277   -0.2410    0.4469 C   0  0  0  0  0  0  0  0  0  0  0  0
   -8.7432   -0.8319   -0.0768 C   0  0  0  0  0  0  0  0  0  0  0  0
   -7.5981   -0.1181   -0.4501 C   0  0  0  0  0  0  0  0  0  0  0  0
   -6.4230   -0.6258   -0.8016 N   0  0  0  0  0  0  0  0  0  0  0  0
   -5.2017   -1.1660   -1.1805 C   0  0  0  0  0  0  0  0  0  0  0  0
   -5.0225   -1.9102   -2.0890 O   0  0  0  0  0  0  0  0  0  0  0  0
   -3.9615   -0.8328   -0.3900 C   0  0  0  0  0  0  0  0  0  0  0  0
   -3.1597   -1.9382    0.2559 C   0  0  0  0  0  0  0  0  0  0  0  0
   -2.6978   -0.7903    1.0791 N   0  0  0  0  0  0  0  0  0  0  0  0
   -4.0837   -0.4506    1.0382 C   0  0  0  0  0  0  0  0  0  0  0  0
   -1.4620   -0.4077    1.5641 C   0  0  0  0  0  0  0  0  0  0  0  0
   -1.1864    0.1384    2.8281 C   0  0  0  0  0  0  0  0  0  0  0  0
    0.1002    0.4815    3.2193 C   0  0  0  0  0  0  0  0  0  0  0  0
    1.1904    0.2989    2.3934 C   0  0  0  0  0  0  0  0  0  0  0  0
    2.5059    0.5162    2.4934 N   0  0  0  0  0  0  0  0  0  0  0  0
    3.0726    0.1316    1.3552 C   0  0  0  0  0  0  0  0  0  0  0  0
    2.1144   -0.3021    0.5856 O   0  0  0  0  0  0  0  0  0  0  0  0
    0.9501   -0.2346    1.1442 C   0  0  0  0  0  0  0  0  0  0  0  0
   -0.3231   -0.5609    0.7977 C   0  0  0  0  0  0  0  0  0  0  0  0
    4.4751    0.1366    0.9760 C   0  0  0  0  0  0  0  0  0  0  0  0
    5.4368    0.0790    1.7477 O   0  0  0  0  0  0  0  0  0  0  0  0
    4.7502    0.2041   -0.4449 N   0  0  0  0  0  0  0  0  0  0  0  0
    5.9997    0.1430   -1.1116 C   0  0  0  0  0  0  0  0  0  0  0  0
    5.9238    0.9080   -2.4253 C   0  0  0  0  0  0  0  0  0  0  0  0
    5.9790   -1.3664   -1.6940 C   0  0  0  0  0  0  0  0  0  0  0  0
    7.1951    0.1992   -0.3255 C   0  0  0  0  0  0  0  0  0  0  0  0
    7.8397    1.3979   -0.0329 C   0  0  0  0  0  0  0  0  0  0  0  0
    8.9908    1.3794    0.7059 C   0  0  0  0  0  0  0  0  0  0  0  0
    9.5195    0.2105    1.1529 C   0  0  0  0  0  0  0  0  0  0  0  0
    8.8753   -0.9986    0.8499 C   0  0  0  0  0  0  0  0  0  0  0  0
    7.7651   -0.9729    0.1470 N   0  0  0  0  0  0  0  0  0  0  0  0
   -6.8918    3.1855   -0.6359 H   0  0  0  0  0  0  0  0  0  0  0  0
   -5.6603    2.0567   -0.0083 H   0  0  0  0  0  0  0  0  0  0  0  0
   -6.2429    1.9667   -1.7662 H   0  0  0  0  0  0  0  0  0  0  0  0
  -10.7128    1.6233    1.0818 H   0  0  0  0  0  0  0  0  0  0  0  0
  -10.7208   -0.7574    0.7398 H   0  0  0  0  0  0  0  0  0  0  0  0
   -8.7412   -1.9424   -0.2444 H   0  0  0  0  0  0  0  0  0  0  0  0
   -7.0192   -1.4714   -1.6921 H   0  0  0  0  0  0  0  0  0  0  0  0
   -3.2695   -0.0798   -0.8921 H   0  0  0  0  0  0  0  0  0  0  0  0
   -2.3359   -2.2914   -0.3931 H   0  0  0  0  0  0  0  0  0  0  0  0
   -3.6657   -2.6703    0.8776 H   0  0  0  0  0  0  0  0  0  0  0  0
   -4.3331    0.5909    1.2494 H   0  0  0  0  0  0  0  0  0  0  0  0
   -4.6389   -1.1746    1.6811 H   0  0  0  0  0  0  0  0  0  0  0  0
   -1.9553    0.3304    3.5467 H   0  0  0  0  0  0  0  0  0  0  0  0
    0.2324    0.9259    4.1760 H   0  0  0  0  0  0  0  0  0  0  0  0
   -0.4569   -1.0548   -0.2173 H   0  0  0  0  0  0  0  0  0  0  0  0
    3.8791    0.3185   -1.1037 H   0  0  0  0  0  0  0  0  0  0  0  0
    6.1818    1.9674   -2.2017 H   0  0  0  0  0  0  0  0  0  0  0  0
    6.5888    0.5228   -3.1907 H   0  0  0  0  0  0  0  0  0  0  0  0
    4.8766    0.9240   -2.7352 H   0  0  0  0  0  0  0  0  0  0  0  0
    5.9354   -2.0152   -0.8237 H   0  0  0  0  0  0  0  0  0  0  0  0
    6.9562   -1.3735   -2.2350 H   0  0  0  0  0  0  0  0  0  0  0  0
    5.1639   -1.3827   -2.3928 H   0  0  0  0  0  0  0  0  0  0  0  0
    7.4584    2.3419   -0.3714 H   0  0  0  0  0  0  0  0  0  0  0  0
    9.4911    2.3199    0.9300 H   0  0  0  0  0  0  0  0  0  0  0  0
   10.4373    0.1965    1.7264 H   0  0  0  0  0  0  0  0  0  0  0  0
    9.3208   -1.9107    1.2240 H   0  0  0  0  0  0  0  0  0  0  0  0
  1  2  1  0
  2  3  2  0
  3  4  1  0
  4  5  2  0
  5  6  1  0
  6  7  2  0
  7  8  1  0
  8  9  1  0
  9 10  2  0
  9 11  1  0
 11 12  1  0
 12 13  1  0
 13 14  1  0
 13 15  1  0
 15 16  2  0
 16 17  1  0
 17 18  2  0
 18 19  1  0
 19 20  2  0
 20 21  1  0
 21 22  1  0
 22 23  2  0
 20 24  1  0
 24 25  2  0
 24 26  1  0
 26 27  1  0
 27 28  1  0
 27 29  1  0
 27 30  1  0
 30 31  2  0
 31 32  1  0
 32 33  2  0
 33 34  1  0
 34 35  2  0
  7  2  1  0
 14 11  1  0
 23 15  1  0
 35 30  1  0
 22 18  1  0
  1 36  1  0
  1 37  1  0
  1 38  1  0
  4 39  1  0
  5 40  1  0
  6 41  1  0
  8 42  1  0
 11 43  1  0
 12 44  1  0
 12 45  1  0
 14 46  1  0
 14 47  1  0
 16 48  1  0
 17 49  1  0
 23 50  1  0
 26 51  1  0
 28 52  1  0
 28 53  1  0
 28 54  1  0
 29 55  1  0
 29 56  1  0
 29 57  1  0
 31 58  1  0
 32 59  1  0
 33 60  1  0
 34 61  1  0
M  END
$$$$
[H]c1c(F)c(N2C([H])([H])C([H])([H])C([H])([H])[C@@]([H])(C(=O)OC([H])([H])[H])C2([H])[H])c([H])c(F)c1-c1nn(C2([H])C([H])([H])N(C(=O)C3([H])C([H])([H])C3([H])[H])C([H])([H])C2([H])[H])c2c([H])c([H])c([H])c([H])c12
     RDKit          3D

 67 72  0  0  0  0  0  0  0  0999 V2000
    8.8085    0.5367    3.7154 C   0  0  0  0  0  0  0  0  0  0  0  0
    8.3242    0.0546    2.4804 O   0  0  0  0  0  0  0  0  0  0  0  0
    6.9880   -0.2606    2.2967 C   0  0  0  0  0  0  0  0  0  0  0  0
    6.2065   -0.1090    3.2569 O   0  0  0  0  0  0  0  0  0  0  0  0
    6.5661   -0.7646    0.9499 C   0  0  2  0  0  0  0  0  0  0  0  0
    6.8833    0.2925   -0.0949 C   0  0  0  0  0  0  0  0  0  0  0  0
    6.7827   -0.3270   -1.4712 C   0  0  0  0  0  0  0  0  0  0  0  0
    5.5609   -1.2415   -1.5270 C   0  0  0  0  0  0  0  0  0  0  0  0
    4.6405   -0.9489   -0.4564 N   0  0  0  0  0  0  0  0  0  0  0  0
    5.0858   -1.0090    0.9224 C   0  0  0  0  0  0  0  0  0  0  0  0
    3.2750   -0.5914   -0.6532 C   0  0  0  0  0  0  0  0  0  0  0  0
    2.3227   -1.4101   -0.0524 C   0  0  0  0  0  0  0  0  0  0  0  0
    0.9781   -1.0658   -0.2314 C   0  0  0  0  0  0  0  0  0  0  0  0
    0.0515   -1.8515    0.3463 F   0  0  0  0  0  0  0  0  0  0  0  0
    0.6101    0.0320   -0.9673 C   0  0  0  0  0  0  0  0  0  0  0  0
    1.5772    0.8244   -1.5517 C   0  0  0  0  0  0  0  0  0  0  0  0
    2.9153    0.5092   -1.3922 C   0  0  0  0  0  0  0  0  0  0  0  0
    3.8775    1.2706   -1.9563 F   0  0  0  0  0  0  0  0  0  0  0  0
   -0.8020    0.3535   -1.1220 C   0  0  0  0  0  0  0  0  0  0  0  0
   -1.7557    0.5220   -0.2361 N   0  0  0  0  0  0  0  0  0  0  0  0
   -2.9349    0.8252   -0.8159 N   0  0  0  0  0  0  0  0  0  0  0  0
   -4.0943    1.0526   -0.0260 C   0  0  0  0  0  0  0  0  0  0  0  0
   -4.0084    0.1260    1.2014 C   0  0  0  0  0  0  0  0  0  0  0  0
   -5.3650   -0.6308    1.2035 C   0  0  0  0  0  0  0  0  0  0  0  0
   -6.1756    0.3644    0.6160 N   0  0  0  0  0  0  0  0  0  0  0  0
   -5.4112    0.7196   -0.6094 C   0  0  0  0  0  0  0  0  0  0  0  0
   -7.3859    0.9363    0.9903 C   0  0  0  0  0  0  0  0  0  0  0  0
   -7.8819    1.8717    0.1904 O   0  0  0  0  0  0  0  0  0  0  0  0
   -8.2411    0.6852    2.1428 C   0  0  0  0  0  0  0  0  0  0  0  0
   -7.7190    0.2759    3.4492 C   0  0  0  0  0  0  0  0  0  0  0  0
   -8.3797   -0.7490    2.5805 C   0  0  0  0  0  0  0  0  0  0  0  0
   -2.7093    0.8493   -2.1446 C   0  0  0  0  0  0  0  0  0  0  0  0
   -3.5801    1.1095   -3.1780 C   0  0  0  0  0  0  0  0  0  0  0  0
   -3.0738    1.0674   -4.4761 C   0  0  0  0  0  0  0  0  0  0  0  0
   -1.7494    0.7756   -4.7071 C   0  0  0  0  0  0  0  0  0  0  0  0
   -0.9026    0.5205   -3.6525 C   0  0  0  0  0  0  0  0  0  0  0  0
   -1.3999    0.5613   -2.3681 C   0  0  0  0  0  0  0  0  0  0  0  0
    9.4012    1.4664    3.4758 H   0  0  0  0  0  0  0  0  0  0  0  0
    7.9585    0.8449    4.3601 H   0  0  0  0  0  0  0  0  0  0  0  0
    9.4507   -0.2102    4.1937 H   0  0  0  0  0  0  0  0  0  0  0  0
    7.1081   -1.6822    0.6634 H   0  0  0  0  0  0  0  0  0  0  0  0
    6.1409    1.1199   -0.0401 H   0  0  0  0  0  0  0  0  0  0  0  0
    7.8937    0.7234    0.0842 H   0  0  0  0  0  0  0  0  0  0  0  0
    7.6911   -0.9120   -1.6919 H   0  0  0  0  0  0  0  0  0  0  0  0
    6.6881    0.4933   -2.2096 H   0  0  0  0  0  0  0  0  0  0  0  0
    5.9192   -2.2850   -1.4647 H   0  0  0  0  0  0  0  0  0  0  0  0
    5.0535   -1.0613   -2.5117 H   0  0  0  0  0  0  0  0  0  0  0  0
    4.5666   -0.1878    1.4819 H   0  0  0  0  0  0  0  0  0  0  0  0
    4.8149   -1.9929    1.3703 H   0  0  0  0  0  0  0  0  0  0  0  0
    2.6214   -2.2741    0.5262 H   0  0  0  0  0  0  0  0  0  0  0  0
    1.2547    1.6887   -2.1297 H   0  0  0  0  0  0  0  0  0  0  0  0
   -4.1013    2.1227    0.3482 H   0  0  0  0  0  0  0  0  0  0  0  0
   -3.9503    0.6975    2.1201 H   0  0  0  0  0  0  0  0  0  0  0  0
   -3.2431   -0.6383    1.0832 H   0  0  0  0  0  0  0  0  0  0  0  0
   -5.5844   -1.0078    2.1884 H   0  0  0  0  0  0  0  0  0  0  0  0
   -5.2427   -1.5341    0.5181 H   0  0  0  0  0  0  0  0  0  0  0  0
   -5.9032    1.6168   -1.0386 H   0  0  0  0  0  0  0  0  0  0  0  0
   -5.3882   -0.1491   -1.2945 H   0  0  0  0  0  0  0  0  0  0  0  0
   -9.2064    1.3062    2.1877 H   0  0  0  0  0  0  0  0  0  0  0  0
   -6.6559    0.2708    3.7026 H   0  0  0  0  0  0  0  0  0  0  0  0
   -8.3580    0.5502    4.3440 H   0  0  0  0  0  0  0  0  0  0  0  0
   -9.4286   -1.0544    2.8253 H   0  0  0  0  0  0  0  0  0  0  0  0
   -7.8209   -1.5365    2.0763 H   0  0  0  0  0  0  0  0  0  0  0  0
   -4.6146    1.3421   -2.9954 H   0  0  0  0  0  0  0  0  0  0  0  0
   -3.7529    1.2707   -5.3061 H   0  0  0  0  0  0  0  0  0  0  0  0
   -1.3454    0.7418   -5.7314 H   0  0  0  0  0  0  0  0  0  0  0  0
    0.1495    0.2847   -3.7880 H   0  0  0  0  0  0  0  0  0  0  0  0
  1  2  1  0
  2  3  1  0
  3  4  2  0
  3  5  1  0
  5  6  1  0
  6  7  1  0
  7  8  1  0
  8  9  1  0
  9 10  1  0
  9 11  1  0
 11 12  2  0
 12 13  1  0
 13 14  1  0
 13 15  2  0
 15 16  1  0
 16 17  2  0
 17 18  1  0
 15 19  1  0
 19 20  2  0
 20 21  1  0
 21 22  1  0
 22 23  1  0
 23 24  1  0
 24 25  1  0
 25 26  1  0
 25 27  1  0
 27 28  2  0
 27 29  1  0
 29 30  1  0
 30 31  1  0
 21 32  1  0
 32 33  2  0
 33 34  1  0
 34 35  2  0
 35 36  1  0
 36 37  2  0
 10  5  1  0
 17 11  1  0
 37 19  1  0
 26 22  1  0
 31 29  1  0
 37 32  1  0
  1 38  1  0
  1 39  1  0
  1 40  1  0
  5 41  1  6
  6 42  1  0
  6 43  1  0
  7 44  1  0
  7 45  1  0
  8 46  1  0
  8 47  1  0
 10 48  1  0
 10 49  1  0
 12 50  1  0
 16 51  1  0
 22 52  1  0
 23 53  1  0
 23 54  1  0
 24 55  1  0
 24 56  1  0
 26 57  1  0
 26 58  1  0
 29 59  1  0
 30 60  1  0
 30 61  1  0
 31 62  1  0
 31 63  1  0
 33 64  1  0
 34 65  1  0
 35 66  1  0
 36 67  1  0
M  END
$$$$
[H]c1c(C([H])([H])N2C([H])([H])C([H])([H])N(C([H])([H])[H])C([H])([H])C2([H])[H])c([H])c2c([H])nn([H])c2c1[H]
     RDKit          3D

 35 37  0  0  0  0  0  0  0  0999 V2000
    4.0745    0.3377    1.2137 C   0  0  0  0  0  0  0  0  0  0  0  0
    3.5391   -0.2298    0.0167 N   0  0  0  0  0  0  0  0  0  0  0  0
    2.9203    0.6789   -0.8739 C   0  0  0  0  0  0  0  0  0  0  0  0
    1.3878    0.6995   -0.7992 C   0  0  0  0  0  0  0  0  0  0  0  0
    0.8418   -0.5853   -1.0491 N   0  0  0  0  0  0  0  0  0  0  0  0
   -0.2144   -1.0250   -0.2339 C   0  0  0  0  0  0  0  0  0  0  0  0
   -1.4595   -0.2794   -0.2149 C   0  0  0  0  0  0  0  0  0  0  0  0
   -1.8083    0.6505   -1.1628 C   0  0  0  0  0  0  0  0  0  0  0  0
   -3.0101    1.3039   -1.0478 C   0  0  0  0  0  0  0  0  0  0  0  0
   -3.8573    1.0355   -0.0007 C   0  0  0  0  0  0  0  0  0  0  0  0
   -5.0824    1.5154    0.3632 N   0  0  0  0  0  0  0  0  0  0  0  0
   -5.4786    0.9245    1.4696 N   0  0  0  0  0  0  0  0  0  0  0  0
   -4.5714    0.0408    1.9004 C   0  0  0  0  0  0  0  0  0  0  0  0
   -3.5416    0.1085    0.9702 C   0  0  0  0  0  0  0  0  0  0  0  0
   -2.3306   -0.5253    0.8220 C   0  0  0  0  0  0  0  0  0  0  0  0
    1.8905   -1.6064   -1.0103 C   0  0  0  0  0  0  0  0  0  0  0  0
    2.7470   -1.4126    0.2223 C   0  0  0  0  0  0  0  0  0  0  0  0
    3.2826    0.7859    1.8339 H   0  0  0  0  0  0  0  0  0  0  0  0
    4.8748    1.0522    0.9367 H   0  0  0  0  0  0  0  0  0  0  0  0
    4.5946   -0.4902    1.7667 H   0  0  0  0  0  0  0  0  0  0  0  0
    3.3040    1.7140   -0.7504 H   0  0  0  0  0  0  0  0  0  0  0  0
    3.1681    0.4036   -1.9222 H   0  0  0  0  0  0  0  0  0  0  0  0
    1.1044    1.1337    0.1863 H   0  0  0  0  0  0  0  0  0  0  0  0
    1.1123    1.4818   -1.5505 H   0  0  0  0  0  0  0  0  0  0  0  0
    0.1467   -1.1048    0.8343 H   0  0  0  0  0  0  0  0  0  0  0  0
   -0.4622   -2.0815   -0.5471 H   0  0  0  0  0  0  0  0  0  0  0  0
   -1.1372    0.8721   -2.0107 H   0  0  0  0  0  0  0  0  0  0  0  0
   -3.3038    2.0409   -1.7850 H   0  0  0  0  0  0  0  0  0  0  0  0
   -5.5737    2.2509   -0.2107 H   0  0  0  0  0  0  0  0  0  0  0  0
   -4.5739   -0.6110    2.7662 H   0  0  0  0  0  0  0  0  0  0  0  0
   -2.0927   -1.2626    1.6049 H   0  0  0  0  0  0  0  0  0  0  0  0
    1.4280   -2.6329   -1.0093 H   0  0  0  0  0  0  0  0  0  0  0  0
    2.5352   -1.5274   -1.8942 H   0  0  0  0  0  0  0  0  0  0  0  0
    3.4043   -2.3103    0.3095 H   0  0  0  0  0  0  0  0  0  0  0  0
    2.1418   -1.3460    1.1550 H   0  0  0  0  0  0  0  0  0  0  0  0
  1  2  1  0
  2  3  1  0
  3  4  1  0
  4  5  1  0
  5  6  1  0
  6  7  1  0
  7  8  2  0
  8  9  1  0
  9 10  2  0
 10 11  1  0
 11 12  1  0
 12 13  2  0
 13 14  1  0
 14 15  2  0
  5 16  1  0
 16 17  1  0
 17  2  1  0
 15  7  1  0
 14 10  1  0
  1 18  1  0
  1 19  1  0
  1 20  1  0
  3 21  1  0
  3 22  1  0
  4 23  1  0
  4 24  1  0
  6 25  1  0
  6 26  1  0
  8 27  1  0
  9 28  1  0
 11 29  1  0
 13 30  1  0
 15 31  1  0
 16 32  1  0
 16 33  1  0
 17 34  1  0
 17 35  1  0
M  END
$$$$
[H]c1nc([H])c([H])c(-c2nc([H])c(C(F)(F)F)c(N([H])c3nc([H])c([C@@]([H])(Oc4c([H])c([H])c([H])c(C#N)c4[H])C([H])([H])[H])c([H])n3)c2[H])c1[H]
     RDKit          3D

 51 54  0  0  0  0  0  0  0  0999 V2000
   -4.2655   -2.4194   -1.3802 C   0  0  0  0  0  0  0  0  0  0  0  0
   -3.5851   -1.3224   -0.5695 C   0  0  2  0  0  0  0  0  0  0  0  0
   -3.7518   -0.0739   -1.1335 O   0  0  0  0  0  0  0  0  0  0  0  0
   -4.3341    1.0574   -0.5819 C   0  0  0  0  0  0  0  0  0  0  0  0
   -4.8604    1.0888    0.6906 C   0  0  0  0  0  0  0  0  0  0  0  0
   -5.4175    2.2652    1.1451 C   0  0  0  0  0  0  0  0  0  0  0  0
   -5.4510    3.3863    0.3522 C   0  0  0  0  0  0  0  0  0  0  0  0
   -4.9341    3.3846   -0.9202 C   0  0  0  0  0  0  0  0  0  0  0  0
   -4.3799    2.2176   -1.3749 C   0  0  0  0  0  0  0  0  0  0  0  0
   -4.9739    4.5789   -1.7547 C   0  0  0  0  0  0  0  0  0  0  0  0
   -4.9971    5.5341   -2.3998 N   0  0  0  0  0  0  0  0  0  0  0  0
   -2.1377   -1.6860   -0.5438 C   0  0  0  0  0  0  0  0  0  0  0  0
   -1.1886   -0.7540   -0.1309 C   0  0  0  0  0  0  0  0  0  0  0  0
    0.1066   -1.0582   -0.1002 N   0  0  0  0  0  0  0  0  0  0  0  0
    0.5887   -2.2446   -0.4517 C   0  0  0  0  0  0  0  0  0  0  0  0
    1.9356   -2.6544   -0.4512 N   0  0  0  0  0  0  0  0  0  0  0  0
    3.0529   -1.9106   -0.0867 C   0  0  0  0  0  0  0  0  0  0  0  0
    3.0234   -0.5911    0.3123 C   0  0  0  0  0  0  0  0  0  0  0  0
    4.1358    0.1577    0.6688 C   0  0  0  0  0  0  0  0  0  0  0  0
    5.3178   -0.4768    0.6113 N   0  0  0  0  0  0  0  0  0  0  0  0
    5.3944   -1.7616    0.2283 C   0  0  0  0  0  0  0  0  0  0  0  0
    4.3144   -2.5386   -0.1329 C   0  0  0  0  0  0  0  0  0  0  0  0
    4.5102   -3.9510   -0.5348 C   0  0  0  0  0  0  0  0  0  0  0  0
    5.8849   -4.2277   -0.4720 F   0  0  0  0  0  0  0  0  0  0  0  0
    4.1637   -4.2175   -1.8412 F   0  0  0  0  0  0  0  0  0  0  0  0
    3.8641   -4.8541    0.2722 F   0  0  0  0  0  0  0  0  0  0  0  0
    4.0487    1.5639    1.0876 C   0  0  0  0  0  0  0  0  0  0  0  0
    5.2547    2.1943    1.4183 C   0  0  0  0  0  0  0  0  0  0  0  0
    5.3487    3.4861    1.8230 C   0  0  0  0  0  0  0  0  0  0  0  0
    4.1858    4.1900    1.9039 N   0  0  0  0  0  0  0  0  0  0  0  0
    3.0243    3.6166    1.5955 C   0  0  0  0  0  0  0  0  0  0  0  0
    2.9151    2.2940    1.1798 C   0  0  0  0  0  0  0  0  0  0  0  0
   -0.3662   -3.1560   -0.8582 N   0  0  0  0  0  0  0  0  0  0  0  0
   -1.6693   -2.9254   -0.9145 C   0  0  0  0  0  0  0  0  0  0  0  0
   -3.7179   -2.5593   -2.3164 H   0  0  0  0  0  0  0  0  0  0  0  0
   -5.3098   -2.1445   -1.6321 H   0  0  0  0  0  0  0  0  0  0  0  0
   -4.3272   -3.3182   -0.7393 H   0  0  0  0  0  0  0  0  0  0  0  0
   -3.9953   -1.3401    0.4553 H   0  0  0  0  0  0  0  0  0  0  0  0
   -4.8412    0.2085    1.3306 H   0  0  0  0  0  0  0  0  0  0  0  0
   -5.8420    2.2997    2.1641 H   0  0  0  0  0  0  0  0  0  0  0  0
   -5.9035    4.3020    0.7524 H   0  0  0  0  0  0  0  0  0  0  0  0
   -3.9629    2.1887   -2.3800 H   0  0  0  0  0  0  0  0  0  0  0  0
   -1.5776    0.2218    0.1589 H   0  0  0  0  0  0  0  0  0  0  0  0
    2.0885   -3.6487   -0.7734 H   0  0  0  0  0  0  0  0  0  0  0  0
    2.0909   -0.0297    0.3739 H   0  0  0  0  0  0  0  0  0  0  0  0
    6.3796   -2.2677    0.1873 H   0  0  0  0  0  0  0  0  0  0  0  0
    6.1918    1.6262    1.3529 H   0  0  0  0  0  0  0  0  0  0  0  0
    6.3011    3.9452    2.0724 H   0  0  0  0  0  0  0  0  0  0  0  0
    2.0896    4.1693    1.6566 H   0  0  0  0  0  0  0  0  0  0  0  0
    1.9670    1.8506    0.9357 H   0  0  0  0  0  0  0  0  0  0  0  0
   -2.3888   -3.6962   -1.2493 H   0  0  0  0  0  0  0  0  0  0  0  0
  1  2  1  0
  2  3  1  0
  3  4  1  0
  4  5  2  0
  5  6  1  0
  6  7  2  0
  7  8  1  0
  8  9  2  0
  8 10  1  0
 10 11  3  0
  2 12  1  0
 12 13  2  0
 13 14  1  0
 14 15  2  0
 15 16  1  0
 16 17  1  0
 17 18  2  0
 18 19  1  0
 19 20  2  0
 20 21  1  0
 21 22  2  0
 22 23  1  0
 23 24  1  0
 23 25  1  0
 23 26  1  0
 19 27  1  0
 27 28  2  0
 28 29  1  0
 29 30  2  0
 30 31  1  0
 31 32  2  0
 15 33  1  0
 33 34  2  0
  9  4  1  0
 34 12  1  0
 22 17  1  0
 32 27  1  0
  1 35  1  0
  1 36  1  0
  1 37  1  0
  2 38  1  1
  5 39  1  0
  6 40  1  0
  7 41  1  0
  9 42  1  0
 13 43  1  0
 16 44  1  0
 18 45  1  0
 21 46  1  0
 28 47  1  0
 29 48  1  0
 31 49  1  0
 32 50  1  0
 34 51  1  0
M  END
$$$$
[H]OB(O[H])C([H])(O[H])C1([H])C([H])([H])C([H])=C(C([H])([H])[H])N=C(c2c([H])c([H])c([H])c([H])c2[H])[C@@]([H])(C(=O)N([H])[C@]([H])(C(=O)[O-])C([H])([H])c2c([H])c([H])c(C(=O)N([H])[H])c([H])c2[H])C1([H])[H]
     RDKit          3D

 66 68  0  0  0  0  0  0  0  0999 V2000
   -3.4496   -1.4559    3.8749 O   0  0  0  0  0  0  0  0  0  0  0  0
   -3.2758   -1.9738    2.5084 B   0  0  0  0  0  0  0  0  0  0  0  0
   -3.2608   -3.4495    2.3979 O   0  0  0  0  0  0  0  0  0  0  0  0
   -2.4382   -1.1063    1.4236 C   0  0  0  0  0  0  0  0  0  0  0  0
   -1.1450   -1.6716    1.5456 O   0  0  0  0  0  0  0  0  0  0  0  0
   -3.0327   -1.4423    0.1168 C   0  0  0  0  0  0  0  0  0  0  0  0
   -4.5357   -1.0587    0.1816 C   0  0  0  0  0  0  0  0  0  0  0  0
   -4.6601    0.2666    0.7809 C   0  0  0  0  0  0  0  0  0  0  0  0
   -4.1779    1.4469    0.4307 C   0  0  0  0  0  0  0  0  0  0  0  0
   -4.5948    2.5339    1.3924 C   0  0  0  0  0  0  0  0  0  0  0  0
   -3.3705    1.8949   -0.6425 N   0  0  0  0  0  0  0  0  0  0  0  0
   -2.4322    1.4344   -1.3916 C   0  0  0  0  0  0  0  0  0  0  0  0
   -1.7223    0.1430   -1.4773 C   0  0  2  0  0  0  0  0  0  0  0  0
   -2.4095   -1.0882   -1.1335 C   0  0  0  0  0  0  0  0  0  0  0  0
   -0.2896    0.2628   -1.1032 C   0  0  0  0  0  0  0  0  0  0  0  0
    0.1042    1.3358   -0.5961 O   0  0  0  0  0  0  0  0  0  0  0  0
    0.6917   -0.7323   -1.2701 N   0  0  0  0  0  0  0  0  0  0  0  0
    2.0923   -0.6199   -0.9283 C   0  0  1  0  0  0  0  0  0  0  0  0
    2.3379   -1.4683    0.2806 C   0  0  0  0  0  0  0  0  0  0  0  0
    3.6873   -1.5100    0.8168 C   0  0  0  0  0  0  0  0  0  0  0  0
    4.5524   -2.5523    0.6267 C   0  0  0  0  0  0  0  0  0  0  0  0
    5.8566   -2.5350    1.1246 C   0  0  0  0  0  0  0  0  0  0  0  0
    6.3266   -1.4516    1.8367 C   0  0  0  0  0  0  0  0  0  0  0  0
    5.4595   -0.3964    2.0343 C   0  0  0  0  0  0  0  0  0  0  0  0
    4.1786   -0.4272    1.5378 C   0  0  0  0  0  0  0  0  0  0  0  0
    7.6938   -1.4211    2.3579 C   0  0  0  0  0  0  0  0  0  0  0  0
    8.2311   -0.2998    3.0367 N   0  0  0  0  0  0  0  0  0  0  0  0
    8.4095   -2.4454    2.1855 O   0  0  0  0  0  0  0  0  0  0  0  0
    2.9743   -0.9167   -2.0341 C   0  0  0  0  0  0  0  0  0  0  0  0
    3.6886   -2.0512   -2.2117 O   0  0  0  0  0  0  0  0  0  0  0  0
    3.0622    0.0239   -2.9297 O   0  0  0  0  0  0  0  0  0  0  0  0
   -2.0320    2.4657   -2.3495 C   0  0  0  0  0  0  0  0  0  0  0  0
   -1.0770    2.3193   -3.2890 C   0  0  0  0  0  0  0  0  0  0  0  0
   -0.7453    3.3418   -4.1731 C   0  0  0  0  0  0  0  0  0  0  0  0
   -1.3975    4.5367   -4.1002 C   0  0  0  0  0  0  0  0  0  0  0  0
   -2.3786    4.7390   -3.1616 C   0  0  0  0  0  0  0  0  0  0  0  0
   -2.6754    3.6929   -2.3024 C   0  0  0  0  0  0  0  0  0  0  0  0
   -3.0050   -1.9952    4.5492 H   0  0  0  0  0  0  0  0  0  0  0  0
   -4.1655   -3.7107    2.0496 H   0  0  0  0  0  0  0  0  0  0  0  0
   -2.4820   -0.0871    1.7755 H   0  0  0  0  0  0  0  0  0  0  0  0
   -0.8531   -1.5696    2.4862 H   0  0  0  0  0  0  0  0  0  0  0  0
   -3.1185   -2.5809    0.1363 H   0  0  0  0  0  0  0  0  0  0  0  0
   -5.1063   -1.7836    0.7948 H   0  0  0  0  0  0  0  0  0  0  0  0
   -4.8849   -1.1515   -0.8531 H   0  0  0  0  0  0  0  0  0  0  0  0
   -5.2478    0.3255    1.6760 H   0  0  0  0  0  0  0  0  0  0  0  0
   -3.8139    3.2985    1.3968 H   0  0  0  0  0  0  0  0  0  0  0  0
   -4.8694    2.1278    2.3677 H   0  0  0  0  0  0  0  0  0  0  0  0
   -5.4975    2.9975    0.8936 H   0  0  0  0  0  0  0  0  0  0  0  0
   -1.6312    0.0339   -2.6342 H   0  0  0  0  0  0  0  0  0  0  0  0
   -3.2136   -1.2685   -1.9359 H   0  0  0  0  0  0  0  0  0  0  0  0
   -1.6805   -1.9266   -1.4116 H   0  0  0  0  0  0  0  0  0  0  0  0
    0.3812   -1.6485   -1.6851 H   0  0  0  0  0  0  0  0  0  0  0  0
    2.2190    0.4441   -0.5543 H   0  0  0  0  0  0  0  0  0  0  0  0
    1.6290   -1.1520    1.1079 H   0  0  0  0  0  0  0  0  0  0  0  0
    1.9878   -2.5010    0.0195 H   0  0  0  0  0  0  0  0  0  0  0  0
    4.2761   -3.4507    0.1062 H   0  0  0  0  0  0  0  0  0  0  0  0
    6.5198   -3.3898    0.9499 H   0  0  0  0  0  0  0  0  0  0  0  0
    5.8625    0.4450    2.6042 H   0  0  0  0  0  0  0  0  0  0  0  0
    3.5181    0.4190    1.7099 H   0  0  0  0  0  0  0  0  0  0  0  0
    9.1879    0.0395    2.7666 H   0  0  0  0  0  0  0  0  0  0  0  0
    7.7012    0.1849    3.7837 H   0  0  0  0  0  0  0  0  0  0  0  0
   -0.5316    1.4249   -3.4086 H   0  0  0  0  0  0  0  0  0  0  0  0
    0.0294    3.2047   -4.9245 H   0  0  0  0  0  0  0  0  0  0  0  0
   -1.1403    5.3462   -4.7946 H   0  0  0  0  0  0  0  0  0  0  0  0
   -2.8684    5.6966   -3.1393 H   0  0  0  0  0  0  0  0  0  0  0  0
   -3.4487    3.8633   -1.5678 H   0  0  0  0  0  0  0  0  0  0  0  0
  1  2  1  0
  2  3  1  0
  2  4  1  0
  4  5  1  0
  4  6  1  0
  6  7  1  0
  7  8  1  0
  8  9  2  0
  9 10  1  0
  9 11  1  0
 11 12  2  0
 12 13  1  0
 13 14  1  0
 13 15  1  0
 15 16  2  0
 15 17  1  0
 17 18  1  0
 18 19  1  0
 19 20  1  0
 20 21  2  0
 21 22  1  0
 22 23  2  0
 23 24  1  0
 24 25  2  0
 23 26  1  0
 26 27  1  0
 26 28  2  0
 18 29  1  0
 29 30  1  0
 29 31  2  0
 12 32  1  0
 32 33  2  0
 33 34  1  0
 34 35  2  0
 35 36  1  0
 36 37  2  0
 14  6  1  0
 25 20  1  0
 37 32  1  0
  1 38  1  0
  3 39  1  0
  4 40  1  0
  5 41  1  0
  6 42  1  0
  7 43  1  0
  7 44  1  0
  8 45  1  0
 10 46  1  0
 10 47  1  0
 10 48  1  0
 13 49  1  6
 14 50  1  0
 14 51  1  0
 17 52  1  0
 18 53  1  1
 19 54  1  0
 19 55  1  0
 21 56  1  0
 22 57  1  0
 24 58  1  0
 25 59  1  0
 27 60  1  0
 27 61  1  0
 33 62  1  0
 34 63  1  0
 35 64  1  0
 36 65  1  0
 37 66  1  0
M  CHG  1  30  -1
M  END
$$$$
[H]Oc1c([H])c([H])c(/C([H])=C(\C([H])(N2C(=O)c3c([H])c([H])c([H])c([H])c3C2=O)C([H])([H])[H])[C@@]([H])(O[H])C([H])([H])[C@@]([H])(O[H])C([H])([H])N([H])S(=O)(=O)C([H])([H])[H])c([H])c1[H]
     RDKit          3D

 59 61  0  0  0  0  0  0  0  0999 V2000
   -1.1372    0.8387    2.2282 C   0  0  0  0  0  0  0  0  0  0  0  0
   -1.2186    0.8169    0.7446 C   0  0  0  0  0  0  0  0  0  0  0  0
    0.0607    0.5096    0.1039 C   0  0  0  0  0  0  0  0  0  0  0  0
    0.6419    1.5381   -0.5659 C   0  0  0  0  0  0  0  0  0  0  0  0
    0.0926    2.8507   -0.6644 C   0  0  0  0  0  0  0  0  0  0  0  0
   -0.2355    3.2748   -1.9650 C   0  0  0  0  0  0  0  0  0  0  0  0
   -0.7081    4.5407   -2.2309 C   0  0  0  0  0  0  0  0  0  0  0  0
   -0.8682    5.4302   -1.1913 C   0  0  0  0  0  0  0  0  0  0  0  0
   -1.3377    6.6907   -1.4474 O   0  0  0  0  0  0  0  0  0  0  0  0
   -0.5539    5.0343    0.0780 C   0  0  0  0  0  0  0  0  0  0  0  0
   -0.0820    3.7707    0.3432 C   0  0  0  0  0  0  0  0  0  0  0  0
    0.8344   -0.7686    0.1176 C   0  0  1  0  0  0  0  0  0  0  0  0
    1.8203   -0.6899   -0.9088 O   0  0  0  0  0  0  0  0  0  0  0  0
    1.4108   -1.0625    1.4306 C   0  0  0  0  0  0  0  0  0  0  0  0
    2.2226   -2.3124    1.5855 C   0  0  1  0  0  0  0  0  0  0  0  0
    1.5839   -3.4926    1.3023 O   0  0  0  0  0  0  0  0  0  0  0  0
    3.6623   -2.2254    1.1988 C   0  0  0  0  0  0  0  0  0  0  0  0
    3.9680   -2.4350   -0.1769 N   0  0  0  0  0  0  0  0  0  0  0  0
    5.6275   -2.3210   -0.5446 S   0  0  0  0  0  0  0  0  0  0  0  0
    6.2324   -0.6884   -0.1664 C   0  0  0  0  0  0  0  0  0  0  0  0
    6.3702   -3.3403    0.2590 O   0  0  0  0  0  0  0  0  0  0  0  0
    5.8021   -2.6075   -2.0208 O   0  0  0  0  0  0  0  0  0  0  0  0
   -2.3449   -0.0151    0.3724 N   0  0  0  0  0  0  0  0  0  0  0  0
   -2.6039   -1.3393    0.7345 C   0  0  0  0  0  0  0  0  0  0  0  0
   -1.9721   -2.1458    1.5034 O   0  0  0  0  0  0  0  0  0  0  0  0
   -3.8369   -1.8016    0.0765 C   0  0  0  0  0  0  0  0  0  0  0  0
   -4.4978   -3.0039    0.1115 C   0  0  0  0  0  0  0  0  0  0  0  0
   -5.6521   -3.1993   -0.6003 C   0  0  0  0  0  0  0  0  0  0  0  0
   -6.1535   -2.1632   -1.3643 C   0  0  0  0  0  0  0  0  0  0  0  0
   -5.4962   -0.9639   -1.4006 C   0  0  0  0  0  0  0  0  0  0  0  0
   -4.3200   -0.7702   -0.6732 C   0  0  0  0  0  0  0  0  0  0  0  0
   -3.4201    0.3617   -0.5162 C   0  0  0  0  0  0  0  0  0  0  0  0
   -3.6138    1.4609   -1.0944 O   0  0  0  0  0  0  0  0  0  0  0  0
   -1.4582   -0.0875    2.7363 H   0  0  0  0  0  0  0  0  0  0  0  0
   -0.1192    1.0910    2.6383 H   0  0  0  0  0  0  0  0  0  0  0  0
   -1.7822    1.6796    2.6603 H   0  0  0  0  0  0  0  0  0  0  0  0
   -1.5641    1.8443    0.3197 H   0  0  0  0  0  0  0  0  0  0  0  0
    1.6170    1.3392   -1.0700 H   0  0  0  0  0  0  0  0  0  0  0  0
   -0.1263    2.6100   -2.8166 H   0  0  0  0  0  0  0  0  0  0  0  0
   -0.9580    4.8559   -3.2416 H   0  0  0  0  0  0  0  0  0  0  0  0
   -1.5737    6.9943   -2.3878 H   0  0  0  0  0  0  0  0  0  0  0  0
   -0.6646    5.7073    0.9399 H   0  0  0  0  0  0  0  0  0  0  0  0
    0.1742    3.4804    1.3678 H   0  0  0  0  0  0  0  0  0  0  0  0
    0.1195   -1.5788   -0.1545 H   0  0  0  0  0  0  0  0  0  0  0  0
    1.3905   -1.0369   -1.7141 H   0  0  0  0  0  0  0  0  0  0  0  0
    2.0712   -0.2312    1.8247 H   0  0  0  0  0  0  0  0  0  0  0  0
    0.5775   -1.0817    2.1981 H   0  0  0  0  0  0  0  0  0  0  0  0
    2.3084   -2.3843    2.7633 H   0  0  0  0  0  0  0  0  0  0  0  0
    1.9822   -4.0280    0.5992 H   0  0  0  0  0  0  0  0  0  0  0  0
    3.9755   -1.1569    1.4239 H   0  0  0  0  0  0  0  0  0  0  0  0
    4.2860   -2.8613    1.8755 H   0  0  0  0  0  0  0  0  0  0  0  0
    3.5937   -3.3431   -0.5583 H   0  0  0  0  0  0  0  0  0  0  0  0
    5.5803    0.0791   -0.6160 H   0  0  0  0  0  0  0  0  0  0  0  0
    7.2431   -0.6096   -0.6066 H   0  0  0  0  0  0  0  0  0  0  0  0
    6.2720   -0.6056    0.9337 H   0  0  0  0  0  0  0  0  0  0  0  0
   -4.1341   -3.8266    0.6945 H   0  0  0  0  0  0  0  0  0  0  0  0
   -6.1530   -4.1499   -0.5579 H   0  0  0  0  0  0  0  0  0  0  0  0
   -7.0700   -2.3385   -1.9210 H   0  0  0  0  0  0  0  0  0  0  0  0
   -5.8644   -0.1333   -1.9895 H   0  0  0  0  0  0  0  0  0  0  0  0
  1  2  1  0
  2  3  1  0
  3  4  2  0
  4  5  1  0
  5  6  2  0
  6  7  1  0
  7  8  2  0
  8  9  1  0
  8 10  1  0
 10 11  2  0
  3 12  1  0
 12 13  1  0
 12 14  1  0
 14 15  1  0
 15 16  1  0
 15 17  1  0
 17 18  1  0
 18 19  1  0
 19 20  1  0
 19 21  2  0
 19 22  2  0
  2 23  1  0
 23 24  1  0
 24 25  2  0
 24 26  1  0
 26 27  2  0
 27 28  1  0
 28 29  2  0
 29 30  1  0
 30 31  2  0
 31 32  1  0
 32 33  2  0
 11  5  1  0
 32 23  1  0
 31 26  1  0
  1 34  1  0
  1 35  1  0
  1 36  1  0
  2 37  1  0
  4 38  1  0
  6 39  1  0
  7 40  1  0
  9 41  1  0
 10 42  1  0
 11 43  1  0
 12 44  1  6
 13 45  1  0
 14 46  1  0
 14 47  1  0
 15 48  1  1
 16 49  1  0
 17 50  1  0
 17 51  1  0
 18 52  1  0
 20 53  1  0
 20 54  1  0
 20 55  1  0
 27 56  1  0
 28 57  1  0
 29 58  1  0
 30 59  1  0
M  END
$$$$
[H]c1c([H])c2c(c([H])c1F)N([H])C(=O)[C@@]1([H])[C@](C(=O)N([H])[H])(C([H])([H])[H])O[C@@]1([H])[C@]([H])(C([H])([H])[H])N([H])C([H])([H])[C@]2([H])OS(=O)(=O)C([H])([H])[H]
     RDKit          3D

 50 52  0  0  0  0  0  0  0  0999 V2000
   -4.1101    2.7924    2.0364 C   0  0  0  0  0  0  0  0  0  0  0  0
   -4.0261    1.1599    1.3333 S   0  0  0  0  0  0  0  0  0  0  0  0
   -4.8837    1.2090    0.0721 O   0  0  0  0  0  0  0  0  0  0  0  0
   -4.7059    0.2233    2.2599 O   0  0  0  0  0  0  0  0  0  0  0  0
   -2.5030    0.8195    0.9133 O   0  0  0  0  0  0  0  0  0  0  0  0
   -2.2634    0.1785   -0.2791 C   0  0  1  0  0  0  0  0  0  0  0  0
   -1.6772    1.1105   -1.2715 C   0  0  0  0  0  0  0  0  0  0  0  0
   -0.3603    1.5269   -1.0988 N   0  0  0  0  0  0  0  0  0  0  0  0
    0.7048    0.7615   -1.6365 C   0  0  1  0  0  0  0  0  0  0  0  0
    1.0151    1.4496   -2.9912 C   0  0  0  0  0  0  0  0  0  0  0  0
    1.9409    0.7215   -0.8342 C   0  0  2  0  0  0  0  0  0  0  0  0
    2.5883   -0.5369   -0.6869 O   0  0  0  0  0  0  0  0  0  0  0  0
    3.1493    0.0204    0.4649 C   0  0  1  0  0  0  0  0  0  0  0  0
    4.4011    0.8073    0.0347 C   0  0  0  0  0  0  0  0  0  0  0  0
    1.9226    0.8982    0.6068 C   0  0  2  0  0  0  0  0  0  0  0  0
    0.8449    0.4230    1.4413 C   0  0  0  0  0  0  0  0  0  0  0  0
    0.4471    1.3173    2.3135 O   0  0  0  0  0  0  0  0  0  0  0  0
    0.1413   -0.7742    1.5236 N   0  0  0  0  0  0  0  0  0  0  0  0
   -0.6324   -1.5584    0.6342 C   0  0  0  0  0  0  0  0  0  0  0  0
   -0.2763   -2.9058    0.5655 C   0  0  0  0  0  0  0  0  0  0  0  0
   -0.8822   -3.8452   -0.2413 C   0  0  0  0  0  0  0  0  0  0  0  0
   -0.4822   -5.1475   -0.2592 F   0  0  0  0  0  0  0  0  0  0  0  0
   -1.9048   -3.4388   -1.0328 C   0  0  0  0  0  0  0  0  0  0  0  0
   -2.2660   -2.1207   -0.9749 C   0  0  0  0  0  0  0  0  0  0  0  0
   -1.6715   -1.1529   -0.1695 C   0  0  0  0  0  0  0  0  0  0  0  0
    3.5156   -0.8558    1.5542 C   0  0  0  0  0  0  0  0  0  0  0  0
    3.3460   -2.2457    1.4343 N   0  0  0  0  0  0  0  0  0  0  0  0
    3.9852   -0.3947    2.6087 O   0  0  0  0  0  0  0  0  0  0  0  0
   -4.2796    3.5600    1.2418 H   0  0  0  0  0  0  0  0  0  0  0  0
   -4.9975    2.8450    2.6968 H   0  0  0  0  0  0  0  0  0  0  0  0
   -3.2240    3.0281    2.6617 H   0  0  0  0  0  0  0  0  0  0  0  0
   -3.3327    0.0626   -0.6642 H   0  0  0  0  0  0  0  0  0  0  0  0
   -1.7258    0.5537   -2.2620 H   0  0  0  0  0  0  0  0  0  0  0  0
   -2.3141    2.0001   -1.4633 H   0  0  0  0  0  0  0  0  0  0  0  0
   -0.2524    2.5453   -1.2931 H   0  0  0  0  0  0  0  0  0  0  0  0
    0.4588   -0.2663   -1.9677 H   0  0  0  0  0  0  0  0  0  0  0  0
    1.5645    0.7497   -3.6526 H   0  0  0  0  0  0  0  0  0  0  0  0
    1.7175    2.2796   -2.7689 H   0  0  0  0  0  0  0  0  0  0  0  0
    0.1121    1.8613   -3.4393 H   0  0  0  0  0  0  0  0  0  0  0  0
    2.7620    1.3586   -1.3020 H   0  0  0  0  0  0  0  0  0  0  0  0
    4.6745    0.6276   -1.0071 H   0  0  0  0  0  0  0  0  0  0  0  0
    4.1297    1.9019    0.1083 H   0  0  0  0  0  0  0  0  0  0  0  0
    5.2410    0.6769    0.7304 H   0  0  0  0  0  0  0  0  0  0  0  0
    2.3216    1.9220    0.8930 H   0  0  0  0  0  0  0  0  0  0  0  0
    0.2028   -1.2191    2.5157 H   0  0  0  0  0  0  0  0  0  0  0  0
    0.5354   -3.3394    1.1818 H   0  0  0  0  0  0  0  0  0  0  0  0
   -2.4009   -4.1503   -1.6779 H   0  0  0  0  0  0  0  0  0  0  0  0
   -3.1060   -1.8562   -1.6469 H   0  0  0  0  0  0  0  0  0  0  0  0
    3.1525   -2.8342    2.2737 H   0  0  0  0  0  0  0  0  0  0  0  0
    3.4037   -2.7494    0.5207 H   0  0  0  0  0  0  0  0  0  0  0  0
  1  2  1  0
  2  3  2  0
  2  4  2  0
  2  5  1  0
  5  6  1  0
  6  7  1  0
  7  8  1  0
  8  9  1  0
  9 10  1  0
  9 11  1  0
 11 12  1  0
 12 13  1  0
 13 14  1  0
 13 15  1  0
 15 16  1  0
 16 17  2  0
 16 18  1  0
 18 19  1  0
 19 20  2  0
 20 21  1  0
 21 22  1  0
 21 23  2  0
 23 24  1  0
 24 25  2  0
 13 26  1  1
 26 27  1  0
 26 28  2  0
 25  6  1  0
 15 11  1  0
 25 19  1  0
  1 29  1  0
  1 30  1  0
  1 31  1  0
  6 32  1  6
  7 33  1  0
  7 34  1  0
  8 35  1  0
  9 36  1  6
 10 37  1  0
 10 38  1  0
 10 39  1  0
 11 40  1  6
 14 41  1  0
 14 42  1  0
 14 43  1  0
 15 44  1  6
 18 45  1  0
 20 46  1  0
 23 47  1  0
 24 48  1  0
 27 49  1  0
 27 50  1  0
M  END
$$$$
[H]c1nc(C([H])([H])[H])nc(C([H])([H])C([H])([H])c2nc3c([H])c([H])c([H])c([H])n3n2)c1-c1c([H])c([H])c(OC([H])([H])[H])c([H])c1[H]
     RDKit          3D

 45 48  0  0  0  0  0  0  0  0999 V2000
   -4.0713   -4.1115   -0.9524 C   0  0  0  0  0  0  0  0  0  0  0  0
   -3.4853   -3.6144    0.2320 O   0  0  0  0  0  0  0  0  0  0  0  0
   -3.0827   -2.2830    0.2466 C   0  0  0  0  0  0  0  0  0  0  0  0
   -3.2245   -1.4307   -0.8248 C   0  0  0  0  0  0  0  0  0  0  0  0
   -2.8252   -0.1189   -0.8038 C   0  0  0  0  0  0  0  0  0  0  0  0
   -2.2380    0.4170    0.3510 C   0  0  0  0  0  0  0  0  0  0  0  0
   -2.1023   -0.4460    1.4168 C   0  0  0  0  0  0  0  0  0  0  0  0
   -2.5109   -1.7713    1.3806 C   0  0  0  0  0  0  0  0  0  0  0  0
   -1.8609    1.8176    0.3637 C   0  0  0  0  0  0  0  0  0  0  0  0
   -2.8658    2.7815    0.1847 C   0  0  0  0  0  0  0  0  0  0  0  0
   -2.5897    4.0966    0.2300 N   0  0  0  0  0  0  0  0  0  0  0  0
   -1.3332    4.5205    0.4499 C   0  0  0  0  0  0  0  0  0  0  0  0
   -1.1232    5.9872    0.4839 C   0  0  0  0  0  0  0  0  0  0  0  0
   -0.3940    3.6167    0.6164 N   0  0  0  0  0  0  0  0  0  0  0  0
   -0.5885    2.2561    0.5846 C   0  0  0  0  0  0  0  0  0  0  0  0
    0.5890    1.3594    0.7410 C   0  0  0  0  0  0  0  0  0  0  0  0
    1.0160    0.8921   -0.6277 C   0  0  0  0  0  0  0  0  0  0  0  0
    2.1920   -0.0193   -0.5747 C   0  0  0  0  0  0  0  0  0  0  0  0
    2.2054   -1.3584   -0.4615 N   0  0  0  0  0  0  0  0  0  0  0  0
    3.4777   -1.8331   -0.4503 C   0  0  0  0  0  0  0  0  0  0  0  0
    4.0377   -3.0883   -0.3569 C   0  0  0  0  0  0  0  0  0  0  0  0
    5.4032   -3.2689   -0.3733 C   0  0  0  0  0  0  0  0  0  0  0  0
    6.1879   -2.1381   -0.4872 C   0  0  0  0  0  0  0  0  0  0  0  0
    5.5839   -0.9111   -0.5771 C   0  0  0  0  0  0  0  0  0  0  0  0
    4.2454   -0.7304   -0.5614 N   0  0  0  0  0  0  0  0  0  0  0  0
    3.4938    0.3527   -0.6361 N   0  0  0  0  0  0  0  0  0  0  0  0
   -4.8853   -3.4459   -1.2488 H   0  0  0  0  0  0  0  0  0  0  0  0
   -4.4354   -5.1638   -0.7977 H   0  0  0  0  0  0  0  0  0  0  0  0
   -3.2748   -4.1628   -1.7101 H   0  0  0  0  0  0  0  0  0  0  0  0
   -3.6880   -1.8739   -1.7225 H   0  0  0  0  0  0  0  0  0  0  0  0
   -2.9617    0.5108   -1.6818 H   0  0  0  0  0  0  0  0  0  0  0  0
   -1.6638   -0.0732    2.3562 H   0  0  0  0  0  0  0  0  0  0  0  0
   -2.3545   -2.3668    2.2841 H   0  0  0  0  0  0  0  0  0  0  0  0
   -3.8764    2.4307    0.0082 H   0  0  0  0  0  0  0  0  0  0  0  0
   -1.7308    6.4680   -0.3102 H   0  0  0  0  0  0  0  0  0  0  0  0
   -0.0541    6.1897    0.2077 H   0  0  0  0  0  0  0  0  0  0  0  0
   -1.2925    6.4205    1.4796 H   0  0  0  0  0  0  0  0  0  0  0  0
    1.4452    1.9089    1.2088 H   0  0  0  0  0  0  0  0  0  0  0  0
    0.3320    0.4716    1.3234 H   0  0  0  0  0  0  0  0  0  0  0  0
    0.1977    0.4597   -1.2281 H   0  0  0  0  0  0  0  0  0  0  0  0
    1.3500    1.7890   -1.2263 H   0  0  0  0  0  0  0  0  0  0  0  0
    3.4059   -3.9579   -0.2682 H   0  0  0  0  0  0  0  0  0  0  0  0
    5.8645   -4.2589   -0.3004 H   0  0  0  0  0  0  0  0  0  0  0  0
    7.2664   -2.2837   -0.4994 H   0  0  0  0  0  0  0  0  0  0  0  0
    6.2190   -0.0359   -0.6659 H   0  0  0  0  0  0  0  0  0  0  0  0
  1  2  1  0
  2  3  1  0
  3  4  2  0
  4  5  1  0
  5  6  2  0
  6  7  1  0
  7  8  2  0
  6  9  1  0
  9 10  2  0
 10 11  1  0
 11 12  2  0
 12 13  1  0
 12 14  1  0
 14 15  2  0
 15 16  1  0
 16 17  1  0
 17 18  1  0
 18 19  1  0
 19 20  2  0
 20 21  1  0
 21 22  2  0
 22 23  1  0
 23 24  2  0
 24 25  1  0
 25 26  1  0
  8  3  1  0
 15  9  1  0
 26 18  2  0
 25 20  1  0
  1 27  1  0
  1 28  1  0
  1 29  1  0
  4 30  1  0
  5 31  1  0
  7 32  1  0
  8 33  1  0
 10 34  1  0
 13 35  1  0
 13 36  1  0
 13 37  1  0
 16 38  1  0
 16 39  1  0
 17 40  1  0
 17 41  1  0
 21 42  1  0
 22 43  1  0
 23 44  1  0
 24 45  1  0
M  END
$$$$
[H]c1nc(-c2c([H])c([H])nc(N([H])C(=O)c3c([H])c([H])c(C([H])([H])[H])c([H])c3[H])c2[H])c([H])c(C(=O)N([H])c2c([H])c([H])c([H])c(C([H])([H])N([H])C([H])([H])C([H])([H])c3c([H])c([H])c4c(c3[H])OC([H])([H])O4)c2[H])c1[H]
     RDKit          3D

 75 80  0  0  0  0  0  0  0  0999 V2000
    8.5480    2.4317    3.1119 C   0  0  0  0  0  0  0  0  0  0  0  0
    8.7016    1.4036    2.0374 C   0  0  0  0  0  0  0  0  0  0  0  0
    8.6383    1.8156    0.7255 C   0  0  0  0  0  0  0  0  0  0  0  0
    8.7777    0.8809   -0.2685 C   0  0  0  0  0  0  0  0  0  0  0  0
    8.9820   -0.4794   -0.0048 C   0  0  0  0  0  0  0  0  0  0  0  0
    9.0358   -0.8297    1.3373 C   0  0  0  0  0  0  0  0  0  0  0  0
    8.9026    0.0686    2.3524 C   0  0  0  0  0  0  0  0  0  0  0  0
    9.1535   -1.4004   -1.0897 C   0  0  0  0  0  0  0  0  0  0  0  0
   10.4105   -1.6110   -1.3832 O   0  0  0  0  0  0  0  0  0  0  0  0
    8.2285   -2.0796   -1.8522 N   0  0  0  0  0  0  0  0  0  0  0  0
    6.8377   -2.1357   -1.8204 C   0  0  0  0  0  0  0  0  0  0  0  0
    5.9897   -1.5309   -0.9316 C   0  0  0  0  0  0  0  0  0  0  0  0
    4.5995   -1.6251   -0.9807 C   0  0  0  0  0  0  0  0  0  0  0  0
    4.0301   -2.3635   -1.9719 C   0  0  0  0  0  0  0  0  0  0  0  0
    4.8643   -2.9777   -2.8717 C   0  0  0  0  0  0  0  0  0  0  0  0
    6.1804   -2.8639   -2.7911 N   0  0  0  0  0  0  0  0  0  0  0  0
    3.8034   -0.9515    0.0282 C   0  0  0  0  0  0  0  0  0  0  0  0
    2.4268   -0.9828    0.0868 C   0  0  0  0  0  0  0  0  0  0  0  0
    1.7331   -0.3252    1.0957 C   0  0  0  0  0  0  0  0  0  0  0  0
    2.4679    0.3571    2.0313 C   0  0  0  0  0  0  0  0  0  0  0  0
    3.8591    0.4015    1.9891 C   0  0  0  0  0  0  0  0  0  0  0  0
    4.4389   -0.2578    0.9872 N   0  0  0  0  0  0  0  0  0  0  0  0
    0.2679   -0.3650    1.1566 C   0  0  0  0  0  0  0  0  0  0  0  0
   -0.2597   -0.1424    2.2935 O   0  0  0  0  0  0  0  0  0  0  0  0
   -0.5469   -0.6266    0.0617 N   0  0  0  0  0  0  0  0  0  0  0  0
   -1.9630   -0.6974    0.0536 C   0  0  0  0  0  0  0  0  0  0  0  0
   -2.7058   -1.0794    1.1490 C   0  0  0  0  0  0  0  0  0  0  0  0
   -4.0959   -1.1102    1.1184 C   0  0  0  0  0  0  0  0  0  0  0  0
   -4.7643   -0.7528   -0.0302 C   0  0  0  0  0  0  0  0  0  0  0  0
   -4.0533   -0.3576   -1.1680 C   0  0  0  0  0  0  0  0  0  0  0  0
   -4.8189    0.0340   -2.3759 C   0  0  0  0  0  0  0  0  0  0  0  0
   -5.7722    1.0280   -1.9420 N   0  0  0  0  0  0  0  0  0  0  0  0
   -6.6159    1.5551   -2.9711 C   0  0  0  0  0  0  0  0  0  0  0  0
   -7.5395    2.5674   -2.2696 C   0  0  0  0  0  0  0  0  0  0  0  0
   -8.3080    1.8184   -1.2448 C   0  0  0  0  0  0  0  0  0  0  0  0
   -9.5277    1.2774   -1.6017 C   0  0  0  0  0  0  0  0  0  0  0  0
  -10.2363    0.5738   -0.6427 C   0  0  0  0  0  0  0  0  0  0  0  0
   -9.7514    0.4120    0.6274 C   0  0  0  0  0  0  0  0  0  0  0  0
  -10.2883   -0.2470    1.7264 O   0  0  0  0  0  0  0  0  0  0  0  0
   -9.2498   -0.4626    2.6736 C   0  0  0  0  0  0  0  0  0  0  0  0
   -8.3574    0.5948    2.3378 O   0  0  0  0  0  0  0  0  0  0  0  0
   -8.5350    0.9448    1.0028 C   0  0  0  0  0  0  0  0  0  0  0  0
   -7.8407    1.6409    0.0453 C   0  0  0  0  0  0  0  0  0  0  0  0
   -2.6914   -0.3473   -1.0778 C   0  0  0  0  0  0  0  0  0  0  0  0
    9.0322    3.3892    2.8548 H   0  0  0  0  0  0  0  0  0  0  0  0
    7.4416    2.6163    3.1872 H   0  0  0  0  0  0  0  0  0  0  0  0
    8.9274    2.0421    4.0784 H   0  0  0  0  0  0  0  0  0  0  0  0
    8.4771    2.8804    0.4983 H   0  0  0  0  0  0  0  0  0  0  0  0
    8.7253    1.2363   -1.3028 H   0  0  0  0  0  0  0  0  0  0  0  0
    9.1927   -1.8769    1.5848 H   0  0  0  0  0  0  0  0  0  0  0  0
    8.9428   -0.1760    3.4149 H   0  0  0  0  0  0  0  0  0  0  0  0
    8.6491   -2.7317   -2.6409 H   0  0  0  0  0  0  0  0  0  0  0  0
    6.3922   -0.9528   -0.1366 H   0  0  0  0  0  0  0  0  0  0  0  0
    2.9442   -2.4574   -2.0419 H   0  0  0  0  0  0  0  0  0  0  0  0
    4.3798   -3.5612   -3.6526 H   0  0  0  0  0  0  0  0  0  0  0  0
    1.8822   -1.5172   -0.6498 H   0  0  0  0  0  0  0  0  0  0  0  0
    2.0000    0.8945    2.8480 H   0  0  0  0  0  0  0  0  0  0  0  0
    4.4284    0.9392    2.7262 H   0  0  0  0  0  0  0  0  0  0  0  0
   -0.1070   -0.8029   -0.9043 H   0  0  0  0  0  0  0  0  0  0  0  0
   -2.2215   -1.3854    2.0828 H   0  0  0  0  0  0  0  0  0  0  0  0
   -4.6118   -1.4173    2.0064 H   0  0  0  0  0  0  0  0  0  0  0  0
   -5.8257   -0.7644   -0.0970 H   0  0  0  0  0  0  0  0  0  0  0  0
   -4.0675    0.4834   -3.0780 H   0  0  0  0  0  0  0  0  0  0  0  0
   -5.3017   -0.8051   -2.8719 H   0  0  0  0  0  0  0  0  0  0  0  0
   -5.2498    1.8350   -1.5171 H   0  0  0  0  0  0  0  0  0  0  0  0
   -6.0634    2.0794   -3.7851 H   0  0  0  0  0  0  0  0  0  0  0  0
   -7.2915    0.7869   -3.4071 H   0  0  0  0  0  0  0  0  0  0  0  0
   -8.1945    3.0961   -2.9594 H   0  0  0  0  0  0  0  0  0  0  0  0
   -6.8754    3.2656   -1.7063 H   0  0  0  0  0  0  0  0  0  0  0  0
   -9.9391    1.3924   -2.6094 H   0  0  0  0  0  0  0  0  0  0  0  0
  -11.1883    0.1574   -0.9426 H   0  0  0  0  0  0  0  0  0  0  0  0
   -9.6091   -0.4071    3.7017 H   0  0  0  0  0  0  0  0  0  0  0  0
   -8.8066   -1.4631    2.5266 H   0  0  0  0  0  0  0  0  0  0  0  0
   -6.8856    2.0692    0.3105 H   0  0  0  0  0  0  0  0  0  0  0  0
   -2.1322   -0.0481   -1.9433 H   0  0  0  0  0  0  0  0  0  0  0  0
  1  2  1  0
  2  3  2  0
  3  4  1  0
  4  5  2  0
  5  6  1  0
  6  7  2  0
  5  8  1  0
  8  9  2  0
  8 10  1  0
 10 11  1  0
 11 12  2  0
 12 13  1  0
 13 14  2  0
 14 15  1  0
 15 16  2  0
 13 17  1  0
 17 18  2  0
 18 19  1  0
 19 20  2  0
 20 21  1  0
 21 22  2  0
 19 23  1  0
 23 24  2  0
 23 25  1  0
 25 26  1  0
 26 27  2  0
 27 28  1  0
 28 29  2  0
 29 30  1  0
 30 31  1  0
 31 32  1  0
 32 33  1  0
 33 34  1  0
 34 35  1  0
 35 36  2  0
 36 37  1  0
 37 38  2  0
 38 39  1  0
 39 40  1  0
 40 41  1  0
 41 42  1  0
 42 43  2  0
 30 44  2  0
  7  2  1  0
 16 11  1  0
 22 17  1  0
 44 26  1  0
 43 35  1  0
 42 38  1  0
  1 45  1  0
  1 46  1  0
  1 47  1  0
  3 48  1  0
  4 49  1  0
  6 50  1  0
  7 51  1  0
 10 52  1  0
 12 53  1  0
 14 54  1  0
 15 55  1  0
 18 56  1  0
 20 57  1  0
 21 58  1  0
 25 59  1  0
 27 60  1  0
 28 61  1  0
 29 62  1  0
 31 63  1  0
 31 64  1  0
 32 65  1  0
 33 66  1  0
 33 67  1  0
 34 68  1  0
 34 69  1  0
 36 70  1  0
 37 71  1  0
 40 72  1  0
 40 73  1  0
 43 74  1  0
 44 75  1  0
M  END
$$$$
[H]c1c([H])c([H])c(C([H])([H])N2C([H])([H])C([H])([H])N(C(=O)c3c([H])c([H])c(Oc4c([H])c(C(F)(F)F)nc(C([H])(C(=O)N([H])c5c([H])c([H])c([H])c([N+](=O)[O-])c5[H])C([H])([H])C([H])([H])[H])c4[H])c([H])c3[H])C([H])([H])C2([H])[H])c([H])c1[H]
     RDKit          3D

 79 83  0  0  0  0  0  0  0  0999 V2000
   -6.1187    1.2991    2.1769 C   0  0  0  0  0  0  0  0  0  0  0  0
   -5.2286    1.9082    1.1550 C   0  0  0  0  0  0  0  0  0  0  0  0
   -4.9898    1.0153   -0.0717 C   0  0  0  0  0  0  0  0  0  0  0  0
   -6.2473    0.7576   -0.7548 C   0  0  0  0  0  0  0  0  0  0  0  0
   -6.3753    1.3349   -1.9109 O   0  0  0  0  0  0  0  0  0  0  0  0
   -7.3333   -0.0078   -0.3405 N   0  0  0  0  0  0  0  0  0  0  0  0
   -8.5723   -0.2164   -1.0110 C   0  0  0  0  0  0  0  0  0  0  0  0
   -8.8025   -0.0321   -2.3377 C   0  0  0  0  0  0  0  0  0  0  0  0
  -10.0653   -0.1789   -2.8780 C   0  0  0  0  0  0  0  0  0  0  0  0
  -11.1441   -0.5212   -2.0977 C   0  0  0  0  0  0  0  0  0  0  0  0
  -10.9375   -0.7161   -0.7615 C   0  0  0  0  0  0  0  0  0  0  0  0
   -9.6827   -0.5675   -0.2231 C   0  0  0  0  0  0  0  0  0  0  0  0
  -12.0330   -1.0656    0.1151 N   0  0  0  0  0  0  0  0  0  0  0  0
  -11.8067   -1.2510    1.4482 O   0  0  0  0  0  0  0  0  0  0  0  0
  -13.1976   -1.2046   -0.2944 O   0  0  0  0  0  0  0  0  0  0  0  0
   -4.1677   -0.1527    0.3109 C   0  0  0  0  0  0  0  0  0  0  0  0
   -3.0672    0.1564    1.1252 C   0  0  0  0  0  0  0  0  0  0  0  0
   -2.2204   -0.8637    1.5214 C   0  0  0  0  0  0  0  0  0  0  0  0
   -1.1408   -0.5088    2.3372 O   0  0  0  0  0  0  0  0  0  0  0  0
    0.0442   -0.1870    1.6939 C   0  0  0  0  0  0  0  0  0  0  0  0
    1.1881   -0.9160    1.9248 C   0  0  0  0  0  0  0  0  0  0  0  0
    2.3981   -0.6304    1.2917 C   0  0  0  0  0  0  0  0  0  0  0  0
    2.5116    0.4010    0.4001 C   0  0  0  0  0  0  0  0  0  0  0  0
    1.3234    1.1374    0.1854 C   0  0  0  0  0  0  0  0  0  0  0  0
    0.1352    0.8531    0.8083 C   0  0  0  0  0  0  0  0  0  0  0  0
    3.6950    0.7994   -0.3317 C   0  0  0  0  0  0  0  0  0  0  0  0
    3.4734    1.6650   -1.2877 O   0  0  0  0  0  0  0  0  0  0  0  0
    4.9911    0.3906   -0.1542 N   0  0  0  0  0  0  0  0  0  0  0  0
    5.9863    0.8932   -1.1409 C   0  0  0  0  0  0  0  0  0  0  0  0
    6.9068    1.8247   -0.3725 C   0  0  0  0  0  0  0  0  0  0  0  0
    7.5135    1.1642    0.7345 N   0  0  0  0  0  0  0  0  0  0  0  0
    8.9274    1.2854    0.7454 C   0  0  0  0  0  0  0  0  0  0  0  0
    9.7294    0.6049   -0.2651 C   0  0  0  0  0  0  0  0  0  0  0  0
   10.2258   -0.6517    0.0693 C   0  0  0  0  0  0  0  0  0  0  0  0
   11.0080   -1.3463   -0.8100 C   0  0  0  0  0  0  0  0  0  0  0  0
   11.3180   -0.8059   -2.0475 C   0  0  0  0  0  0  0  0  0  0  0  0
   10.8392    0.4133   -2.3673 C   0  0  0  0  0  0  0  0  0  0  0  0
   10.0381    1.1193   -1.4642 C   0  0  0  0  0  0  0  0  0  0  0  0
    7.1108   -0.1962    0.8768 C   0  0  0  0  0  0  0  0  0  0  0  0
    5.5727   -0.3903    0.8793 C   0  0  0  0  0  0  0  0  0  0  0  0
   -2.4753   -2.1224    1.1130 C   0  0  0  0  0  0  0  0  0  0  0  0
   -3.5746   -2.4169    0.2982 C   0  0  0  0  0  0  0  0  0  0  0  0
   -4.3710   -1.4129   -0.0634 N   0  0  0  0  0  0  0  0  0  0  0  0
   -3.8550   -3.7899   -0.1713 C   0  0  0  0  0  0  0  0  0  0  0  0
   -3.0005   -4.6658    0.4902 F   0  0  0  0  0  0  0  0  0  0  0  0
   -3.4592   -3.8630   -1.5087 F   0  0  0  0  0  0  0  0  0  0  0  0
   -5.1334   -4.2093    0.0105 F   0  0  0  0  0  0  0  0  0  0  0  0
   -5.9734    1.8888    3.1389 H   0  0  0  0  0  0  0  0  0  0  0  0
   -5.8753    0.2406    2.3912 H   0  0  0  0  0  0  0  0  0  0  0  0
   -7.1841    1.4302    1.9184 H   0  0  0  0  0  0  0  0  0  0  0  0
   -5.7499    2.8190    0.7004 H   0  0  0  0  0  0  0  0  0  0  0  0
   -4.2853    2.3242    1.4861 H   0  0  0  0  0  0  0  0  0  0  0  0
   -4.3214    1.6275   -0.7803 H   0  0  0  0  0  0  0  0  0  0  0  0
   -7.2192   -0.5224    0.5975 H   0  0  0  0  0  0  0  0  0  0  0  0
   -8.0098    0.2257   -3.0050 H   0  0  0  0  0  0  0  0  0  0  0  0
  -10.2066   -0.0153   -3.9359 H   0  0  0  0  0  0  0  0  0  0  0  0
  -12.1413   -0.6333   -2.5091 H   0  0  0  0  0  0  0  0  0  0  0  0
   -9.5060   -0.7245    0.8404 H   0  0  0  0  0  0  0  0  0  0  0  0
   -2.8688    1.1642    1.4510 H   0  0  0  0  0  0  0  0  0  0  0  0
    1.1859   -1.7415    2.6003 H   0  0  0  0  0  0  0  0  0  0  0  0
    3.2489   -1.2474    1.5029 H   0  0  0  0  0  0  0  0  0  0  0  0
    1.3761    1.9652   -0.5088 H   0  0  0  0  0  0  0  0  0  0  0  0
   -0.7337    1.4596    0.5830 H   0  0  0  0  0  0  0  0  0  0  0  0
    5.4357    1.4656   -1.8884 H   0  0  0  0  0  0  0  0  0  0  0  0
    6.5203    0.0478   -1.5797 H   0  0  0  0  0  0  0  0  0  0  0  0
    7.6391    2.2472   -1.0423 H   0  0  0  0  0  0  0  0  0  0  0  0
    6.3087    2.6903    0.0429 H   0  0  0  0  0  0  0  0  0  0  0  0
    9.3532    1.0136    1.7772 H   0  0  0  0  0  0  0  0  0  0  0  0
    9.2424    2.3914    0.6610 H   0  0  0  0  0  0  0  0  0  0  0  0
    9.9732   -1.0678    1.0374 H   0  0  0  0  0  0  0  0  0  0  0  0
   11.3709   -2.3213   -0.4736 H   0  0  0  0  0  0  0  0  0  0  0  0
   11.9596   -1.3879   -2.7194 H   0  0  0  0  0  0  0  0  0  0  0  0
   11.0721    0.8535   -3.3291 H   0  0  0  0  0  0  0  0  0  0  0  0
    9.7055    2.1076   -1.7902 H   0  0  0  0  0  0  0  0  0  0  0  0
    7.4615   -0.6735    1.8106 H   0  0  0  0  0  0  0  0  0  0  0  0
    7.4842   -0.8046    0.0268 H   0  0  0  0  0  0  0  0  0  0  0  0
    5.2323   -0.0818    1.8911 H   0  0  0  0  0  0  0  0  0  0  0  0
    5.4106   -1.4680    0.6726 H   0  0  0  0  0  0  0  0  0  0  0  0
   -1.8418   -2.9633    1.3865 H   0  0  0  0  0  0  0  0  0  0  0  0
  1  2  1  0
  2  3  1  0
  3  4  1  0
  4  5  2  0
  4  6  1  0
  6  7  1  0
  7  8  2  0
  8  9  1  0
  9 10  2  0
 10 11  1  0
 11 12  2  0
 11 13  1  0
 13 14  1  0
 13 15  2  0
  3 16  1  0
 16 17  2  0
 17 18  1  0
 18 19  1  0
 19 20  1  0
 20 21  2  0
 21 22  1  0
 22 23  2  0
 23 24  1  0
 24 25  2  0
 23 26  1  0
 26 27  2  0
 26 28  1  0
 28 29  1  0
 29 30  1  0
 30 31  1  0
 31 32  1  0
 32 33  1  0
 33 34  2  0
 34 35  1  0
 35 36  2  0
 36 37  1  0
 37 38  2  0
 31 39  1  0
 39 40  1  0
 18 41  2  0
 41 42  1  0
 42 43  2  0
 42 44  1  0
 44 45  1  0
 44 46  1  0
 44 47  1  0
 12  7  1  0
 43 16  1  0
 25 20  1  0
 40 28  1  0
 38 33  1  0
  1 48  1  0
  1 49  1  0
  1 50  1  0
  2 51  1  0
  2 52  1  0
  3 53  1  0
  6 54  1  0
  8 55  1  0
  9 56  1  0
 10 57  1  0
 12 58  1  0
 17 59  1  0
 21 60  1  0
 22 61  1  0
 24 62  1  0
 25 63  1  0
 29 64  1  0
 29 65  1  0
 30 66  1  0
 30 67  1  0
 32 68  1  0
 32 69  1  0
 34 70  1  0
 35 71  1  0
 36 72  1  0
 37 73  1  0
 38 74  1  0
 39 75  1  0
 39 76  1  0
 40 77  1  0
 40 78  1  0
 41 79  1  0
M  CHG  2  13   1  14  -1
M  END
$$$$
[H]c1c([H])c(-n2nc(N([H])C3([H])C([H])([H])C([H])([H])C([H])([H])C([H])([H])C3([H])[H])c3c([H])c(-c4nnnn4C([H])([H])C([H])([H])[H])c([H])c([H])c32)c([H])c([H])c1OC([H])([H])[H]
     RDKit          3D

 58 62  0  0  0  0  0  0  0  0999 V2000
   -2.8801   -6.2533   -0.7674 C   0  0  0  0  0  0  0  0  0  0  0  0
   -3.1090   -5.5689    0.5643 C   0  0  0  0  0  0  0  0  0  0  0  0
   -3.8977   -4.3883    0.3793 N   0  0  0  0  0  0  0  0  0  0  0  0
   -5.2688   -4.4216    0.4071 N   0  0  0  0  0  0  0  0  0  0  0  0
   -5.6943   -3.1980    0.2181 N   0  0  0  0  0  0  0  0  0  0  0  0
   -4.6467   -2.4236    0.0768 N   0  0  0  0  0  0  0  0  0  0  0  0
   -3.4807   -3.1587    0.1752 C   0  0  0  0  0  0  0  0  0  0  0  0
   -2.1923   -2.5032    0.0865 C   0  0  0  0  0  0  0  0  0  0  0  0
   -0.9995   -3.1496    0.0173 C   0  0  0  0  0  0  0  0  0  0  0  0
    0.1878   -2.4009   -0.0223 C   0  0  0  0  0  0  0  0  0  0  0  0
    0.1960   -1.0302    0.0056 C   0  0  0  0  0  0  0  0  0  0  0  0
    1.1580   -0.0766   -0.0185 N   0  0  0  0  0  0  0  0  0  0  0  0
    0.5831    1.1126    0.0330 N   0  0  0  0  0  0  0  0  0  0  0  0
   -0.7533    0.9805    0.0916 C   0  0  0  0  0  0  0  0  0  0  0  0
   -1.7427    2.0163    0.1593 N   0  0  0  0  0  0  0  0  0  0  0  0
   -1.2784    3.3795    0.1667 C   0  0  0  0  0  0  0  0  0  0  0  0
   -0.5066    3.6489   -1.0889 C   0  0  0  0  0  0  0  0  0  0  0  0
   -0.6971    5.1074   -1.4621 C   0  0  0  0  0  0  0  0  0  0  0  0
   -0.7108    5.9280   -0.1858 C   0  0  0  0  0  0  0  0  0  0  0  0
   -2.0092    5.7160    0.5618 C   0  0  0  0  0  0  0  0  0  0  0  0
   -2.4758    4.2944    0.2953 C   0  0  0  0  0  0  0  0  0  0  0  0
   -1.0044   -0.3612    0.0748 C   0  0  0  0  0  0  0  0  0  0  0  0
   -2.1391   -1.0940    0.1124 C   0  0  0  0  0  0  0  0  0  0  0  0
    2.5534   -0.3228   -0.0877 C   0  0  0  0  0  0  0  0  0  0  0  0
    3.4266    0.1735    0.8532 C   0  0  0  0  0  0  0  0  0  0  0  0
    4.7980   -0.0838    0.7621 C   0  0  0  0  0  0  0  0  0  0  0  0
    5.3016   -0.8413   -0.2743 C   0  0  0  0  0  0  0  0  0  0  0  0
    6.6514   -1.1299   -0.4173 O   0  0  0  0  0  0  0  0  0  0  0  0
    7.5709   -0.6374    0.5280 C   0  0  0  0  0  0  0  0  0  0  0  0
    4.4407   -1.3463   -1.2255 C   0  0  0  0  0  0  0  0  0  0  0  0
    3.1099   -1.0841   -1.1183 C   0  0  0  0  0  0  0  0  0  0  0  0
   -3.8208   -6.7376   -1.0804 H   0  0  0  0  0  0  0  0  0  0  0  0
   -2.0121   -6.9341   -0.7376 H   0  0  0  0  0  0  0  0  0  0  0  0
   -2.6892   -5.4198   -1.5041 H   0  0  0  0  0  0  0  0  0  0  0  0
   -3.7226   -6.3447    1.1451 H   0  0  0  0  0  0  0  0  0  0  0  0
   -2.1879   -5.4992    1.1060 H   0  0  0  0  0  0  0  0  0  0  0  0
   -0.8823   -4.2203   -0.0256 H   0  0  0  0  0  0  0  0  0  0  0  0
    1.1260   -2.9341   -0.0767 H   0  0  0  0  0  0  0  0  0  0  0  0
   -2.7452    1.7693    0.2004 H   0  0  0  0  0  0  0  0  0  0  0  0
   -0.6171    3.5680    1.0220 H   0  0  0  0  0  0  0  0  0  0  0  0
   -0.8180    3.0220   -1.9445 H   0  0  0  0  0  0  0  0  0  0  0  0
    0.5928    3.5035   -0.9735 H   0  0  0  0  0  0  0  0  0  0  0  0
   -1.6445    5.2595   -2.0170 H   0  0  0  0  0  0  0  0  0  0  0  0
    0.1549    5.4206   -2.0782 H   0  0  0  0  0  0  0  0  0  0  0  0
   -0.5825    6.9936   -0.4232 H   0  0  0  0  0  0  0  0  0  0  0  0
    0.0991    5.5686    0.4794 H   0  0  0  0  0  0  0  0  0  0  0  0
   -2.8152    6.3920    0.2238 H   0  0  0  0  0  0  0  0  0  0  0  0
   -1.8996    5.8747    1.6578 H   0  0  0  0  0  0  0  0  0  0  0  0
   -3.0443    3.9540    1.1940 H   0  0  0  0  0  0  0  0  0  0  0  0
   -3.1111    4.2918   -0.6050 H   0  0  0  0  0  0  0  0  0  0  0  0
   -3.0862   -0.5369    0.1684 H   0  0  0  0  0  0  0  0  0  0  0  0
    3.0760    0.7747    1.6863 H   0  0  0  0  0  0  0  0  0  0  0  0
    5.4528    0.3133    1.5055 H   0  0  0  0  0  0  0  0  0  0  0  0
    7.4067   -1.1534    1.4973 H   0  0  0  0  0  0  0  0  0  0  0  0
    7.4844    0.4476    0.6648 H   0  0  0  0  0  0  0  0  0  0  0  0
    8.5910   -0.8406    0.1380 H   0  0  0  0  0  0  0  0  0  0  0  0
    4.7912   -1.9507   -2.0637 H   0  0  0  0  0  0  0  0  0  0  0  0
    2.4130   -1.4651   -1.8463 H   0  0  0  0  0  0  0  0  0  0  0  0
  1  2  1  0
  2  3  1  0
  3  4  1  0
  4  5  2  0
  5  6  1  0
  6  7  2  0
  7  8  1  0
  8  9  2  0
  9 10  1  0
 10 11  2  0
 11 12  1  0
 12 13  1  0
 13 14  2  0
 14 15  1  0
 15 16  1  0
 16 17  1  0
 17 18  1  0
 18 19  1  0
 19 20  1  0
 20 21  1  0
 14 22  1  0
 22 23  2  0
 12 24  1  0
 24 25  2  0
 25 26  1  0
 26 27  2  0
 27 28  1  0
 28 29  1  0
 27 30  1  0
 30 31  2  0
  7  3  1  0
 23  8  1  0
 31 24  1  0
 22 11  1  0
 21 16  1  0
  1 32  1  0
  1 33  1  0
  1 34  1  0
  2 35  1  0
  2 36  1  0
  9 37  1  0
 10 38  1  0
 15 39  1  0
 16 40  1  0
 17 41  1  0
 17 42  1  0
 18 43  1  0
 18 44  1  0
 19 45  1  0
 19 46  1  0
 20 47  1  0
 20 48  1  0
 21 49  1  0
 21 50  1  0
 23 51  1  0
 25 52  1  0
 26 53  1  0
 29 54  1  0
 29 55  1  0
 29 56  1  0
 30 57  1  0
 31 58  1  0
M  END
$$$$
[H]OC(=O)c1nc([H])c(N([H])c2nc([H])c(C3([H])C([H])([H])C([H])([H])N(C([H])([H])[H])C([H])([H])C3([H])[H])c([H])c2[H])c(-c2c([H])nc(N3C([H])([H])C([H])([H])OC([H])([H])C3([H])[H])c([H])c2[H])n1
     RDKit          3D

 64 68  0  0  0  0  0  0  0  0999 V2000
    8.2621    2.8112    0.5883 C   0  0  0  0  0  0  0  0  0  0  0  0
    7.1115    2.0082    0.2971 N   0  0  0  0  0  0  0  0  0  0  0  0
    6.8890    0.9700    1.2827 C   0  0  0  0  0  0  0  0  0  0  0  0
    5.5054    0.3783    1.1842 C   0  0  0  0  0  0  0  0  0  0  0  0
    4.9113    0.5405   -0.1968 C   0  0  0  0  0  0  0  0  0  0  0  0
    4.9231    1.9731   -0.6557 C   0  0  0  0  0  0  0  0  0  0  0  0
    5.8994    2.7914    0.1630 C   0  0  0  0  0  0  0  0  0  0  0  0
    3.5471   -0.0456   -0.1534 C   0  0  0  0  0  0  0  0  0  0  0  0
    3.2163   -1.1370   -0.8954 C   0  0  0  0  0  0  0  0  0  0  0  0
    1.9131   -1.6456   -0.8118 C   0  0  0  0  0  0  0  0  0  0  0  0
    0.9643   -1.0890   -0.0131 C   0  0  0  0  0  0  0  0  0  0  0  0
   -0.3211   -1.5980    0.1473 N   0  0  0  0  0  0  0  0  0  0  0  0
   -0.7862   -2.8527   -0.2493 C   0  0  0  0  0  0  0  0  0  0  0  0
   -0.0048   -4.0009   -0.2590 C   0  0  0  0  0  0  0  0  0  0  0  0
   -0.5782   -5.1951   -0.5324 N   0  0  0  0  0  0  0  0  0  0  0  0
   -1.8845   -5.3057   -0.7939 C   0  0  0  0  0  0  0  0  0  0  0  0
   -2.6505   -4.2085   -0.7873 N   0  0  0  0  0  0  0  0  0  0  0  0
   -2.1525   -2.9855   -0.5261 C   0  0  0  0  0  0  0  0  0  0  0  0
   -2.9832   -1.8088   -0.5338 C   0  0  0  0  0  0  0  0  0  0  0  0
   -2.7074   -0.6392   -1.1974 C   0  0  0  0  0  0  0  0  0  0  0  0
   -3.5649    0.4542   -1.1550 C   0  0  0  0  0  0  0  0  0  0  0  0
   -4.7395    0.3788   -0.4247 C   0  0  0  0  0  0  0  0  0  0  0  0
   -4.9946   -0.7598    0.2134 N   0  0  0  0  0  0  0  0  0  0  0  0
   -4.1672   -1.8387    0.1827 C   0  0  0  0  0  0  0  0  0  0  0  0
   -5.6532    1.4538   -0.3402 N   0  0  0  0  0  0  0  0  0  0  0  0
   -5.4267    2.7245   -0.9774 C   0  0  0  0  0  0  0  0  0  0  0  0
   -6.1440    3.8780   -0.3632 C   0  0  0  0  0  0  0  0  0  0  0  0
   -7.2887    3.5747    0.3286 O   0  0  0  0  0  0  0  0  0  0  0  0
   -7.0624    2.5328    1.2553 C   0  0  0  0  0  0  0  0  0  0  0  0
   -6.8793    1.2876    0.4146 C   0  0  0  0  0  0  0  0  0  0  0  0
   -2.4949   -6.5898   -1.0853 C   0  0  0  0  0  0  0  0  0  0  0  0
   -3.8508   -6.6565   -1.3503 O   0  0  0  0  0  0  0  0  0  0  0  0
   -1.7602   -7.6156   -1.0875 O   0  0  0  0  0  0  0  0  0  0  0  0
    1.3180    0.0080    0.7231 N   0  0  0  0  0  0  0  0  0  0  0  0
    2.5509    0.4970    0.6490 C   0  0  0  0  0  0  0  0  0  0  0  0
    9.0689    2.5397   -0.1509 H   0  0  0  0  0  0  0  0  0  0  0  0
    8.0735    3.8964    0.6030 H   0  0  0  0  0  0  0  0  0  0  0  0
    8.6253    2.5441    1.6171 H   0  0  0  0  0  0  0  0  0  0  0  0
    7.6560    0.1853    1.1387 H   0  0  0  0  0  0  0  0  0  0  0  0
    7.0088    1.3708    2.3083 H   0  0  0  0  0  0  0  0  0  0  0  0
    5.5998   -0.7114    1.3712 H   0  0  0  0  0  0  0  0  0  0  0  0
    4.8487    0.8409    1.9399 H   0  0  0  0  0  0  0  0  0  0  0  0
    5.5215   -0.0595   -0.9036 H   0  0  0  0  0  0  0  0  0  0  0  0
    5.2947    2.0359   -1.7201 H   0  0  0  0  0  0  0  0  0  0  0  0
    3.9331    2.4656   -0.5822 H   0  0  0  0  0  0  0  0  0  0  0  0
    6.1451    3.7220   -0.4051 H   0  0  0  0  0  0  0  0  0  0  0  0
    5.4330    3.0530    1.1160 H   0  0  0  0  0  0  0  0  0  0  0  0
    3.9643   -1.5821   -1.5280 H   0  0  0  0  0  0  0  0  0  0  0  0
    1.7207   -2.4969   -1.4787 H   0  0  0  0  0  0  0  0  0  0  0  0
   -1.0066   -0.9349    0.6556 H   0  0  0  0  0  0  0  0  0  0  0  0
    1.0606   -3.9767   -0.0111 H   0  0  0  0  0  0  0  0  0  0  0  0
   -1.7838   -0.5764   -1.7732 H   0  0  0  0  0  0  0  0  0  0  0  0
   -3.3315    1.3716   -1.6865 H   0  0  0  0  0  0  0  0  0  0  0  0
   -4.4827   -2.7031    0.7397 H   0  0  0  0  0  0  0  0  0  0  0  0
   -4.3237    2.9447   -0.8690 H   0  0  0  0  0  0  0  0  0  0  0  0
   -5.6490    2.5947   -2.0652 H   0  0  0  0  0  0  0  0  0  0  0  0
   -6.4538    4.5644   -1.2057 H   0  0  0  0  0  0  0  0  0  0  0  0
   -5.4924    4.5091    0.2805 H   0  0  0  0  0  0  0  0  0  0  0  0
   -7.9040    2.4671    1.9536 H   0  0  0  0  0  0  0  0  0  0  0  0
   -6.1208    2.7435    1.8329 H   0  0  0  0  0  0  0  0  0  0  0  0
   -6.8521    0.3758    1.0479 H   0  0  0  0  0  0  0  0  0  0  0  0
   -7.7685    1.2594   -0.2820 H   0  0  0  0  0  0  0  0  0  0  0  0
   -4.5394   -6.1156   -0.8134 H   0  0  0  0  0  0  0  0  0  0  0  0
    2.8372    1.3823    1.2429 H   0  0  0  0  0  0  0  0  0  0  0  0
  1  2  1  0
  2  3  1  0
  3  4  1  0
  4  5  1  0
  5  6  1  0
  6  7  1  0
  5  8  1  0
  8  9  2  0
  9 10  1  0
 10 11  2  0
 11 12  1  0
 12 13  1  0
 13 14  2  0
 14 15  1  0
 15 16  2  0
 16 17  1  0
 17 18  2  0
 18 19  1  0
 19 20  2  0
 20 21  1  0
 21 22  2  0
 22 23  1  0
 23 24  2  0
 22 25  1  0
 25 26  1  0
 26 27  1  0
 27 28  1  0
 28 29  1  0
 29 30  1  0
 16 31  1  0
 31 32  1  0
 31 33  2  0
 11 34  1  0
 34 35  2  0
  7  2  1  0
 35  8  1  0
 18 13  1  0
 24 19  1  0
 30 25  1  0
  1 36  1  0
  1 37  1  0
  1 38  1  0
  3 39  1  0
  3 40  1  0
  4 41  1  0
  4 42  1  0
  5 43  1  0
  6 44  1  0
  6 45  1  0
  7 46  1  0
  7 47  1  0
  9 48  1  0
 10 49  1  0
 12 50  1  0
 14 51  1  0
 20 52  1  0
 21 53  1  0
 24 54  1  0
 26 55  1  0
 26 56  1  0
 27 57  1  0
 27 58  1  0
 29 59  1  0
 29 60  1  0
 30 61  1  0
 30 62  1  0
 32 63  1  0
 35 64  1  0
M  END
$$$$
[H]c1nc([C@@]2([H])C([H])([H])N(C([H])([H])[H])C([H])([H])[C@]2([H])C(C([H])([H])[H])(C([H])([H])[H])C([H])([H])C(=O)N([H])C([H])([H])c2c([H])c(Cl)c([H])c([H])c2Cl)c([H])c([H])c1Cl
     RDKit          3D

 55 57  0  0  0  0  0  0  0  0999 V2000
   -0.4765    0.3523   -1.8949 C   0  0  0  0  0  0  0  0  0  0  0  0
   -0.3835    0.8839   -0.4785 C   0  0  0  0  0  0  0  0  0  0  0  0
    0.2534    2.2282   -0.4834 C   0  0  0  0  0  0  0  0  0  0  0  0
    0.5290   -0.0687    0.2774 C   0  0  0  0  0  0  0  0  0  0  0  0
    1.8671   -0.1371   -0.3174 C   0  0  0  0  0  0  0  0  0  0  0  0
    2.1734    0.5466   -1.3272 O   0  0  0  0  0  0  0  0  0  0  0  0
    2.9086   -0.9766    0.2007 N   0  0  0  0  0  0  0  0  0  0  0  0
    4.2048   -1.0455   -0.3733 C   0  0  0  0  0  0  0  0  0  0  0  0
    5.1610   -1.9485    0.2604 C   0  0  0  0  0  0  0  0  0  0  0  0
    4.9203   -2.7386    1.3700 C   0  0  0  0  0  0  0  0  0  0  0  0
    5.8769   -3.5706    1.9180 C   0  0  0  0  0  0  0  0  0  0  0  0
    5.5184   -4.5475    3.3211 Cl  0  0  0  0  0  0  0  0  0  0  0  0
    7.1119   -3.6266    1.3543 C   0  0  0  0  0  0  0  0  0  0  0  0
    7.3686   -2.8458    0.2482 C   0  0  0  0  0  0  0  0  0  0  0  0
    6.4405   -2.0145   -0.3135 C   0  0  0  0  0  0  0  0  0  0  0  0
    6.7827   -1.0291   -1.7208 Cl  0  0  0  0  0  0  0  0  0  0  0  0
   -1.7291    0.8570    0.2082 C   0  0  1  0  0  0  0  0  0  0  0  0
   -1.4902    1.4139    1.6230 C   0  0  0  0  0  0  0  0  0  0  0  0
   -2.7462    1.9589    2.0291 N   0  0  0  0  0  0  0  0  0  0  0  0
   -3.4712    1.0132    2.8145 C   0  0  0  0  0  0  0  0  0  0  0  0
   -3.3800    2.4182    0.8526 C   0  0  0  0  0  0  0  0  0  0  0  0
   -2.7402    1.7837   -0.3695 C   0  0  2  0  0  0  0  0  0  0  0  0
   -3.8177    1.1613   -1.1420 C   0  0  0  0  0  0  0  0  0  0  0  0
   -4.5082    0.0391   -0.7711 C   0  0  0  0  0  0  0  0  0  0  0  0
   -5.5187   -0.4993   -1.5331 C   0  0  0  0  0  0  0  0  0  0  0  0
   -5.8780    0.0836   -2.7188 C   0  0  0  0  0  0  0  0  0  0  0  0
   -7.1528   -0.5937   -3.6837 Cl  0  0  0  0  0  0  0  0  0  0  0  0
   -5.1762    1.2191   -3.0898 C   0  0  0  0  0  0  0  0  0  0  0  0
   -4.1935    1.7118   -2.3126 N   0  0  0  0  0  0  0  0  0  0  0  0
   -1.4937    0.3414   -2.2980 H   0  0  0  0  0  0  0  0  0  0  0  0
   -0.0269   -0.6713   -1.9928 H   0  0  0  0  0  0  0  0  0  0  0  0
    0.1241    0.9828   -2.6140 H   0  0  0  0  0  0  0  0  0  0  0  0
   -0.4274    3.0644   -0.2263 H   0  0  0  0  0  0  0  0  0  0  0  0
    0.6205    2.4512   -1.5067 H   0  0  0  0  0  0  0  0  0  0  0  0
    1.1015    2.2973    0.2586 H   0  0  0  0  0  0  0  0  0  0  0  0
    0.6349    0.2572    1.3413 H   0  0  0  0  0  0  0  0  0  0  0  0
    0.1181   -1.0976    0.3089 H   0  0  0  0  0  0  0  0  0  0  0  0
    2.6514   -1.5332    1.0263 H   0  0  0  0  0  0  0  0  0  0  0  0
    4.6456   -0.0052   -0.2681 H   0  0  0  0  0  0  0  0  0  0  0  0
    4.1663   -1.1861   -1.4830 H   0  0  0  0  0  0  0  0  0  0  0  0
    3.9476   -2.7211    1.8470 H   0  0  0  0  0  0  0  0  0  0  0  0
    7.8733   -4.2854    1.7860 H   0  0  0  0  0  0  0  0  0  0  0  0
    8.3514   -2.8782   -0.2157 H   0  0  0  0  0  0  0  0  0  0  0  0
   -2.0310   -0.1796    0.3321 H   0  0  0  0  0  0  0  0  0  0  0  0
   -0.7518    2.2319    1.6028 H   0  0  0  0  0  0  0  0  0  0  0  0
   -1.2090    0.6056    2.3285 H   0  0  0  0  0  0  0  0  0  0  0  0
   -3.3403   -0.0101    2.3755 H   0  0  0  0  0  0  0  0  0  0  0  0
   -4.5463    1.2587    2.9294 H   0  0  0  0  0  0  0  0  0  0  0  0
   -3.0265    0.9589    3.8289 H   0  0  0  0  0  0  0  0  0  0  0  0
   -4.4648    2.1728    0.9269 H   0  0  0  0  0  0  0  0  0  0  0  0
   -3.3055    3.5258    0.8251 H   0  0  0  0  0  0  0  0  0  0  0  0
   -2.2721    2.5800   -1.0171 H   0  0  0  0  0  0  0  0  0  0  0  0
   -4.2633   -0.4575    0.1528 H   0  0  0  0  0  0  0  0  0  0  0  0
   -6.0565   -1.3994   -1.2133 H   0  0  0  0  0  0  0  0  0  0  0  0
   -5.4742    1.6681   -4.0321 H   0  0  0  0  0  0  0  0  0  0  0  0
  1  2  1  0
  2  3  1  0
  2  4  1  0
  4  5  1  0
  5  6  2  0
  5  7  1  0
  7  8  1  0
  8  9  1  0
  9 10  2  0
 10 11  1  0
 11 12  1  0
 11 13  2  0
 13 14  1  0
 14 15  2  0
 15 16  1  0
  2 17  1  0
 17 18  1  0
 18 19  1  0
 19 20  1  0
 19 21  1  0
 21 22  1  0
 22 23  1  0
 23 24  2  0
 24 25  1  0
 25 26  2  0
 26 27  1  0
 26 28  1  0
 28 29  2  0
 15  9  1  0
 22 17  1  0
 29 23  1  0
  1 30  1  0
  1 31  1  0
  1 32  1  0
  3 33  1  0
  3 34  1  0
  3 35  1  0
  4 36  1  0
  4 37  1  0
  7 38  1  0
  8 39  1  0
  8 40  1  0
 10 41  1  0
 13 42  1  0
 14 43  1  0
 17 44  1  1
 18 45  1  0
 18 46  1  0
 20 47  1  0
 20 48  1  0
 20 49  1  0
 21 50  1  0
 21 51  1  0
 22 52  1  6
 24 53  1  0
 25 54  1  0
 28 55  1  0
M  END
$$$$
[H]c1nc(N([H])[H])c([H])c(-c2c([H])c([H])c(C(=O)N([H])c3c([H])c([H])c(N(C([H])([H])[H])S(=O)(=O)c4c([H])c([H])c(F)c([H])c4[H])c([H])c3F)c([H])c2[H])c1[H]
     RDKit          3D

 55 58  0  0  0  0  0  0  0  0999 V2000
    5.5453    2.1035   -1.4745 C   0  0  0  0  0  0  0  0  0  0  0  0
    4.8747    1.5506   -0.3144 N   0  0  0  0  0  0  0  0  0  0  0  0
    3.4667    1.3317   -0.2736 C   0  0  0  0  0  0  0  0  0  0  0  0
    2.9161    0.1372   -0.6737 C   0  0  0  0  0  0  0  0  0  0  0  0
    1.5295   -0.0652   -0.6257 C   0  0  0  0  0  0  0  0  0  0  0  0
    0.6537    0.8825   -0.1909 C   0  0  0  0  0  0  0  0  0  0  0  0
   -0.7533    0.7711   -0.1068 N   0  0  0  0  0  0  0  0  0  0  0  0
   -1.5132   -0.3439   -0.4539 C   0  0  0  0  0  0  0  0  0  0  0  0
   -1.0374   -1.4073   -0.8897 O   0  0  0  0  0  0  0  0  0  0  0  0
   -2.9693   -0.3012   -0.3100 C   0  0  0  0  0  0  0  0  0  0  0  0
   -3.6419   -1.4901   -0.2116 C   0  0  0  0  0  0  0  0  0  0  0  0
   -5.0036   -1.4747   -0.0811 C   0  0  0  0  0  0  0  0  0  0  0  0
   -5.7483   -0.3157   -0.0424 C   0  0  0  0  0  0  0  0  0  0  0  0
   -5.0666    0.8738   -0.1420 C   0  0  0  0  0  0  0  0  0  0  0  0
   -3.6860    0.8830   -0.2751 C   0  0  0  0  0  0  0  0  0  0  0  0
   -7.2016   -0.3285    0.0985 C   0  0  0  0  0  0  0  0  0  0  0  0
   -7.8262    0.7037    0.7495 C   0  0  0  0  0  0  0  0  0  0  0  0
   -9.2126    0.6437    0.8573 C   0  0  0  0  0  0  0  0  0  0  0  0
   -9.8980   -0.3970    0.3356 N   0  0  0  0  0  0  0  0  0  0  0  0
   -9.3076   -1.4156   -0.3041 C   0  0  0  0  0  0  0  0  0  0  0  0
  -10.0733   -2.4900   -0.8363 N   0  0  0  0  0  0  0  0  0  0  0  0
   -7.9376   -1.3913   -0.4306 C   0  0  0  0  0  0  0  0  0  0  0  0
    1.2345    2.0974    0.2140 C   0  0  0  0  0  0  0  0  0  0  0  0
    0.4198    3.0886    0.6595 F   0  0  0  0  0  0  0  0  0  0  0  0
    2.5928    2.2988    0.1682 C   0  0  0  0  0  0  0  0  0  0  0  0
    5.8138    1.1460    1.0641 S   0  0  0  0  0  0  0  0  0  0  0  0
    4.9276    0.6481    2.1919 O   0  0  0  0  0  0  0  0  0  0  0  0
    6.5680    2.3234    1.6119 O   0  0  0  0  0  0  0  0  0  0  0  0
    6.9933   -0.0909    0.6691 C   0  0  0  0  0  0  0  0  0  0  0  0
    8.2714    0.2378    0.2342 C   0  0  0  0  0  0  0  0  0  0  0  0
    9.2055   -0.7272   -0.0795 C   0  0  0  0  0  0  0  0  0  0  0  0
    8.9019   -2.0691    0.0281 C   0  0  0  0  0  0  0  0  0  0  0  0
    9.8325   -3.0245   -0.2846 F   0  0  0  0  0  0  0  0  0  0  0  0
    7.6376   -2.4113    0.4583 C   0  0  0  0  0  0  0  0  0  0  0  0
    6.7078   -1.4414    0.7705 C   0  0  0  0  0  0  0  0  0  0  0  0
    4.8093    2.6310   -2.1126 H   0  0  0  0  0  0  0  0  0  0  0  0
    6.2534    2.9048   -1.1213 H   0  0  0  0  0  0  0  0  0  0  0  0
    6.0530    1.3473   -2.0887 H   0  0  0  0  0  0  0  0  0  0  0  0
    3.5753   -0.6443   -1.0270 H   0  0  0  0  0  0  0  0  0  0  0  0
    1.1847   -1.0247   -0.9558 H   0  0  0  0  0  0  0  0  0  0  0  0
   -1.3203    1.6062    0.2600 H   0  0  0  0  0  0  0  0  0  0  0  0
   -3.1379   -2.4599   -0.2324 H   0  0  0  0  0  0  0  0  0  0  0  0
   -5.5273   -2.4128   -0.0044 H   0  0  0  0  0  0  0  0  0  0  0  0
   -5.6034    1.8179   -0.1173 H   0  0  0  0  0  0  0  0  0  0  0  0
   -3.1930    1.8390   -0.3544 H   0  0  0  0  0  0  0  0  0  0  0  0
   -7.2622    1.5187    1.1553 H   0  0  0  0  0  0  0  0  0  0  0  0
   -9.7225    1.4432    1.3645 H   0  0  0  0  0  0  0  0  0  0  0  0
   -9.6647   -3.1814   -1.4875 H   0  0  0  0  0  0  0  0  0  0  0  0
  -11.0743   -2.5952   -0.5713 H   0  0  0  0  0  0  0  0  0  0  0  0
   -7.4569   -2.2172   -0.9495 H   0  0  0  0  0  0  0  0  0  0  0  0
    3.0496    3.2393    0.4808 H   0  0  0  0  0  0  0  0  0  0  0  0
    8.4958    1.2881    0.1545 H   0  0  0  0  0  0  0  0  0  0  0  0
   10.2072   -0.4446   -0.4201 H   0  0  0  0  0  0  0  0  0  0  0  0
    7.4140   -3.4667    0.5376 H   0  0  0  0  0  0  0  0  0  0  0  0
    5.7041   -1.7248    1.1122 H   0  0  0  0  0  0  0  0  0  0  0  0
  1  2  1  0
  2  3  1  0
  3  4  2  0
  4  5  1  0
  5  6  2  0
  6  7  1  0
  7  8  1  0
  8  9  2  0
  8 10  1  0
 10 11  2  0
 11 12  1  0
 12 13  2  0
 13 14  1  0
 14 15  2  0
 13 16  1  0
 16 17  2  0
 17 18  1  0
 18 19  2  0
 19 20  1  0
 20 21  1  0
 20 22  2  0
  6 23  1  0
 23 24  1  0
 23 25  2  0
  2 26  1  0
 26 27  2  0
 26 28  2  0
 26 29  1  0
 29 30  2  0
 30 31  1  0
 31 32  2  0
 32 33  1  0
 32 34  1  0
 34 35  2  0
 25  3  1  0
 35 29  1  0
 15 10  1  0
 22 16  1  0
  1 36  1  0
  1 37  1  0
  1 38  1  0
  4 39  1  0
  5 40  1  0
  7 41  1  0
 11 42  1  0
 12 43  1  0
 14 44  1  0
 15 45  1  0
 17 46  1  0
 18 47  1  0
 21 48  1  0
 21 49  1  0
 22 50  1  0
 25 51  1  0
 30 52  1  0
 31 53  1  0
 34 54  1  0
 35 55  1  0
M  END
$$$$
[H]/C(=C(/c1nc([H])c([H])c([H])c1C1([H])C([H])([H])C1([H])[H])C([H])([H])[H])c1nc(C(=O)N([H])c2nc(C(F)(F)F)c([H])c([H])c2[H])c(N([H])[H])nc1[H]
     RDKit          3D

 51 54  0  0  0  0  0  0  0  0999 V2000
   -2.8039   -2.4012   -1.3598 C   0  0  0  0  0  0  0  0  0  0  0  0
   -2.4032   -1.1162   -0.6051 C   0  0  0  0  0  0  0  0  0  0  0  0
   -1.2414   -1.1039   -0.0186 C   0  0  0  0  0  0  0  0  0  0  0  0
   -0.6694   -0.0273    0.7378 C   0  0  0  0  0  0  0  0  0  0  0  0
   -1.2563    0.8345    1.5818 C   0  0  0  0  0  0  0  0  0  0  0  0
   -0.5692    1.8341    2.1924 N   0  0  0  0  0  0  0  0  0  0  0  0
    0.7483    2.0216    1.9938 C   0  0  0  0  0  0  0  0  0  0  0  0
    1.4828    3.1027    2.5711 N   0  0  0  0  0  0  0  0  0  0  0  0
    1.3554    1.1360    1.1404 C   0  0  0  0  0  0  0  0  0  0  0  0
    0.6790    0.1475    0.5275 N   0  0  0  0  0  0  0  0  0  0  0  0
    2.8388    1.1326    0.9521 C   0  0  0  0  0  0  0  0  0  0  0  0
    3.4185    2.0400    1.6185 O   0  0  0  0  0  0  0  0  0  0  0  0
    3.4835    0.2294    0.1514 N   0  0  0  0  0  0  0  0  0  0  0  0
    4.8323    0.0090   -0.1317 C   0  0  0  0  0  0  0  0  0  0  0  0
    5.8288    0.7731    0.4025 C   0  0  0  0  0  0  0  0  0  0  0  0
    7.1886    0.4898    0.1354 C   0  0  0  0  0  0  0  0  0  0  0  0
    7.4916   -0.5722   -0.6702 C   0  0  0  0  0  0  0  0  0  0  0  0
    6.4898   -1.3564   -1.2129 C   0  0  0  0  0  0  0  0  0  0  0  0
    5.2184   -1.0363   -0.9250 N   0  0  0  0  0  0  0  0  0  0  0  0
    6.8118   -2.5348   -2.0771 C   0  0  0  0  0  0  0  0  0  0  0  0
    6.1711   -3.6677   -1.5784 F   0  0  0  0  0  0  0  0  0  0  0  0
    8.1819   -2.7313   -2.0699 F   0  0  0  0  0  0  0  0  0  0  0  0
    6.3203   -2.2718   -3.3312 F   0  0  0  0  0  0  0  0  0  0  0  0
   -3.2044    0.0799   -0.6730 C   0  0  0  0  0  0  0  0  0  0  0  0
   -2.7104    1.2540   -1.1552 N   0  0  0  0  0  0  0  0  0  0  0  0
   -3.3679    2.4180   -1.0493 C   0  0  0  0  0  0  0  0  0  0  0  0
   -4.6193    2.4894   -0.4219 C   0  0  0  0  0  0  0  0  0  0  0  0
   -5.1229    1.2997    0.0693 C   0  0  0  0  0  0  0  0  0  0  0  0
   -4.4532    0.0999   -0.0390 C   0  0  0  0  0  0  0  0  0  0  0  0
   -5.1204   -1.1070    0.4950 C   0  0  0  0  0  0  0  0  0  0  0  0
   -6.0433   -1.1318    1.6377 C   0  0  0  0  0  0  0  0  0  0  0  0
   -6.6551   -1.0394    0.2889 C   0  0  0  0  0  0  0  0  0  0  0  0
   -2.8620   -3.1734   -0.5956 H   0  0  0  0  0  0  0  0  0  0  0  0
   -3.6666   -2.1905   -1.9690 H   0  0  0  0  0  0  0  0  0  0  0  0
   -1.9331   -2.6329   -2.0610 H   0  0  0  0  0  0  0  0  0  0  0  0
   -0.6213   -2.0362   -0.0941 H   0  0  0  0  0  0  0  0  0  0  0  0
   -2.3134    0.7018    1.8046 H   0  0  0  0  0  0  0  0  0  0  0  0
    1.6511    3.1778    3.5739 H   0  0  0  0  0  0  0  0  0  0  0  0
    1.8954    3.8836    1.9776 H   0  0  0  0  0  0  0  0  0  0  0  0
    2.8077   -0.4808   -0.3584 H   0  0  0  0  0  0  0  0  0  0  0  0
    5.6469    1.6275    1.0501 H   0  0  0  0  0  0  0  0  0  0  0  0
    8.0110    1.0437    0.5276 H   0  0  0  0  0  0  0  0  0  0  0  0
    8.5529   -0.8228   -0.8869 H   0  0  0  0  0  0  0  0  0  0  0  0
   -2.9755    3.3376   -1.4464 H   0  0  0  0  0  0  0  0  0  0  0  0
   -5.1501    3.4203   -0.3313 H   0  0  0  0  0  0  0  0  0  0  0  0
   -6.1091    1.3838    0.5830 H   0  0  0  0  0  0  0  0  0  0  0  0
   -4.7483   -2.1089    0.1344 H   0  0  0  0  0  0  0  0  0  0  0  0
   -6.1449   -0.2542    2.3042 H   0  0  0  0  0  0  0  0  0  0  0  0
   -6.0761   -2.1166    2.1877 H   0  0  0  0  0  0  0  0  0  0  0  0
   -7.1616   -1.9394   -0.1494 H   0  0  0  0  0  0  0  0  0  0  0  0
   -7.1035   -0.1143   -0.0682 H   0  0  0  0  0  0  0  0  0  0  0  0
  1  2  1  0
  2  3  2  0
  3  4  1  0
  4  5  2  0
  5  6  1  0
  6  7  2  0
  7  8  1  0
  7  9  1  0
  9 10  2  0
  9 11  1  0
 11 12  2  0
 11 13  1  0
 13 14  1  0
 14 15  2  0
 15 16  1  0
 16 17  2  0
 17 18  1  0
 18 19  2  0
 18 20  1  0
 20 21  1  0
 20 22  1  0
 20 23  1  0
  2 24  1  0
 24 25  2  0
 25 26  1  0
 26 27  2  0
 27 28  1  0
 28 29  2  0
 29 30  1  0
 30 31  1  0
 31 32  1  0
 10  4  1  0
 19 14  1  0
 29 24  1  0
 32 30  1  0
  1 33  1  0
  1 34  1  0
  1 35  1  0
  3 36  1  0
  5 37  1  0
  8 38  1  0
  8 39  1  0
 13 40  1  0
 15 41  1  0
 16 42  1  0
 17 43  1  0
 26 44  1  0
 27 45  1  0
 28 46  1  0
 30 47  1  0
 31 48  1  0
 31 49  1  0
 32 50  1  0
 32 51  1  0
M  END
$$$$
[H]c1c([H])c(Cl)c([H])c(N2C([H])([H])C([H])([H])N(C(=O)C([H])([H])c3c([H])c([H])c4c(c3[H])C([H])([H])C([H])([H])N(C([H])([H])[H])C4=O)C([H])([H])C2([H])[H])c1[H]
     RDKit          3D

 52 55  0  0  0  0  0  0  0  0999 V2000
    8.3235    0.1449   -1.3405 C   0  0  0  0  0  0  0  0  0  0  0  0
    6.9360    0.3839   -1.0937 N   0  0  0  0  0  0  0  0  0  0  0  0
    5.9930    0.8511   -2.0819 C   0  0  0  0  0  0  0  0  0  0  0  0
    4.8284   -0.0966   -2.1841 C   0  0  0  0  0  0  0  0  0  0  0  0
    4.1904   -0.2576   -0.8684 C   0  0  0  0  0  0  0  0  0  0  0  0
    2.8176   -0.5410   -0.7735 C   0  0  0  0  0  0  0  0  0  0  0  0
    2.1809   -0.7304    0.4346 C   0  0  0  0  0  0  0  0  0  0  0  0
    0.7206   -1.0296    0.4843 C   0  0  0  0  0  0  0  0  0  0  0  0
   -0.0508    0.2207    0.5568 C   0  0  0  0  0  0  0  0  0  0  0  0
    0.5355    1.3133    0.5706 O   0  0  0  0  0  0  0  0  0  0  0  0
   -1.4555    0.1647    0.6100 N   0  0  0  0  0  0  0  0  0  0  0  0
   -2.1470   -1.1156    0.5954 C   0  0  0  0  0  0  0  0  0  0  0  0
   -3.4462   -0.9875   -0.1688 C   0  0  0  0  0  0  0  0  0  0  0  0
   -4.2313    0.1386    0.3056 N   0  0  0  0  0  0  0  0  0  0  0  0
   -3.6467    1.2665    0.9591 C   0  0  0  0  0  0  0  0  0  0  0  0
   -2.1910    1.4208    0.6775 C   0  0  0  0  0  0  0  0  0  0  0  0
   -5.6345    0.0791    0.0862 C   0  0  0  0  0  0  0  0  0  0  0  0
   -6.2202   -0.9109   -0.6999 C   0  0  0  0  0  0  0  0  0  0  0  0
   -7.5979   -0.9315   -0.8792 C   0  0  0  0  0  0  0  0  0  0  0  0
   -8.3718    0.0337   -0.2733 C   0  0  0  0  0  0  0  0  0  0  0  0
   -7.8371    1.0221    0.5057 C   0  0  0  0  0  0  0  0  0  0  0  0
   -8.7684    2.2629    1.2942 Cl  0  0  0  0  0  0  0  0  0  0  0  0
   -6.4481    1.0235    0.6725 C   0  0  0  0  0  0  0  0  0  0  0  0
    2.9454   -0.6321    1.5769 C   0  0  0  0  0  0  0  0  0  0  0  0
    4.2980   -0.3525    1.4874 C   0  0  0  0  0  0  0  0  0  0  0  0
    4.9322   -0.1630    0.2788 C   0  0  0  0  0  0  0  0  0  0  0  0
    6.3715    0.1681    0.2081 C   0  0  0  0  0  0  0  0  0  0  0  0
    7.0109    0.2414    1.2564 O   0  0  0  0  0  0  0  0  0  0  0  0
    8.9577    0.3203   -0.4362 H   0  0  0  0  0  0  0  0  0  0  0  0
    8.7484    0.8177   -2.1239 H   0  0  0  0  0  0  0  0  0  0  0  0
    8.4558   -0.9252   -1.6031 H   0  0  0  0  0  0  0  0  0  0  0  0
    6.4730    1.0366   -3.0662 H   0  0  0  0  0  0  0  0  0  0  0  0
    5.5466    1.8339   -1.7428 H   0  0  0  0  0  0  0  0  0  0  0  0
    4.1173    0.2748   -2.9589 H   0  0  0  0  0  0  0  0  0  0  0  0
    5.2004   -1.1019   -2.5571 H   0  0  0  0  0  0  0  0  0  0  0  0
    2.2399   -0.6139   -1.6622 H   0  0  0  0  0  0  0  0  0  0  0  0
    0.4136   -1.6717   -0.3768 H   0  0  0  0  0  0  0  0  0  0  0  0
    0.4590   -1.6251    1.3971 H   0  0  0  0  0  0  0  0  0  0  0  0
   -2.3974   -1.3628    1.6456 H   0  0  0  0  0  0  0  0  0  0  0  0
   -1.5614   -1.9083    0.1242 H   0  0  0  0  0  0  0  0  0  0  0  0
   -3.3429   -0.9513   -1.2500 H   0  0  0  0  0  0  0  0  0  0  0  0
   -4.0309   -1.9089    0.0842 H   0  0  0  0  0  0  0  0  0  0  0  0
   -3.8095    1.2487    2.0662 H   0  0  0  0  0  0  0  0  0  0  0  0
   -4.1420    2.1951    0.5704 H   0  0  0  0  0  0  0  0  0  0  0  0
   -1.7497    2.0020    1.5393 H   0  0  0  0  0  0  0  0  0  0  0  0
   -1.9818    1.9487   -0.2772 H   0  0  0  0  0  0  0  0  0  0  0  0
   -5.5952   -1.6607   -1.1704 H   0  0  0  0  0  0  0  0  0  0  0  0
   -8.0160   -1.7185   -1.4981 H   0  0  0  0  0  0  0  0  0  0  0  0
   -9.4546    0.0409   -0.3968 H   0  0  0  0  0  0  0  0  0  0  0  0
   -5.9738    1.7867    1.2849 H   0  0  0  0  0  0  0  0  0  0  0  0
    2.4776   -0.7751    2.5349 H   0  0  0  0  0  0  0  0  0  0  0  0
    4.9285   -0.2691    2.3811 H   0  0  0  0  0  0  0  0  0  0  0  0
  1  2  1  0
  2  3  1  0
  3  4  1  0
  4  5  1  0
  5  6  2  0
  6  7  1  0
  7  8  1  0
  8  9  1  0
  9 10  2  0
  9 11  1  0
 11 12  1  0
 12 13  1  0
 13 14  1  0
 14 15  1  0
 15 16  1  0
 14 17  1  0
 17 18  2  0
 18 19  1  0
 19 20  2  0
 20 21  1  0
 21 22  1  0
 21 23  2  0
  7 24  2  0
 24 25  1  0
 25 26  2  0
 26 27  1  0
 27 28  2  0
 27  2  1  0
 26  5  1  0
 16 11  1  0
 23 17  1  0
  1 29  1  0
  1 30  1  0
  1 31  1  0
  3 32  1  0
  3 33  1  0
  4 34  1  0
  4 35  1  0
  6 36  1  0
  8 37  1  0
  8 38  1  0
 12 39  1  0
 12 40  1  0
 13 41  1  0
 13 42  1  0
 15 43  1  0
 15 44  1  0
 16 45  1  0
 16 46  1  0
 18 47  1  0
 19 48  1  0
 20 49  1  0
 23 50  1  0
 24 51  1  0
 25 52  1  0
M  END
$$$$
[H]c1nn(C([H])([H])[C@@]([H])(c2c([H])c([H])c3sc(-c4c([H])nc(C([H])([H])[H])c([H])c4[H])c([H])c3c2[H])C([H])([H])[H])c(C#N)c1[H]
     RDKit          3D

 44 47  0  0  0  0  0  0  0  0999 V2000
   -2.6204   -2.0738   -2.5348 C   0  0  0  0  0  0  0  0  0  0  0  0
   -3.0746   -0.8445   -1.7788 C   0  0  1  0  0  0  0  0  0  0  0  0
   -3.6400   -1.2911   -0.4461 C   0  0  0  0  0  0  0  0  0  0  0  0
   -4.0955   -0.1559    0.3311 N   0  0  0  0  0  0  0  0  0  0  0  0
   -3.3837    0.5576    1.1978 N   0  0  0  0  0  0  0  0  0  0  0  0
   -4.1447    1.5431    1.7341 C   0  0  0  0  0  0  0  0  0  0  0  0
   -5.3967    1.4423    1.1753 C   0  0  0  0  0  0  0  0  0  0  0  0
   -5.3436    0.3780    0.3049 C   0  0  0  0  0  0  0  0  0  0  0  0
   -6.4394   -0.0890   -0.5011 C   0  0  0  0  0  0  0  0  0  0  0  0
   -7.3161   -0.4766   -1.1681 N   0  0  0  0  0  0  0  0  0  0  0  0
   -1.8519    0.0066   -1.5715 C   0  0  0  0  0  0  0  0  0  0  0  0
   -1.8761    1.2778   -2.0729 C   0  0  0  0  0  0  0  0  0  0  0  0
   -0.7358    2.0218   -1.8605 C   0  0  0  0  0  0  0  0  0  0  0  0
    0.3680    1.4924   -1.1724 C   0  0  0  0  0  0  0  0  0  0  0  0
    1.9041    2.0744   -0.7239 S   0  0  0  0  0  0  0  0  0  0  0  0
    2.5037    0.6945    0.0715 C   0  0  0  0  0  0  0  0  0  0  0  0
    1.4768   -0.1995   -0.0333 C   0  0  0  0  0  0  0  0  0  0  0  0
    0.3636    0.2187   -0.6826 C   0  0  0  0  0  0  0  0  0  0  0  0
   -0.8026   -0.5496   -0.8970 C   0  0  0  0  0  0  0  0  0  0  0  0
    3.8156    0.4828    0.7282 C   0  0  0  0  0  0  0  0  0  0  0  0
    4.1385   -0.6932    1.3237 C   0  0  0  0  0  0  0  0  0  0  0  0
    5.3948   -0.8290    1.9266 C   0  0  0  0  0  0  0  0  0  0  0  0
    6.3028    0.1984    1.9280 C   0  0  0  0  0  0  0  0  0  0  0  0
    7.6351    0.0856    2.5554 C   0  0  0  0  0  0  0  0  0  0  0  0
    5.9390    1.3544    1.3223 N   0  0  0  0  0  0  0  0  0  0  0  0
    4.7413    1.5098    0.7374 C   0  0  0  0  0  0  0  0  0  0  0  0
   -2.0424   -1.7008   -3.4208 H   0  0  0  0  0  0  0  0  0  0  0  0
   -1.9525   -2.6828   -1.8919 H   0  0  0  0  0  0  0  0  0  0  0  0
   -3.5040   -2.6708   -2.8709 H   0  0  0  0  0  0  0  0  0  0  0  0
   -3.8446   -0.2966   -2.3264 H   0  0  0  0  0  0  0  0  0  0  0  0
   -2.9051   -1.8901    0.1323 H   0  0  0  0  0  0  0  0  0  0  0  0
   -4.5121   -1.9533   -0.6117 H   0  0  0  0  0  0  0  0  0  0  0  0
   -3.7585    2.2427    2.4659 H   0  0  0  0  0  0  0  0  0  0  0  0
   -6.2188    2.0907    1.4064 H   0  0  0  0  0  0  0  0  0  0  0  0
   -2.7521    1.6237   -2.5904 H   0  0  0  0  0  0  0  0  0  0  0  0
   -0.6748    3.0306   -2.2232 H   0  0  0  0  0  0  0  0  0  0  0  0
    1.6267   -1.2142    0.4241 H   0  0  0  0  0  0  0  0  0  0  0  0
   -0.9017   -1.5639   -0.5488 H   0  0  0  0  0  0  0  0  0  0  0  0
    3.4346   -1.5172    1.3332 H   0  0  0  0  0  0  0  0  0  0  0  0
    5.6548   -1.7637    2.4014 H   0  0  0  0  0  0  0  0  0  0  0  0
    8.3827    0.0251    1.7442 H   0  0  0  0  0  0  0  0  0  0  0  0
    7.6929   -0.7487    3.2664 H   0  0  0  0  0  0  0  0  0  0  0  0
    7.8815    1.0140    3.1444 H   0  0  0  0  0  0  0  0  0  0  0  0
    4.5314    2.4766    0.2722 H   0  0  0  0  0  0  0  0  0  0  0  0
  1  2  1  0
  2  3  1  0
  3  4  1  0
  4  5  1  0
  5  6  2  0
  6  7  1  0
  7  8  2  0
  8  9  1  0
  9 10  3  0
  2 11  1  0
 11 12  2  0
 12 13  1  0
 13 14  2  0
 14 15  1  0
 15 16  1  0
 16 17  2  0
 17 18  1  0
 18 19  2  0
 16 20  1  0
 20 21  2  0
 21 22  1  0
 22 23  2  0
 23 24  1  0
 23 25  1  0
 25 26  2  0
  8  4  1  0
 19 11  1  0
 26 20  1  0
 18 14  1  0
  1 27  1  0
  1 28  1  0
  1 29  1  0
  2 30  1  6
  3 31  1  0
  3 32  1  0
  6 33  1  0
  7 34  1  0
 12 35  1  0
 13 36  1  0
 17 37  1  0
 19 38  1  0
 21 39  1  0
 22 40  1  0
 24 41  1  0
 24 42  1  0
 24 43  1  0
 26 44  1  0
M  END
$$$$
[H]c1c([H])c([H])c(-c2nnc(C(=O)N([H])C3([H])C([H])([H])C([H])([H])N(C([H])(c4c([H])c(C([H])([H])[H])c([H])c(C(F)(F)F)c4[H])C([H])([H])[H])C([H])([H])C3([H])[H])o2)c([H])c1[H]
     RDKit          3D

 58 61  0  0  0  0  0  0  0  0999 V2000
   -7.8164   -0.9497   -1.9092 C   0  0  0  0  0  0  0  0  0  0  0  0
   -6.7991   -0.2202   -1.0928 C   0  0  0  0  0  0  0  0  0  0  0  0
   -5.5758   -0.7811   -0.8908 C   0  0  0  0  0  0  0  0  0  0  0  0
   -4.5738   -0.1403   -0.1147 C   0  0  0  0  0  0  0  0  0  0  0  0
   -4.8957    1.0709    0.4228 C   0  0  0  0  0  0  0  0  0  0  0  0
   -6.1311    1.6689    0.2347 C   0  0  0  0  0  0  0  0  0  0  0  0
   -7.0941    1.0137   -0.5332 C   0  0  0  0  0  0  0  0  0  0  0  0
   -6.4290    2.9719    0.8443 C   0  0  0  0  0  0  0  0  0  0  0  0
   -7.5814    3.5199    0.2636 F   0  0  0  0  0  0  0  0  0  0  0  0
   -6.6251    2.8676    2.2266 F   0  0  0  0  0  0  0  0  0  0  0  0
   -5.4058    3.9007    0.6809 F   0  0  0  0  0  0  0  0  0  0  0  0
   -3.3239   -0.8562    0.0045 C   0  0  0  0  0  0  0  0  0  0  0  0
   -2.9763   -1.5673   -1.2839 C   0  0  0  0  0  0  0  0  0  0  0  0
   -2.1805   -0.2488    0.6485 N   0  0  0  0  0  0  0  0  0  0  0  0
   -1.3913   -1.4146    1.0496 C   0  0  0  0  0  0  0  0  0  0  0  0
    0.0013   -1.2101    1.4382 C   0  0  0  0  0  0  0  0  0  0  0  0
    0.6493   -0.4163    0.2958 C   0  0  0  0  0  0  0  0  0  0  0  0
   -0.0657    0.9072    0.2290 C   0  0  0  0  0  0  0  0  0  0  0  0
   -1.4980    0.6892   -0.1463 C   0  0  0  0  0  0  0  0  0  0  0  0
    2.0575   -0.3554    0.4306 N   0  0  0  0  0  0  0  0  0  0  0  0
    2.8797   -0.8254   -0.6450 C   0  0  0  0  0  0  0  0  0  0  0  0
    2.3258   -1.2395   -1.6794 O   0  0  0  0  0  0  0  0  0  0  0  0
    4.3304   -0.8226   -0.4838 C   0  0  0  0  0  0  0  0  0  0  0  0
    5.0199   -2.0270   -0.4118 N   0  0  0  0  0  0  0  0  0  0  0  0
    6.2652   -1.8385   -0.2735 N   0  0  0  0  0  0  0  0  0  0  0  0
    6.4537   -0.4122   -0.2526 C   0  0  0  0  0  0  0  0  0  0  0  0
    5.2578    0.0309   -0.3811 O   0  0  0  0  0  0  0  0  0  0  0  0
    7.7836    0.1300   -0.1123 C   0  0  0  0  0  0  0  0  0  0  0  0
    8.8980   -0.6832    0.1218 C   0  0  0  0  0  0  0  0  0  0  0  0
   10.1506   -0.0805    0.2339 C   0  0  0  0  0  0  0  0  0  0  0  0
   10.3730    1.2663    0.1298 C   0  0  0  0  0  0  0  0  0  0  0  0
    9.2433    2.0525   -0.1068 C   0  0  0  0  0  0  0  0  0  0  0  0
    7.9863    1.4802   -0.2196 C   0  0  0  0  0  0  0  0  0  0  0  0
   -8.7818   -0.4264   -1.8490 H   0  0  0  0  0  0  0  0  0  0  0  0
   -7.8838   -1.9699   -1.4734 H   0  0  0  0  0  0  0  0  0  0  0  0
   -7.4561   -1.1017   -2.9565 H   0  0  0  0  0  0  0  0  0  0  0  0
   -5.3487   -1.7366   -1.3156 H   0  0  0  0  0  0  0  0  0  0  0  0
   -4.1709    1.5939    1.0117 H   0  0  0  0  0  0  0  0  0  0  0  0
   -8.0387    1.4827   -0.6663 H   0  0  0  0  0  0  0  0  0  0  0  0
   -3.6148   -1.7512    0.7364 H   0  0  0  0  0  0  0  0  0  0  0  0
   -1.9307   -1.5050   -1.5846 H   0  0  0  0  0  0  0  0  0  0  0  0
   -3.5963   -1.1370   -2.1240 H   0  0  0  0  0  0  0  0  0  0  0  0
   -3.2121   -2.6338   -1.1868 H   0  0  0  0  0  0  0  0  0  0  0  0
   -1.9801   -1.8233    1.9309 H   0  0  0  0  0  0  0  0  0  0  0  0
   -1.4330   -2.1620    0.2228 H   0  0  0  0  0  0  0  0  0  0  0  0
    0.1460   -0.6134    2.3666 H   0  0  0  0  0  0  0  0  0  0  0  0
    0.5115   -2.1999    1.4618 H   0  0  0  0  0  0  0  0  0  0  0  0
    0.3795   -0.9742   -0.6411 H   0  0  0  0  0  0  0  0  0  0  0  0
    0.0708    1.4798    1.1795 H   0  0  0  0  0  0  0  0  0  0  0  0
    0.4011    1.4368   -0.6448 H   0  0  0  0  0  0  0  0  0  0  0  0
   -2.0659    1.6686   -0.1389 H   0  0  0  0  0  0  0  0  0  0  0  0
   -1.4552    0.3374   -1.2312 H   0  0  0  0  0  0  0  0  0  0  0  0
    2.5282    0.0023    1.3141 H   0  0  0  0  0  0  0  0  0  0  0  0
    8.7728   -1.7483    0.2129 H   0  0  0  0  0  0  0  0  0  0  0  0
   11.0215   -0.7295    0.4096 H   0  0  0  0  0  0  0  0  0  0  0  0
   11.3302    1.7505    0.2200 H   0  0  0  0  0  0  0  0  0  0  0  0
    9.3294    3.1209   -0.2097 H   0  0  0  0  0  0  0  0  0  0  0  0
    7.1646    2.1589   -0.4034 H   0  0  0  0  0  0  0  0  0  0  0  0
  1  2  1  0
  2  3  2  0
  3  4  1  0
  4  5  2  0
  5  6  1  0
  6  7  2  0
  6  8  1  0
  8  9  1  0
  8 10  1  0
  8 11  1  0
  4 12  1  0
 12 13  1  0
 12 14  1  0
 14 15  1  0
 15 16  1  0
 16 17  1  0
 17 18  1  0
 18 19  1  0
 17 20  1  0
 20 21  1  0
 21 22  2  0
 21 23  1  0
 23 24  2  0
 24 25  1  0
 25 26  2  0
 26 27  1  0
 26 28  1  0
 28 29  2  0
 29 30  1  0
 30 31  2  0
 31 32  1  0
 32 33  2  0
  7  2  1  0
 19 14  1  0
 27 23  1  0
 33 28  1  0
  1 34  1  0
  1 35  1  0
  1 36  1  0
  3 37  1  0
  5 38  1  0
  7 39  1  0
 12 40  1  0
 13 41  1  0
 13 42  1  0
 13 43  1  0
 15 44  1  0
 15 45  1  0
 16 46  1  0
 16 47  1  0
 17 48  1  0
 18 49  1  0
 18 50  1  0
 19 51  1  0
 19 52  1  0
 20 53  1  0
 29 54  1  0
 30 55  1  0
 31 56  1  0
 32 57  1  0
 33 58  1  0
M  END
$$$$
[H]O[C@@]1([H])[C@@]([H])(c2onc(C([H])(C([H])([H])[H])C([H])([H])[H])c2[H])C([H])([H])C([H])([H])[C@]2([H])N([H])C([H])([H])[C@@]2([H])N([H])C(=O)[C@]1([H])C([H])([H])C([H])=C([H])[H]
     RDKit          3D

 51 53  0  0  0  0  0  0  0  0999 V2000
    5.9251   -0.2277   -0.4751 C   0  0  0  0  0  0  0  0  0  0  0  0
    5.0171    0.7758    0.2321 C   0  0  0  0  0  0  0  0  0  0  0  0
    5.4775    2.1805    0.0179 C   0  0  0  0  0  0  0  0  0  0  0  0
    3.6090    0.5658   -0.2336 C   0  0  0  0  0  0  0  0  0  0  0  0
    3.1149    0.7548   -1.4714 N   0  0  0  0  0  0  0  0  0  0  0  0
    1.8450    0.4687   -1.4959 O   0  0  0  0  0  0  0  0  0  0  0  0
    1.4188    0.0848   -0.3271 C   0  0  0  0  0  0  0  0  0  0  0  0
    2.5315    0.1344    0.5167 C   0  0  0  0  0  0  0  0  0  0  0  0
    0.0332   -0.3220    0.0327 C   0  0  1  0  0  0  0  0  0  0  0  0
    0.1066   -1.8065    0.4139 C   0  0  0  0  0  0  0  0  0  0  0  0
   -0.7567   -2.6262   -0.5327 C   0  0  0  0  0  0  0  0  0  0  0  0
   -2.1631   -2.5498   -0.0351 C   0  0  1  0  0  0  0  0  0  0  0  0
   -3.0116   -1.5177   -0.6797 C   0  0  1  0  0  0  0  0  0  0  0  0
   -3.9431   -2.7078   -0.9622 C   0  0  0  0  0  0  0  0  0  0  0  0
   -2.9404   -3.6578   -0.5601 N   0  0  0  0  0  0  0  0  0  0  0  0
   -3.6137   -0.5853    0.2440 N   0  0  0  0  0  0  0  0  0  0  0  0
   -2.9699    0.2332    1.1730 C   0  0  0  0  0  0  0  0  0  0  0  0
   -3.3882    0.2192    2.3856 O   0  0  0  0  0  0  0  0  0  0  0  0
   -1.8229    1.1467    0.9163 C   0  0  2  0  0  0  0  0  0  0  0  0
   -1.9198    1.8321   -0.4299 C   0  0  0  0  0  0  0  0  0  0  0  0
   -3.2006    2.6161   -0.3939 C   0  0  0  0  0  0  0  0  0  0  0  0
   -3.2130    3.9328   -0.5445 C   0  0  0  0  0  0  0  0  0  0  0  0
   -0.4832    0.4991    1.1641 C   0  0  1  0  0  0  0  0  0  0  0  0
   -0.6078   -0.2312    2.3539 O   0  0  0  0  0  0  0  0  0  0  0  0
    5.2848   -1.1315   -0.6882 H   0  0  0  0  0  0  0  0  0  0  0  0
    6.2567    0.1372   -1.4559 H   0  0  0  0  0  0  0  0  0  0  0  0
    6.7321   -0.5838    0.1761 H   0  0  0  0  0  0  0  0  0  0  0  0
    5.0493    0.5194    1.3113 H   0  0  0  0  0  0  0  0  0  0  0  0
    6.0149    2.5222    0.9328 H   0  0  0  0  0  0  0  0  0  0  0  0
    6.1998    2.1781   -0.8225 H   0  0  0  0  0  0  0  0  0  0  0  0
    4.6457    2.9015   -0.1279 H   0  0  0  0  0  0  0  0  0  0  0  0
    2.5606   -0.1149    1.5635 H   0  0  0  0  0  0  0  0  0  0  0  0
   -0.5845   -0.2414   -0.8752 H   0  0  0  0  0  0  0  0  0  0  0  0
    1.1352   -2.2083    0.3137 H   0  0  0  0  0  0  0  0  0  0  0  0
   -0.2201   -1.9958    1.4338 H   0  0  0  0  0  0  0  0  0  0  0  0
   -0.4143   -3.6770   -0.4328 H   0  0  0  0  0  0  0  0  0  0  0  0
   -0.6250   -2.3087   -1.5757 H   0  0  0  0  0  0  0  0  0  0  0  0
   -2.2258   -2.4846    1.0703 H   0  0  0  0  0  0  0  0  0  0  0  0
   -2.6819   -1.1029   -1.6502 H   0  0  0  0  0  0  0  0  0  0  0  0
   -4.2969   -2.7665   -2.0017 H   0  0  0  0  0  0  0  0  0  0  0  0
   -4.7853   -2.7375   -0.2114 H   0  0  0  0  0  0  0  0  0  0  0  0
   -2.4923   -4.1556   -1.3746 H   0  0  0  0  0  0  0  0  0  0  0  0
   -4.6783   -0.5257    0.2013 H   0  0  0  0  0  0  0  0  0  0  0  0
   -1.8460    2.0131    1.6519 H   0  0  0  0  0  0  0  0  0  0  0  0
   -1.9853    1.1590   -1.2820 H   0  0  0  0  0  0  0  0  0  0  0  0
   -1.0981    2.5629   -0.4859 H   0  0  0  0  0  0  0  0  0  0  0  0
   -4.1310    2.0852   -0.2408 H   0  0  0  0  0  0  0  0  0  0  0  0
   -4.1514    4.4716   -0.5139 H   0  0  0  0  0  0  0  0  0  0  0  0
   -2.3234    4.5262   -0.7007 H   0  0  0  0  0  0  0  0  0  0  0  0
    0.2703    1.2996    1.3977 H   0  0  0  0  0  0  0  0  0  0  0  0
   -0.6545    0.4462    3.0781 H   0  0  0  0  0  0  0  0  0  0  0  0
  1  2  1  0
  2  3  1  0
  2  4  1  0
  4  5  2  0
  5  6  1  0
  6  7  1  0
  7  8  2  0
  7  9  1  0
  9 10  1  0
 10 11  1  0
 11 12  1  0
 12 13  1  0
 13 14  1  0
 14 15  1  0
 13 16  1  0
 16 17  1  0
 17 18  2  0
 17 19  1  0
 19 20  1  0
 20 21  1  0
 21 22  2  3
 19 23  1  0
 23 24  1  0
  8  4  1  0
 23  9  1  0
 15 12  1  0
  1 25  1  0
  1 26  1  0
  1 27  1  0
  2 28  1  0
  3 29  1  0
  3 30  1  0
  3 31  1  0
  8 32  1  0
  9 33  1  6
 10 34  1  0
 10 35  1  0
 11 36  1  0
 11 37  1  0
 12 38  1  1
 13 39  1  6
 14 40  1  0
 14 41  1  0
 15 42  1  0
 16 43  1  0
 19 44  1  1
 20 45  1  0
 20 46  1  0
 21 47  1  0
 22 48  1  0
 22 49  1  0
 23 50  1  1
 24 51  1  0
M  END
$$$$
[H]c1nc(N([H])C([H])([H])C([H])(N([H])C(=O)C([H])([H])N2C([H])([H])C([H])([H])OC([H])([H])C2([H])[H])C([H])([H])c2c([H])c([H])c([H])c([H])c2[H])sc1C(=O)N([H])[H]
     RDKit          3D

 53 55  0  0  0  0  0  0  0  0999 V2000
    6.9217   -2.0240   -3.3946 N   0  0  0  0  0  0  0  0  0  0  0  0
    6.1068   -0.8764   -3.4671 C   0  0  0  0  0  0  0  0  0  0  0  0
    6.2660    0.0285   -4.2931 O   0  0  0  0  0  0  0  0  0  0  0  0
    5.0090   -0.7773   -2.4885 C   0  0  0  0  0  0  0  0  0  0  0  0
    4.6666   -1.6490   -1.4848 C   0  0  0  0  0  0  0  0  0  0  0  0
    3.6491   -1.3459   -0.7469 N   0  0  0  0  0  0  0  0  0  0  0  0
    2.9767   -0.2280   -0.9719 C   0  0  0  0  0  0  0  0  0  0  0  0
    1.8227    0.2797   -0.2620 N   0  0  0  0  0  0  0  0  0  0  0  0
    1.3425   -0.5137    0.8270 C   0  0  0  0  0  0  0  0  0  0  0  0
    0.2858    0.0701    1.6857 C   0  0  0  0  0  0  0  0  0  0  0  0
    0.6214    1.2891    2.4455 C   0  0  0  0  0  0  0  0  0  0  0  0
    1.0472    2.4926    1.7480 C   0  0  0  0  0  0  0  0  0  0  0  0
    0.1522    3.3820    1.1924 C   0  0  0  0  0  0  0  0  0  0  0  0
    0.5434    4.5482    0.5704 C   0  0  0  0  0  0  0  0  0  0  0  0
    1.8809    4.8813    0.4760 C   0  0  0  0  0  0  0  0  0  0  0  0
    2.7929    4.0070    1.0245 C   0  0  0  0  0  0  0  0  0  0  0  0
    2.4035    2.8396    1.6473 C   0  0  0  0  0  0  0  0  0  0  0  0
   -0.9926    0.1810    0.9815 N   0  0  0  0  0  0  0  0  0  0  0  0
   -2.0848   -0.6621    1.2855 C   0  0  0  0  0  0  0  0  0  0  0  0
   -1.9416   -1.5234    2.1802 O   0  0  0  0  0  0  0  0  0  0  0  0
   -3.3409   -0.5225    0.5685 C   0  0  0  0  0  0  0  0  0  0  0  0
   -4.3904   -1.4286    0.9166 N   0  0  0  0  0  0  0  0  0  0  0  0
   -5.5950   -1.0473    0.1847 C   0  0  0  0  0  0  0  0  0  0  0  0
   -5.3038   -1.0905   -1.2890 C   0  0  0  0  0  0  0  0  0  0  0  0
   -4.6193   -2.2501   -1.6474 O   0  0  0  0  0  0  0  0  0  0  0  0
   -4.7627   -3.2441   -0.6778 C   0  0  0  0  0  0  0  0  0  0  0  0
   -4.0619   -2.8148    0.6233 C   0  0  0  0  0  0  0  0  0  0  0  0
    3.8171    0.4436   -2.2964 S   0  0  0  0  0  0  0  0  0  0  0  0
    7.9405   -1.9087   -3.2755 H   0  0  0  0  0  0  0  0  0  0  0  0
    6.5538   -2.9966   -3.4545 H   0  0  0  0  0  0  0  0  0  0  0  0
    5.2572   -2.5792   -1.3276 H   0  0  0  0  0  0  0  0  0  0  0  0
    1.4176    1.1525   -0.6050 H   0  0  0  0  0  0  0  0  0  0  0  0
    1.0104   -1.4923    0.3534 H   0  0  0  0  0  0  0  0  0  0  0  0
    2.2334   -0.8318    1.4288 H   0  0  0  0  0  0  0  0  0  0  0  0
    0.0842   -0.7262    2.4820 H   0  0  0  0  0  0  0  0  0  0  0  0
    1.4124    0.9602    3.2067 H   0  0  0  0  0  0  0  0  0  0  0  0
   -0.2544    1.5194    3.1461 H   0  0  0  0  0  0  0  0  0  0  0  0
   -0.9267    3.1594    1.2417 H   0  0  0  0  0  0  0  0  0  0  0  0
   -0.1663    5.2546    0.1285 H   0  0  0  0  0  0  0  0  0  0  0  0
    2.2145    5.7959   -0.0102 H   0  0  0  0  0  0  0  0  0  0  0  0
    3.8444    4.2980    0.9341 H   0  0  0  0  0  0  0  0  0  0  0  0
    3.1204    2.1790    2.0641 H   0  0  0  0  0  0  0  0  0  0  0  0
   -1.0634    0.9015    0.2535 H   0  0  0  0  0  0  0  0  0  0  0  0
   -3.1992   -0.5279   -0.5377 H   0  0  0  0  0  0  0  0  0  0  0  0
   -3.7389    0.5088    0.8118 H   0  0  0  0  0  0  0  0  0  0  0  0
   -6.4186   -1.7675    0.4226 H   0  0  0  0  0  0  0  0  0  0  0  0
   -5.9073   -0.0150    0.4390 H   0  0  0  0  0  0  0  0  0  0  0  0
   -6.2848   -1.1602   -1.8506 H   0  0  0  0  0  0  0  0  0  0  0  0
   -4.8428   -0.1600   -1.6551 H   0  0  0  0  0  0  0  0  0  0  0  0
   -4.2055   -4.1334   -1.0277 H   0  0  0  0  0  0  0  0  0  0  0  0
   -5.7972   -3.4974   -0.4569 H   0  0  0  0  0  0  0  0  0  0  0  0
   -4.5100   -3.4459    1.4199 H   0  0  0  0  0  0  0  0  0  0  0  0
   -2.9863   -2.9321    0.5308 H   0  0  0  0  0  0  0  0  0  0  0  0
  1  2  1  0
  2  3  2  0
  2  4  1  0
  4  5  2  0
  5  6  1  0
  6  7  2  0
  7  8  1  0
  8  9  1  0
  9 10  1  0
 10 11  1  0
 11 12  1  0
 12 13  2  0
 13 14  1  0
 14 15  2  0
 15 16  1  0
 16 17  2  0
 10 18  1  0
 18 19  1  0
 19 20  2  0
 19 21  1  0
 21 22  1  0
 22 23  1  0
 23 24  1  0
 24 25  1  0
 25 26  1  0
 26 27  1  0
  7 28  1  0
 28  4  1  0
 17 12  1  0
 27 22  1  0
  1 29  1  0
  1 30  1  0
  5 31  1  0
  8 32  1  0
  9 33  1  0
  9 34  1  0
 10 35  1  0
 11 36  1  0
 11 37  1  0
 13 38  1  0
 14 39  1  0
 15 40  1  0
 16 41  1  0
 17 42  1  0
 18 43  1  0
 21 44  1  0
 21 45  1  0
 23 46  1  0
 23 47  1  0
 24 48  1  0
 24 49  1  0
 26 50  1  0
 26 51  1  0
 27 52  1  0
 27 53  1  0
M  END
$$$$
[H]c1c([H])c2c(c([H])c1F)C(=O)N([H])C1([H])C([H])([H])C([H])([H])N(C([H])([H])C1([H])[H])C([H])([H])[C@@]1([H])OC2([H])C([H])([H])c2c([H])c(C3([H])C([H])([H])C([H])([H])N(C([H])([H])[H])C([H])([H])C3([H])[H])c(Cl)c([H])c2C([H])([H])C1([H])[H]
     RDKit          3D

 74 79  0  0  0  0  0  0  0  0999 V2000
    7.3328    1.8999    0.4452 C   0  0  0  0  0  0  0  0  0  0  0  0
    6.1604    1.1259    0.8764 N   0  0  0  0  0  0  0  0  0  0  0  0
    5.0757    1.2546   -0.0788 C   0  0  0  0  0  0  0  0  0  0  0  0
    4.9908    0.0951   -1.0132 C   0  0  0  0  0  0  0  0  0  0  0  0
    4.7259   -1.2219   -0.3319 C   0  0  0  0  0  0  0  0  0  0  0  0
    5.2738   -1.1188    1.0887 C   0  0  0  0  0  0  0  0  0  0  0  0
    6.5325   -0.2639    1.0109 C   0  0  0  0  0  0  0  0  0  0  0  0
    3.2849   -1.5919   -0.3209 C   0  0  0  0  0  0  0  0  0  0  0  0
    2.3096   -0.6940   -0.6456 C   0  0  0  0  0  0  0  0  0  0  0  0
    0.9688   -1.0168   -0.6354 C   0  0  0  0  0  0  0  0  0  0  0  0
    0.2556    0.2416   -1.0606 C   0  0  0  0  0  0  0  0  0  0  0  0
   -1.0227    0.4244   -0.3287 C   0  0  0  0  0  0  0  0  0  0  0  0
   -2.0154   -0.1321   -1.0538 O   0  0  0  0  0  0  0  0  0  0  0  0
   -2.1134   -1.4751   -1.1500 C   0  0  2  0  0  0  0  0  0  0  0  0
   -3.5859   -1.7624   -1.5178 C   0  0  0  0  0  0  0  0  0  0  0  0
   -4.4254   -0.9387   -0.7113 N   0  0  0  0  0  0  0  0  0  0  0  0
   -5.3754   -1.5810    0.1187 C   0  0  0  0  0  0  0  0  0  0  0  0
   -5.8502   -0.5866    1.1539 C   0  0  0  0  0  0  0  0  0  0  0  0
   -5.0727    0.7135    1.1433 C   0  0  0  0  0  0  0  0  0  0  0  0
   -5.0927    1.2849   -0.2372 C   0  0  0  0  0  0  0  0  0  0  0  0
   -4.8723    0.2603   -1.3343 C   0  0  0  0  0  0  0  0  0  0  0  0
   -3.7768    0.5032    1.7211 N   0  0  0  0  0  0  0  0  0  0  0  0
   -2.7448    1.4681    1.9690 C   0  0  0  0  0  0  0  0  0  0  0  0
   -2.4009    1.5353    3.2260 O   0  0  0  0  0  0  0  0  0  0  0  0
   -2.0778    2.3344    1.0033 C   0  0  0  0  0  0  0  0  0  0  0  0
   -2.2047    3.7120    1.1204 C   0  0  0  0  0  0  0  0  0  0  0  0
   -1.6063    4.5763    0.2168 C   0  0  0  0  0  0  0  0  0  0  0  0
   -1.7650    5.9255    0.3806 F   0  0  0  0  0  0  0  0  0  0  0  0
   -0.8587    4.0965   -0.8370 C   0  0  0  0  0  0  0  0  0  0  0  0
   -0.7108    2.7331   -0.9824 C   0  0  0  0  0  0  0  0  0  0  0  0
   -1.3135    1.8842   -0.0716 C   0  0  0  0  0  0  0  0  0  0  0  0
   -1.8292   -2.2857    0.0649 C   0  0  0  0  0  0  0  0  0  0  0  0
   -0.5836   -3.1162   -0.1280 C   0  0  0  0  0  0  0  0  0  0  0  0
    0.6208   -2.3003   -0.2804 C   0  0  0  0  0  0  0  0  0  0  0  0
    1.6229   -3.2103    0.0501 C   0  0  0  0  0  0  0  0  0  0  0  0
    2.9442   -2.8825    0.0367 C   0  0  0  0  0  0  0  0  0  0  0  0
    4.1548   -4.0809    0.4496 Cl  0  0  0  0  0  0  0  0  0  0  0  0
    7.6590    2.6254    1.1947 H   0  0  0  0  0  0  0  0  0  0  0  0
    7.0749    2.4211   -0.5041 H   0  0  0  0  0  0  0  0  0  0  0  0
    8.1887    1.1986    0.2444 H   0  0  0  0  0  0  0  0  0  0  0  0
    4.1579    1.4959    0.4553 H   0  0  0  0  0  0  0  0  0  0  0  0
    5.3262    2.1509   -0.7051 H   0  0  0  0  0  0  0  0  0  0  0  0
    4.3190    0.3279   -1.8428 H   0  0  0  0  0  0  0  0  0  0  0  0
    6.0126    0.0066   -1.4954 H   0  0  0  0  0  0  0  0  0  0  0  0
    5.2756   -2.0368   -0.8330 H   0  0  0  0  0  0  0  0  0  0  0  0
    5.6061   -2.1092    1.4453 H   0  0  0  0  0  0  0  0  0  0  0  0
    4.5322   -0.6714    1.7727 H   0  0  0  0  0  0  0  0  0  0  0  0
    7.1325   -0.3885    1.9402 H   0  0  0  0  0  0  0  0  0  0  0  0
    7.1118   -0.5449    0.1089 H   0  0  0  0  0  0  0  0  0  0  0  0
    2.5398    0.3208   -0.9254 H   0  0  0  0  0  0  0  0  0  0  0  0
    0.1559    0.1757   -2.1641 H   0  0  0  0  0  0  0  0  0  0  0  0
    1.0005    1.0464   -0.8816 H   0  0  0  0  0  0  0  0  0  0  0  0
   -0.8650    0.0194    0.7008 H   0  0  0  0  0  0  0  0  0  0  0  0
   -1.5336   -1.9171   -2.0087 H   0  0  0  0  0  0  0  0  0  0  0  0
   -3.8377   -2.8184   -1.3518 H   0  0  0  0  0  0  0  0  0  0  0  0
   -3.7743   -1.5188   -2.5744 H   0  0  0  0  0  0  0  0  0  0  0  0
   -4.9298   -2.4808    0.5740 H   0  0  0  0  0  0  0  0  0  0  0  0
   -6.2656   -1.9131   -0.4646 H   0  0  0  0  0  0  0  0  0  0  0  0
   -6.9444   -0.4129    1.0924 H   0  0  0  0  0  0  0  0  0  0  0  0
   -5.6469   -1.0560    2.1615 H   0  0  0  0  0  0  0  0  0  0  0  0
   -5.7186    1.4022    1.7557 H   0  0  0  0  0  0  0  0  0  0  0  0
   -4.4268    2.1415   -0.4023 H   0  0  0  0  0  0  0  0  0  0  0  0
   -6.1323    1.7121   -0.3987 H   0  0  0  0  0  0  0  0  0  0  0  0
   -5.8379    0.0571   -1.8861 H   0  0  0  0  0  0  0  0  0  0  0  0
   -4.1224    0.6240   -2.0599 H   0  0  0  0  0  0  0  0  0  0  0  0
   -3.5109   -0.4895    2.0241 H   0  0  0  0  0  0  0  0  0  0  0  0
   -2.7720    4.2093    1.9293 H   0  0  0  0  0  0  0  0  0  0  0  0
   -0.3893    4.7885   -1.5479 H   0  0  0  0  0  0  0  0  0  0  0  0
   -0.1247    2.3851   -1.8234 H   0  0  0  0  0  0  0  0  0  0  0  0
   -2.6411   -3.0589    0.2587 H   0  0  0  0  0  0  0  0  0  0  0  0
   -1.7471   -1.7506    1.0109 H   0  0  0  0  0  0  0  0  0  0  0  0
   -0.7334   -3.6655   -1.1035 H   0  0  0  0  0  0  0  0  0  0  0  0
   -0.4583   -3.8649    0.6801 H   0  0  0  0  0  0  0  0  0  0  0  0
    1.3640   -4.2213    0.3309 H   0  0  0  0  0  0  0  0  0  0  0  0
  1  2  1  0
  2  3  1  0
  3  4  1  0
  4  5  1  0
  5  6  1  0
  6  7  1  0
  5  8  1  0
  8  9  2  0
  9 10  1  0
 10 11  1  0
 11 12  1  0
 12 13  1  0
 13 14  1  0
 14 15  1  0
 15 16  1  0
 16 17  1  0
 17 18  1  0
 18 19  1  0
 19 20  1  0
 20 21  1  0
 19 22  1  0
 22 23  1  0
 23 24  2  0
 23 25  1  0
 25 26  2  0
 26 27  1  0
 27 28  1  0
 27 29  2  0
 29 30  1  0
 30 31  2  0
 14 32  1  0
 32 33  1  0
 33 34  1  0
 34 35  1  0
 35 36  2  0
 36 37  1  0
  7  2  1  0
 36  8  1  0
 34 10  2  0
 31 12  1  0
 21 16  1  0
 31 25  1  0
  1 38  1  0
  1 39  1  0
  1 40  1  0
  3 41  1  0
  3 42  1  0
  4 43  1  0
  4 44  1  0
  5 45  1  0
  6 46  1  0
  6 47  1  0
  7 48  1  0
  7 49  1  0
  9 50  1  0
 11 51  1  0
 11 52  1  0
 12 53  1  0
 14 54  1  6
 15 55  1  0
 15 56  1  0
 17 57  1  0
 17 58  1  0
 18 59  1  0
 18 60  1  0
 19 61  1  0
 20 62  1  0
 20 63  1  0
 21 64  1  0
 21 65  1  0
 22 66  1  0
 26 67  1  0
 29 68  1  0
 30 69  1  0
 32 70  1  0
 32 71  1  0
 33 72  1  0
 33 73  1  0
 35 74  1  0
M  END
$$$$
[H]c1c(Br)c(Oc2c([H])c([H])c(N([H])S(=O)(=O)C([H])([H])[H])c([H])c2OC([H])([H])[H])c(OC([H])([H])[H])c([H])c1OC([H])([H])[H]
     RDKit          3D

 43 44  0  0  0  0  0  0  0  0999 V2000
   -5.3395   -3.5020   -0.8811 C   0  0  0  0  0  0  0  0  0  0  0  0
   -4.8591   -2.2553   -1.2533 O   0  0  0  0  0  0  0  0  0  0  0  0
   -3.9086   -1.5102   -0.6071 C   0  0  0  0  0  0  0  0  0  0  0  0
   -3.2655   -1.8925    0.5421 C   0  0  0  0  0  0  0  0  0  0  0  0
   -2.3157   -1.1086    1.1562 C   0  0  0  0  0  0  0  0  0  0  0  0
   -1.4352   -1.6786    2.7670 Br  0  0  0  0  0  0  0  0  0  0  0  0
   -2.0167    0.1073    0.5711 C   0  0  0  0  0  0  0  0  0  0  0  0
   -1.0819    0.9216    1.1413 O   0  0  0  0  0  0  0  0  0  0  0  0
    0.2799    0.8554    0.8136 C   0  0  0  0  0  0  0  0  0  0  0  0
    0.7424   -0.0439   -0.1085 C   0  0  0  0  0  0  0  0  0  0  0  0
    2.0817   -0.1636   -0.4814 C   0  0  0  0  0  0  0  0  0  0  0  0
    2.9740    0.6811    0.1251 C   0  0  0  0  0  0  0  0  0  0  0  0
    4.3570    0.6714   -0.1582 N   0  0  0  0  0  0  0  0  0  0  0  0
    5.3691   -0.6860   -0.2790 S   0  0  0  0  0  0  0  0  0  0  0  0
    4.9155   -1.8141   -1.5761 C   0  0  0  0  0  0  0  0  0  0  0  0
    6.7758   -0.2132   -0.6005 O   0  0  0  0  0  0  0  0  0  0  0  0
    5.3773   -1.4988    0.9897 O   0  0  0  0  0  0  0  0  0  0  0  0
    2.5254    1.6113    1.0730 C   0  0  0  0  0  0  0  0  0  0  0  0
    1.1912    1.6980    1.4143 C   0  0  0  0  0  0  0  0  0  0  0  0
    0.7212    2.6146    2.3539 O   0  0  0  0  0  0  0  0  0  0  0  0
    1.6645    3.4683    2.9585 C   0  0  0  0  0  0  0  0  0  0  0  0
   -2.6352    0.5472   -0.5921 C   0  0  0  0  0  0  0  0  0  0  0  0
   -2.3259    1.7672   -1.1669 O   0  0  0  0  0  0  0  0  0  0  0  0
   -2.9967    2.1452   -2.3490 C   0  0  0  0  0  0  0  0  0  0  0  0
   -3.5738   -0.2769   -1.1593 C   0  0  0  0  0  0  0  0  0  0  0  0
   -5.0509   -3.8481    0.1160 H   0  0  0  0  0  0  0  0  0  0  0  0
   -5.0465   -4.3221   -1.5920 H   0  0  0  0  0  0  0  0  0  0  0  0
   -6.4586   -3.4671   -0.9227 H   0  0  0  0  0  0  0  0  0  0  0  0
   -3.5058   -2.8338    0.9834 H   0  0  0  0  0  0  0  0  0  0  0  0
    0.0579   -0.7186   -0.5984 H   0  0  0  0  0  0  0  0  0  0  0  0
    2.3979   -0.8891   -1.2165 H   0  0  0  0  0  0  0  0  0  0  0  0
    4.7939    1.6341   -0.3096 H   0  0  0  0  0  0  0  0  0  0  0  0
    5.8035   -2.3773   -1.9493 H   0  0  0  0  0  0  0  0  0  0  0  0
    4.4259   -1.2466   -2.4062 H   0  0  0  0  0  0  0  0  0  0  0  0
    4.1479   -2.4996   -1.1620 H   0  0  0  0  0  0  0  0  0  0  0  0
    3.2417    2.2719    1.5437 H   0  0  0  0  0  0  0  0  0  0  0  0
    2.0589    4.2339    2.2494 H   0  0  0  0  0  0  0  0  0  0  0  0
    2.4995    2.8837    3.3966 H   0  0  0  0  0  0  0  0  0  0  0  0
    1.1230    4.0585    3.7438 H   0  0  0  0  0  0  0  0  0  0  0  0
   -4.1050    2.1834   -2.1402 H   0  0  0  0  0  0  0  0  0  0  0  0
   -2.6817    3.1206   -2.7320 H   0  0  0  0  0  0  0  0  0  0  0  0
   -2.8500    1.3245   -3.0903 H   0  0  0  0  0  0  0  0  0  0  0  0
   -4.0726    0.0470   -2.0725 H   0  0  0  0  0  0  0  0  0  0  0  0
  1  2  1  0
  2  3  1  0
  3  4  2  0
  4  5  1  0
  5  6  1  0
  5  7  2  0
  7  8  1  0
  8  9  1  0
  9 10  2  0
 10 11  1  0
 11 12  2  0
 12 13  1  0
 13 14  1  0
 14 15  1  0
 14 16  2  0
 14 17  2  0
 12 18  1  0
 18 19  2  0
 19 20  1  0
 20 21  1  0
  7 22  1  0
 22 23  1  0
 23 24  1  0
 22 25  2  0
 25  3  1  0
 19  9  1  0
  1 26  1  0
  1 27  1  0
  1 28  1  0
  4 29  1  0
 10 30  1  0
 11 31  1  0
 13 32  1  0
 15 33  1  0
 15 34  1  0
 15 35  1  0
 18 36  1  0
 21 37  1  0
 21 38  1  0
 21 39  1  0
 24 40  1  0
 24 41  1  0
 24 42  1  0
 25 43  1  0
M  END
$$$$
[H]c1c(C(=O)OC([H])([H])c2c([H])c([H])c([H])c([H])c2C(F)(F)F)oc(-c2c([H])c([H])c(C(=O)N([H])[H])c(C([H])([H])C([H])(C([H])([H])C([H])([H])[H])C(C([H])([H])[H])(C([H])([H])[H])C([H])([H])[H])c2[H])c1[H]
     RDKit          3D

 66 68  0  0  0  0  0  0  0  0999 V2000
   -5.1311   -1.6912   -3.3916 C   0  0  0  0  0  0  0  0  0  0  0  0
   -5.8049   -1.1303   -2.1607 C   0  0  0  0  0  0  0  0  0  0  0  0
   -4.7225   -0.5120   -1.2266 C   0  0  0  0  0  0  0  0  0  0  0  0
   -3.8123   -1.5912   -0.8903 C   0  0  0  0  0  0  0  0  0  0  0  0
   -2.6492   -1.3824   -0.0351 C   0  0  0  0  0  0  0  0  0  0  0  0
   -1.4901   -0.8710   -0.6638 C   0  0  0  0  0  0  0  0  0  0  0  0
   -0.3539   -0.5331    0.0094 C   0  0  0  0  0  0  0  0  0  0  0  0
   -0.3864   -0.7195    1.3788 C   0  0  0  0  0  0  0  0  0  0  0  0
   -1.4774   -1.2104    2.0276 C   0  0  0  0  0  0  0  0  0  0  0  0
   -2.6389   -1.5535    1.3079 C   0  0  0  0  0  0  0  0  0  0  0  0
   -3.7178   -2.1799    2.0977 C   0  0  0  0  0  0  0  0  0  0  0  0
   -3.7076   -2.0829    3.5046 N   0  0  0  0  0  0  0  0  0  0  0  0
   -4.6529   -2.7991    1.5808 O   0  0  0  0  0  0  0  0  0  0  0  0
    0.8344    0.0039   -0.6642 C   0  0  0  0  0  0  0  0  0  0  0  0
    0.9573    0.2343   -2.0081 C   0  0  0  0  0  0  0  0  0  0  0  0
    2.2420    0.7406   -2.1847 C   0  0  0  0  0  0  0  0  0  0  0  0
    2.8207    0.7863   -0.9343 C   0  0  0  0  0  0  0  0  0  0  0  0
    1.9576    0.3455   -0.0819 O   0  0  0  0  0  0  0  0  0  0  0  0
    4.1832    1.2611   -0.6641 C   0  0  0  0  0  0  0  0  0  0  0  0
    4.9081    1.6732   -1.6271 O   0  0  0  0  0  0  0  0  0  0  0  0
    4.7299    1.2854    0.5947 O   0  0  0  0  0  0  0  0  0  0  0  0
    6.0105    1.7028    0.9562 C   0  0  0  0  0  0  0  0  0  0  0  0
    7.1425    0.9533    0.4600 C   0  0  0  0  0  0  0  0  0  0  0  0
    6.9991   -0.2013   -0.2593 C   0  0  0  0  0  0  0  0  0  0  0  0
    8.0738   -0.9611   -0.7122 C   0  0  0  0  0  0  0  0  0  0  0  0
    9.3535   -0.5563   -0.4373 C   0  0  0  0  0  0  0  0  0  0  0  0
    9.5200    0.5858    0.2760 C   0  0  0  0  0  0  0  0  0  0  0  0
    8.4433    1.3596    0.7367 C   0  0  0  0  0  0  0  0  0  0  0  0
    8.7149    2.5796    1.4941 C   0  0  0  0  0  0  0  0  0  0  0  0
    8.2696    3.7440    0.9323 F   0  0  0  0  0  0  0  0  0  0  0  0
    8.2851    2.4652    2.8276 F   0  0  0  0  0  0  0  0  0  0  0  0
   10.1024    2.7338    1.6126 F   0  0  0  0  0  0  0  0  0  0  0  0
   -5.2978    0.4942   -0.3452 C   0  0  0  0  0  0  0  0  0  0  0  0
   -6.4272    0.0485    0.5679 C   0  0  0  0  0  0  0  0  0  0  0  0
   -5.9942    1.5794   -1.2386 C   0  0  0  0  0  0  0  0  0  0  0  0
   -4.3569    1.2917    0.5152 C   0  0  0  0  0  0  0  0  0  0  0  0
   -4.3073   -1.0672   -3.7470 H   0  0  0  0  0  0  0  0  0  0  0  0
   -5.8697   -1.7931   -4.2158 H   0  0  0  0  0  0  0  0  0  0  0  0
   -4.7917   -2.7495   -3.1929 H   0  0  0  0  0  0  0  0  0  0  0  0
   -6.5366   -0.4037   -2.4838 H   0  0  0  0  0  0  0  0  0  0  0  0
   -6.3245   -1.9644   -1.6550 H   0  0  0  0  0  0  0  0  0  0  0  0
   -4.1549    0.1463   -2.0388 H   0  0  0  0  0  0  0  0  0  0  0  0
   -3.3390   -1.9154   -1.9128 H   0  0  0  0  0  0  0  0  0  0  0  0
   -4.3407   -2.5512   -0.6364 H   0  0  0  0  0  0  0  0  0  0  0  0
   -1.4922   -0.7344   -1.7554 H   0  0  0  0  0  0  0  0  0  0  0  0
    0.5176   -0.4515    1.9291 H   0  0  0  0  0  0  0  0  0  0  0  0
   -1.4865   -1.3511    3.1122 H   0  0  0  0  0  0  0  0  0  0  0  0
   -4.4708   -1.5775    3.9859 H   0  0  0  0  0  0  0  0  0  0  0  0
   -2.9441   -2.5118    4.0541 H   0  0  0  0  0  0  0  0  0  0  0  0
    0.2015    0.0510   -2.7417 H   0  0  0  0  0  0  0  0  0  0  0  0
    2.6365    1.0201   -3.1459 H   0  0  0  0  0  0  0  0  0  0  0  0
    6.0416    1.6648    2.0924 H   0  0  0  0  0  0  0  0  0  0  0  0
    6.0524    2.7970    0.7427 H   0  0  0  0  0  0  0  0  0  0  0  0
    6.0094   -0.6010   -0.4932 H   0  0  0  0  0  0  0  0  0  0  0  0
    7.9341   -1.8672   -1.2785 H   0  0  0  0  0  0  0  0  0  0  0  0
   10.2409   -1.0999   -0.7581 H   0  0  0  0  0  0  0  0  0  0  0  0
   10.5438    0.9189    0.5001 H   0  0  0  0  0  0  0  0  0  0  0  0
   -7.1808    0.8698    0.7331 H   0  0  0  0  0  0  0  0  0  0  0  0
   -5.9943   -0.1239    1.5707 H   0  0  0  0  0  0  0  0  0  0  0  0
   -6.9092   -0.8797    0.2408 H   0  0  0  0  0  0  0  0  0  0  0  0
   -6.9985    1.2761   -1.5120 H   0  0  0  0  0  0  0  0  0  0  0  0
   -5.2967    1.8026   -2.0545 H   0  0  0  0  0  0  0  0  0  0  0  0
   -6.1009    2.4672   -0.5681 H   0  0  0  0  0  0  0  0  0  0  0  0
   -3.3621    1.4510    0.1135 H   0  0  0  0  0  0  0  0  0  0  0  0
   -4.7984    2.3401    0.5908 H   0  0  0  0  0  0  0  0  0  0  0  0
   -4.4055    0.9443    1.5728 H   0  0  0  0  0  0  0  0  0  0  0  0
  1  2  1  0
  2  3  1  0
  3  4  1  0
  4  5  1  0
  5  6  2  0
  6  7  1  0
  7  8  2  0
  8  9  1  0
  9 10  2  0
 10 11  1  0
 11 12  1  0
 11 13  2  0
  7 14  1  0
 14 15  2  0
 15 16  1  0
 16 17  2  0
 17 18  1  0
 17 19  1  0
 19 20  2  0
 19 21  1  0
 21 22  1  0
 22 23  1  0
 23 24  2  0
 24 25  1  0
 25 26  2  0
 26 27  1  0
 27 28  2  0
 28 29  1  0
 29 30  1  0
 29 31  1  0
 29 32  1  0
  3 33  1  0
 33 34  1  0
 33 35  1  0
 33 36  1  0
 10  5  1  0
 18 14  1  0
 28 23  1  0
  1 37  1  0
  1 38  1  0
  1 39  1  0
  2 40  1  0
  2 41  1  0
  3 42  1  0
  4 43  1  0
  4 44  1  0
  6 45  1  0
  8 46  1  0
  9 47  1  0
 12 48  1  0
 12 49  1  0
 15 50  1  0
 16 51  1  0
 22 52  1  0
 22 53  1  0
 24 54  1  0
 25 55  1  0
 26 56  1  0
 27 57  1  0
 34 58  1  0
 34 59  1  0
 34 60  1  0
 35 61  1  0
 35 62  1  0
 35 63  1  0
 36 64  1  0
 36 65  1  0
 36 66  1  0
M  END
$$$$
[H]c1nn([H])c(C#N)c1-c1c([H])c([H])c(N([H])C(=O)N2C([H])([H])C([H])([H])N([H])C([H])([H])C([H])([H])C2([H])[H])c([H])c1[H]
     RDKit          3D

 41 43  0  0  0  0  0  0  0  0999 V2000
   -0.9252    1.3033   -1.2701 O   0  0  0  0  0  0  0  0  0  0  0  0
   -1.2500    0.5282   -0.3375 C   0  0  0  0  0  0  0  0  0  0  0  0
   -2.6407    0.3814   -0.0993 N   0  0  0  0  0  0  0  0  0  0  0  0
   -3.4918    1.1468   -0.9640 C   0  0  0  0  0  0  0  0  0  0  0  0
   -4.7835    0.4318   -1.2993 C   0  0  0  0  0  0  0  0  0  0  0  0
   -5.7684    0.7782   -0.2019 C   0  0  0  0  0  0  0  0  0  0  0  0
   -5.2671    0.4209    1.1076 N   0  0  0  0  0  0  0  0  0  0  0  0
   -4.4580   -0.7512    1.1114 C   0  0  0  0  0  0  0  0  0  0  0  0
   -2.9810   -0.5047    0.9635 C   0  0  0  0  0  0  0  0  0  0  0  0
   -0.3303   -0.1723    0.4492 N   0  0  0  0  0  0  0  0  0  0  0  0
    1.0764   -0.1211    0.3128 C   0  0  0  0  0  0  0  0  0  0  0  0
    1.8300   -0.5739    1.4048 C   0  0  0  0  0  0  0  0  0  0  0  0
    3.1869   -0.5601    1.3109 C   0  0  0  0  0  0  0  0  0  0  0  0
    3.8709   -0.1249    0.1995 C   0  0  0  0  0  0  0  0  0  0  0  0
    3.1388    0.3194   -0.8729 C   0  0  0  0  0  0  0  0  0  0  0  0
    1.7531    0.3134   -0.7980 C   0  0  0  0  0  0  0  0  0  0  0  0
    5.3101   -0.1380    0.1700 C   0  0  0  0  0  0  0  0  0  0  0  0
    6.1729    0.2916    1.1792 C   0  0  0  0  0  0  0  0  0  0  0  0
    7.4146    0.1066    0.7462 N   0  0  0  0  0  0  0  0  0  0  0  0
    7.4236   -0.4091   -0.4643 N   0  0  0  0  0  0  0  0  0  0  0  0
    6.1489   -0.5696   -0.8422 C   0  0  0  0  0  0  0  0  0  0  0  0
    5.7008   -1.1114   -2.1143 C   0  0  0  0  0  0  0  0  0  0  0  0
    5.3520   -1.5535   -3.1231 N   0  0  0  0  0  0  0  0  0  0  0  0
   -2.9734    1.4602   -1.9035 H   0  0  0  0  0  0  0  0  0  0  0  0
   -3.7735    2.1161   -0.4713 H   0  0  0  0  0  0  0  0  0  0  0  0
   -4.6527   -0.6374   -1.4547 H   0  0  0  0  0  0  0  0  0  0  0  0
   -5.1727    0.8901   -2.2330 H   0  0  0  0  0  0  0  0  0  0  0  0
   -5.8705    1.8905   -0.2201 H   0  0  0  0  0  0  0  0  0  0  0  0
   -6.7465    0.3540   -0.4371 H   0  0  0  0  0  0  0  0  0  0  0  0
   -6.1048    0.2445    1.7066 H   0  0  0  0  0  0  0  0  0  0  0  0
   -4.5887   -1.2501    2.1154 H   0  0  0  0  0  0  0  0  0  0  0  0
   -4.8421   -1.5073    0.3807 H   0  0  0  0  0  0  0  0  0  0  0  0
   -2.5179   -0.2179    1.9270 H   0  0  0  0  0  0  0  0  0  0  0  0
   -2.5420   -1.5154    0.7128 H   0  0  0  0  0  0  0  0  0  0  0  0
   -0.7148   -0.8131    1.2234 H   0  0  0  0  0  0  0  0  0  0  0  0
    1.3194   -0.9165    2.2822 H   0  0  0  0  0  0  0  0  0  0  0  0
    3.7779   -0.9073    2.1476 H   0  0  0  0  0  0  0  0  0  0  0  0
    3.5954    0.6773   -1.7823 H   0  0  0  0  0  0  0  0  0  0  0  0
    1.2226    0.6554   -1.6587 H   0  0  0  0  0  0  0  0  0  0  0  0
    5.8575    0.6994    2.1361 H   0  0  0  0  0  0  0  0  0  0  0  0
    8.2437   -0.6546   -1.0396 H   0  0  0  0  0  0  0  0  0  0  0  0
  1  2  2  0
  2  3  1  0
  3  4  1  0
  4  5  1  0
  5  6  1  0
  6  7  1  0
  7  8  1  0
  8  9  1  0
  2 10  1  0
 10 11  1  0
 11 12  2  0
 12 13  1  0
 13 14  2  0
 14 15  1  0
 15 16  2  0
 14 17  1  0
 17 18  1  0
 18 19  2  0
 19 20  1  0
 20 21  1  0
 21 22  1  0
 22 23  3  0
  9  3  1  0
 16 11  1  0
 21 17  2  0
  4 24  1  0
  4 25  1  0
  5 26  1  0
  5 27  1  0
  6 28  1  0
  6 29  1  0
  7 30  1  0
  8 31  1  0
  8 32  1  0
  9 33  1  0
  9 34  1  0
 10 35  1  0
 12 36  1  0
 13 37  1  0
 15 38  1  0
 16 39  1  0
 18 40  1  0
 20 41  1  0
M  END
$$$$
[H]c1c([H])c(N([H])C(=O)c2c([H])c([H])c(S(=O)(=O)N([H])c3c([H])c([H])c(C4([H])C([H])([H])C4([H])[H])c([H])c3[H])c([H])c2C([H])([H])SC([H])([H])C([H])([H])[H])c([H])c(-c2c([H])c(Cl)c([H])c(Cl)c2[H])c1F
     RDKit          3D

 68 72  0  0  0  0  0  0  0  0999 V2000
    1.6508    5.2339    0.0834 C   0  0  0  0  0  0  0  0  0  0  0  0
    0.9256    5.3412    1.4140 C   0  0  0  0  0  0  0  0  0  0  0  0
   -0.1081    3.8792    1.5816 S   0  0  0  0  0  0  0  0  0  0  0  0
    0.9339    2.3658    1.7306 C   0  0  0  0  0  0  0  0  0  0  0  0
    0.0464    1.2149    1.8583 C   0  0  0  0  0  0  0  0  0  0  0  0
   -1.3451    1.4472    1.8401 C   0  0  0  0  0  0  0  0  0  0  0  0
   -2.2496    0.4197    1.9780 C   0  0  0  0  0  0  0  0  0  0  0  0
   -1.7821   -0.8621    2.1365 C   0  0  0  0  0  0  0  0  0  0  0  0
   -0.4142   -1.1078    2.1571 C   0  0  0  0  0  0  0  0  0  0  0  0
    0.5180   -0.0541    2.0153 C   0  0  0  0  0  0  0  0  0  0  0  0
    1.9237   -0.3717    2.0015 C   0  0  0  0  0  0  0  0  0  0  0  0
    2.2907   -1.1415    2.9722 O   0  0  0  0  0  0  0  0  0  0  0  0
    2.9145    0.0189    1.1116 N   0  0  0  0  0  0  0  0  0  0  0  0
    4.2722   -0.3629    1.2764 C   0  0  0  0  0  0  0  0  0  0  0  0
    4.9313   -0.5006    2.4611 C   0  0  0  0  0  0  0  0  0  0  0  0
    6.2788   -0.8981    2.5633 C   0  0  0  0  0  0  0  0  0  0  0  0
    6.9674   -1.1649    1.4005 C   0  0  0  0  0  0  0  0  0  0  0  0
    8.2701   -1.5556    1.4031 F   0  0  0  0  0  0  0  0  0  0  0  0
    6.3414   -1.0396    0.1842 C   0  0  0  0  0  0  0  0  0  0  0  0
    5.0123   -0.6433    0.1175 C   0  0  0  0  0  0  0  0  0  0  0  0
    7.1040   -1.3276   -1.0294 C   0  0  0  0  0  0  0  0  0  0  0  0
    6.5827   -2.2153   -1.9578 C   0  0  0  0  0  0  0  0  0  0  0  0
    7.2633   -2.5047   -3.1338 C   0  0  0  0  0  0  0  0  0  0  0  0
    6.5826   -3.6426   -4.2896 Cl  0  0  0  0  0  0  0  0  0  0  0  0
    8.4700   -1.9283   -3.4238 C   0  0  0  0  0  0  0  0  0  0  0  0
    8.9959   -1.0328   -2.4872 C   0  0  0  0  0  0  0  0  0  0  0  0
   10.5303   -0.2885   -2.8575 Cl  0  0  0  0  0  0  0  0  0  0  0  0
    8.3175   -0.7498   -1.3233 C   0  0  0  0  0  0  0  0  0  0  0  0
   -3.9472    0.8352    1.9828 S   0  0  0  0  0  0  0  0  0  0  0  0
   -4.6935   -0.2575    2.6968 O   0  0  0  0  0  0  0  0  0  0  0  0
   -4.1418    2.1158    2.7846 O   0  0  0  0  0  0  0  0  0  0  0  0
   -4.5841    1.1396    0.4311 N   0  0  0  0  0  0  0  0  0  0  0  0
   -5.5604    0.3430   -0.2081 C   0  0  0  0  0  0  0  0  0  0  0  0
   -5.4317    0.0422   -1.5686 C   0  0  0  0  0  0  0  0  0  0  0  0
   -6.3831   -0.7060   -2.2091 C   0  0  0  0  0  0  0  0  0  0  0  0
   -7.5000   -1.1952   -1.5595 C   0  0  0  0  0  0  0  0  0  0  0  0
   -7.6261   -0.9013   -0.2256 C   0  0  0  0  0  0  0  0  0  0  0  0
   -6.6753   -0.1472    0.4362 C   0  0  0  0  0  0  0  0  0  0  0  0
   -8.4926   -1.9884   -2.3025 C   0  0  0  0  0  0  0  0  0  0  0  0
   -8.5963   -3.4597   -1.7843 C   0  0  0  0  0  0  0  0  0  0  0  0
   -9.7433   -2.4795   -1.7196 C   0  0  0  0  0  0  0  0  0  0  0  0
    1.2292    4.4438   -0.5688 H   0  0  0  0  0  0  0  0  0  0  0  0
    2.7152    4.9881    0.2764 H   0  0  0  0  0  0  0  0  0  0  0  0
    1.5701    6.2018   -0.4703 H   0  0  0  0  0  0  0  0  0  0  0  0
    0.2987    6.2371    1.3755 H   0  0  0  0  0  0  0  0  0  0  0  0
    1.6105    5.3683    2.2838 H   0  0  0  0  0  0  0  0  0  0  0  0
    1.6752    2.3556    0.9422 H   0  0  0  0  0  0  0  0  0  0  0  0
    1.5181    2.4373    2.6950 H   0  0  0  0  0  0  0  0  0  0  0  0
   -1.7206    2.4491    1.7182 H   0  0  0  0  0  0  0  0  0  0  0  0
   -2.4984   -1.6597    2.2460 H   0  0  0  0  0  0  0  0  0  0  0  0
   -0.0282   -2.1110    2.2802 H   0  0  0  0  0  0  0  0  0  0  0  0
    2.7451    0.5942    0.2394 H   0  0  0  0  0  0  0  0  0  0  0  0
    4.4340   -0.2884    3.3837 H   0  0  0  0  0  0  0  0  0  0  0  0
    6.7735   -0.9998    3.5080 H   0  0  0  0  0  0  0  0  0  0  0  0
    4.5195   -0.5444   -0.8387 H   0  0  0  0  0  0  0  0  0  0  0  0
    5.6340   -2.6717   -1.7362 H   0  0  0  0  0  0  0  0  0  0  0  0
    8.9876   -2.1591   -4.3401 H   0  0  0  0  0  0  0  0  0  0  0  0
    8.7176   -0.0492   -0.5827 H   0  0  0  0  0  0  0  0  0  0  0  0
   -4.2319    1.9796   -0.0981 H   0  0  0  0  0  0  0  0  0  0  0  0
   -4.5399    0.4408   -2.0566 H   0  0  0  0  0  0  0  0  0  0  0  0
   -6.2709   -0.9343   -3.2708 H   0  0  0  0  0  0  0  0  0  0  0  0
   -8.5000   -1.2839    0.2972 H   0  0  0  0  0  0  0  0  0  0  0  0
   -6.7966    0.0743    1.4924 H   0  0  0  0  0  0  0  0  0  0  0  0
   -8.3931   -1.9274   -3.4124 H   0  0  0  0  0  0  0  0  0  0  0  0
   -8.6146   -4.2400   -2.5795 H   0  0  0  0  0  0  0  0  0  0  0  0
   -8.0200   -3.7187   -0.8907 H   0  0  0  0  0  0  0  0  0  0  0  0
  -10.5853   -2.7343   -2.4082 H   0  0  0  0  0  0  0  0  0  0  0  0
  -10.0774   -2.1179   -0.7021 H   0  0  0  0  0  0  0  0  0  0  0  0
  1  2  1  0
  2  3  1  0
  3  4  1  0
  4  5  1  0
  5  6  2  0
  6  7  1  0
  7  8  2  0
  8  9  1  0
  9 10  2  0
 10 11  1  0
 11 12  2  0
 11 13  1  0
 13 14  1  0
 14 15  2  0
 15 16  1  0
 16 17  2  0
 17 18  1  0
 17 19  1  0
 19 20  2  0
 19 21  1  0
 21 22  2  0
 22 23  1  0
 23 24  1  0
 23 25  2  0
 25 26  1  0
 26 27  1  0
 26 28  2  0
  7 29  1  0
 29 30  2  0
 29 31  2  0
 29 32  1  0
 32 33  1  0
 33 34  2  0
 34 35  1  0
 35 36  2  0
 36 37  1  0
 37 38  2  0
 36 39  1  0
 39 40  1  0
 40 41  1  0
 10  5  1  0
 20 14  1  0
 28 21  1  0
 38 33  1  0
 41 39  1  0
  1 42  1  0
  1 43  1  0
  1 44  1  0
  2 45  1  0
  2 46  1  0
  4 47  1  0
  4 48  1  0
  6 49  1  0
  8 50  1  0
  9 51  1  0
 13 52  1  0
 15 53  1  0
 16 54  1  0
 20 55  1  0
 22 56  1  0
 25 57  1  0
 28 58  1  0
 32 59  1  0
 34 60  1  0
 35 61  1  0
 37 62  1  0
 38 63  1  0
 39 64  1  0
 40 65  1  0
 40 66  1  0
 41 67  1  0
 41 68  1  0
M  END
$$$$
[H]C1=C(OC([H])([H])C([H])([H])C([H])([H])[H])C([H])=C([H])[C@]2([H])C([H])([H])C([H])([H])[C@]3([H])[C@@]2([H])C([H])([H])C([H])([H])C(=C1[H])C([H])(c1c([H])c([H])c([H])c(N([H])S(=O)(=O)C([H])([H])[H])c1[H])[C@]3([H])C(C([H])([H])[H])(C([H])([H])[H])C([H])([H])[H]
     RDKit          3D

 75 78  0  0  0  0  0  0  0  0999 V2000
   -6.3139    3.9036   -1.0719 C   0  0  0  0  0  0  0  0  0  0  0  0
   -5.1004    3.3528   -0.3330 C   0  0  0  0  0  0  0  0  0  0  0  0
   -5.5884    2.4615    0.8172 C   0  0  0  0  0  0  0  0  0  0  0  0
   -4.5109    1.9298    1.5283 O   0  0  0  0  0  0  0  0  0  0  0  0
   -3.5370    1.0890    0.8556 C   0  0  0  0  0  0  0  0  0  0  0  0
   -2.3207    1.5252    1.0721 C   0  0  0  0  0  0  0  0  0  0  0  0
   -1.0711    0.9668    0.5836 C   0  0  0  0  0  0  0  0  0  0  0  0
   -0.4923   -0.1496    0.9775 C   0  0  0  0  0  0  0  0  0  0  0  0
   -1.0866   -0.9971    2.0413 C   0  0  0  0  0  0  0  0  0  0  0  0
   -1.7976   -2.1469    1.4619 C   0  0  0  0  0  0  0  0  0  0  0  0
   -1.7183   -2.3156    0.0086 C   0  0  1  0  0  0  0  0  0  0  0  0
   -2.4083   -1.4186   -0.9312 C   0  0  1  0  0  0  0  0  0  0  0  0
   -2.2637   -2.4060   -2.1243 C   0  0  0  0  0  0  0  0  0  0  0  0
   -0.6826   -2.3139   -2.0413 C   0  0  0  0  0  0  0  0  0  0  0  0
   -0.4042   -2.5596   -0.6184 C   0  0  1  0  0  0  0  0  0  0  0  0
    0.8046   -1.9640    0.0690 C   0  0  2  0  0  0  0  0  0  0  0  0
    0.7448   -0.5003    0.1579 C   0  0  0  0  0  0  0  0  0  0  0  0
    1.8007    0.3554    0.5887 C   0  0  0  0  0  0  0  0  0  0  0  0
    2.2496    0.3846    1.8851 C   0  0  0  0  0  0  0  0  0  0  0  0
    3.2353    1.2130    2.3529 C   0  0  0  0  0  0  0  0  0  0  0  0
    3.8407    2.0913    1.4894 C   0  0  0  0  0  0  0  0  0  0  0  0
    3.4521    2.1241    0.1852 C   0  0  0  0  0  0  0  0  0  0  0  0
    4.0431    3.0213   -0.7237 N   0  0  0  0  0  0  0  0  0  0  0  0
    5.7258    3.2239   -0.8968 S   0  0  0  0  0  0  0  0  0  0  0  0
    6.5602    3.8031    0.5406 C   0  0  0  0  0  0  0  0  0  0  0  0
    6.3943    1.9097   -1.2780 O   0  0  0  0  0  0  0  0  0  0  0  0
    6.0355    4.1562   -2.0641 O   0  0  0  0  0  0  0  0  0  0  0  0
    2.4549    1.2712   -0.2412 C   0  0  0  0  0  0  0  0  0  0  0  0
    2.0223   -2.6831   -0.3411 C   0  0  0  0  0  0  0  0  0  0  0  0
    3.3346   -2.2887    0.2708 C   0  0  0  0  0  0  0  0  0  0  0  0
    1.8366   -4.1610    0.0740 C   0  0  0  0  0  0  0  0  0  0  0  0
    2.2488   -2.7610   -1.8355 C   0  0  0  0  0  0  0  0  0  0  0  0
   -3.7365   -1.0011   -0.5889 C   0  0  0  0  0  0  0  0  0  0  0  0
   -4.1073    0.0060    0.1258 C   0  0  0  0  0  0  0  0  0  0  0  0
   -5.9600    4.3326   -2.0208 H   0  0  0  0  0  0  0  0  0  0  0  0
   -6.9667    3.0125   -1.2980 H   0  0  0  0  0  0  0  0  0  0  0  0
   -6.8135    4.6249   -0.4157 H   0  0  0  0  0  0  0  0  0  0  0  0
   -4.5610    4.2261    0.0906 H   0  0  0  0  0  0  0  0  0  0  0  0
   -4.4159    2.8256   -1.0010 H   0  0  0  0  0  0  0  0  0  0  0  0
   -6.1109    3.1531    1.5115 H   0  0  0  0  0  0  0  0  0  0  0  0
   -6.3248    1.7305    0.4673 H   0  0  0  0  0  0  0  0  0  0  0  0
   -2.2081    2.4544    1.6687 H   0  0  0  0  0  0  0  0  0  0  0  0
   -0.4875    1.5009   -0.1962 H   0  0  0  0  0  0  0  0  0  0  0  0
   -0.3125   -1.3761    2.7638 H   0  0  0  0  0  0  0  0  0  0  0  0
   -1.7633   -0.3799    2.7055 H   0  0  0  0  0  0  0  0  0  0  0  0
   -1.4340   -3.1179    1.9166 H   0  0  0  0  0  0  0  0  0  0  0  0
   -2.8756   -2.1259    1.7538 H   0  0  0  0  0  0  0  0  0  0  0  0
   -2.3241   -3.2951   -0.1128 H   0  0  0  0  0  0  0  0  0  0  0  0
   -1.9448   -0.6054   -1.4589 H   0  0  0  0  0  0  0  0  0  0  0  0
   -2.6182   -1.9972   -3.0554 H   0  0  0  0  0  0  0  0  0  0  0  0
   -2.5916   -3.3910   -1.8191 H   0  0  0  0  0  0  0  0  0  0  0  0
   -0.5157   -1.2580   -2.3825 H   0  0  0  0  0  0  0  0  0  0  0  0
   -0.3738   -3.0598   -2.7701 H   0  0  0  0  0  0  0  0  0  0  0  0
   -0.2108   -3.6857   -0.5414 H   0  0  0  0  0  0  0  0  0  0  0  0
    0.6371   -2.3108    1.1478 H   0  0  0  0  0  0  0  0  0  0  0  0
    0.5269   -0.1954   -0.9321 H   0  0  0  0  0  0  0  0  0  0  0  0
    1.8050   -0.2876    2.6003 H   0  0  0  0  0  0  0  0  0  0  0  0
    3.5531    1.1886    3.4107 H   0  0  0  0  0  0  0  0  0  0  0  0
    4.6189    2.7479    1.8815 H   0  0  0  0  0  0  0  0  0  0  0  0
    3.3997    3.5916   -1.3225 H   0  0  0  0  0  0  0  0  0  0  0  0
    7.4978    4.3193    0.1992 H   0  0  0  0  0  0  0  0  0  0  0  0
    6.9020    2.9837    1.2086 H   0  0  0  0  0  0  0  0  0  0  0  0
    5.9680    4.5673    1.1138 H   0  0  0  0  0  0  0  0  0  0  0  0
    2.1659    1.3188   -1.2820 H   0  0  0  0  0  0  0  0  0  0  0  0
    3.2619   -2.4110    1.3709 H   0  0  0  0  0  0  0  0  0  0  0  0
    3.8186   -1.4076   -0.1098 H   0  0  0  0  0  0  0  0  0  0  0  0
    4.1170   -3.1151    0.0236 H   0  0  0  0  0  0  0  0  0  0  0  0
    2.8519   -4.5532    0.2732 H   0  0  0  0  0  0  0  0  0  0  0  0
    1.4594   -4.7733   -0.7722 H   0  0  0  0  0  0  0  0  0  0  0  0
    1.2578   -4.2490    0.9940 H   0  0  0  0  0  0  0  0  0  0  0  0
    1.9043   -1.9158   -2.4124 H   0  0  0  0  0  0  0  0  0  0  0  0
    1.8499   -3.6883   -2.2912 H   0  0  0  0  0  0  0  0  0  0  0  0
    3.3595   -2.8351   -2.0495 H   0  0  0  0  0  0  0  0  0  0  0  0
   -4.5235   -1.6792   -1.0299 H   0  0  0  0  0  0  0  0  0  0  0  0
   -5.2628    0.0137    0.1763 H   0  0  0  0  0  0  0  0  0  0  0  0
  1  2  1  0
  2  3  1  0
  3  4  1  0
  4  5  1  0
  5  6  2  0
  6  7  1  0
  7  8  2  0
  8  9  1  0
  9 10  1  0
 10 11  1  0
 11 12  1  0
 12 13  1  0
 13 14  1  0
 14 15  1  0
 15 16  1  0
 16 17  1  0
 17 18  1  0
 18 19  2  0
 19 20  1  0
 20 21  2  0
 21 22  1  0
 22 23  1  0
 23 24  1  0
 24 25  1  0
 24 26  2  0
 24 27  2  0
 22 28  2  0
 16 29  1  0
 29 30  1  0
 29 31  1  0
 29 32  1  0
 12 33  1  0
 33 34  2  0
 34  5  1  0
 17  8  1  0
 28 18  1  0
 15 11  1  0
  1 35  1  0
  1 36  1  0
  1 37  1  0
  2 38  1  0
  2 39  1  0
  3 40  1  0
  3 41  1  0
  6 42  1  0
  7 43  1  0
  9 44  1  0
  9 45  1  0
 10 46  1  0
 10 47  1  0
 11 48  1  1
 12 49  1  6
 13 50  1  0
 13 51  1  0
 14 52  1  0
 14 53  1  0
 15 54  1  6
 16 55  1  1
 17 56  1  0
 19 57  1  0
 20 58  1  0
 21 59  1  0
 23 60  1  0
 25 61  1  0
 25 62  1  0
 25 63  1  0
 28 64  1  0
 30 65  1  0
 30 66  1  0
 30 67  1  0
 31 68  1  0
 31 69  1  0
 31 70  1  0
 32 71  1  0
 32 72  1  0
 32 73  1  0
 33 74  1  0
 34 75  1  0
M  END
$$$$
[H]c1c([H])c([C@]2([H])N3C([H])(c4c([H])c([H])c([N+](=O)[O-])c([H])c4[H])C([H])([H])[C@]([H])(N([H])S(=O)(=O)C2([H])[H])C3([H])[H])c([H])c([H])c1Cl
     RDKit          3D

 45 48  0  0  0  0  0  0  0  0999 V2000
   -2.7587   -2.7242   -2.4270 O   0  0  0  0  0  0  0  0  0  0  0  0
   -1.3322   -2.5647   -1.9166 S   0  0  0  0  0  0  0  0  0  0  0  0
   -0.4532   -2.9430   -3.0923 O   0  0  0  0  0  0  0  0  0  0  0  0
   -1.1008   -3.6642   -0.6814 N   0  0  0  0  0  0  0  0  0  0  0  0
   -0.4559   -3.1943    0.4956 C   0  0  2  0  0  0  0  0  0  0  0  0
   -1.2996   -2.2573    1.3194 C   0  0  0  0  0  0  0  0  0  0  0  0
   -0.7730   -0.9358    0.9096 N   0  0  0  0  0  0  0  0  0  0  0  0
    0.6016   -1.1837    0.9411 C   0  0  0  0  0  0  0  0  0  0  0  0
    0.8523   -2.4740    0.2026 C   0  0  0  0  0  0  0  0  0  0  0  0
    1.5647   -0.1436    0.6530 C   0  0  0  0  0  0  0  0  0  0  0  0
    2.6209   -0.4087   -0.1872 C   0  0  0  0  0  0  0  0  0  0  0  0
    3.5927    0.5231   -0.5125 C   0  0  0  0  0  0  0  0  0  0  0  0
    3.4662    1.7656    0.0496 C   0  0  0  0  0  0  0  0  0  0  0  0
    2.4175    2.0454    0.8904 C   0  0  0  0  0  0  0  0  0  0  0  0
    1.4611    1.1038    1.2012 C   0  0  0  0  0  0  0  0  0  0  0  0
    4.4320    2.7520   -0.2508 N   0  0  0  0  0  0  0  0  0  0  0  0
    4.3051    3.9955    0.3120 O   0  0  0  0  0  0  0  0  0  0  0  0
    5.3991    2.5643   -0.9994 O   0  0  0  0  0  0  0  0  0  0  0  0
   -1.4757   -0.4874   -0.1954 C   0  0  2  0  0  0  0  0  0  0  0  0
   -1.0464   -0.8710   -1.5708 C   0  0  0  0  0  0  0  0  0  0  0  0
   -1.8435    0.9366   -0.0276 C   0  0  0  0  0  0  0  0  0  0  0  0
   -2.4289    1.3525    1.1549 C   0  0  0  0  0  0  0  0  0  0  0  0
   -2.7930    2.6576    1.3729 C   0  0  0  0  0  0  0  0  0  0  0  0
   -2.5714    3.5832    0.3898 C   0  0  0  0  0  0  0  0  0  0  0  0
   -3.0275    5.2588    0.6421 Cl  0  0  0  0  0  0  0  0  0  0  0  0
   -1.9797    3.1882   -0.8179 C   0  0  0  0  0  0  0  0  0  0  0  0
   -1.6191    1.8464   -1.0089 C   0  0  0  0  0  0  0  0  0  0  0  0
   -0.6540   -4.5571   -0.9791 H   0  0  0  0  0  0  0  0  0  0  0  0
   -0.2073   -4.0634    1.1331 H   0  0  0  0  0  0  0  0  0  0  0  0
   -1.1583   -2.3691    2.3965 H   0  0  0  0  0  0  0  0  0  0  0  0
   -2.3344   -2.3210    0.9750 H   0  0  0  0  0  0  0  0  0  0  0  0
    0.8194   -1.4693    2.0316 H   0  0  0  0  0  0  0  0  0  0  0  0
    1.7296   -3.0265    0.6303 H   0  0  0  0  0  0  0  0  0  0  0  0
    1.0365   -2.3793   -0.8663 H   0  0  0  0  0  0  0  0  0  0  0  0
    2.7522   -1.3950   -0.6491 H   0  0  0  0  0  0  0  0  0  0  0  0
    4.4206    0.2701   -1.1885 H   0  0  0  0  0  0  0  0  0  0  0  0
    2.3170    3.0523    1.3446 H   0  0  0  0  0  0  0  0  0  0  0  0
    0.6265    1.3566    1.8835 H   0  0  0  0  0  0  0  0  0  0  0  0
   -2.5113   -0.9933   -0.1292 H   0  0  0  0  0  0  0  0  0  0  0  0
   -0.0460   -0.4976   -1.8607 H   0  0  0  0  0  0  0  0  0  0  0  0
   -1.7430   -0.3121   -2.2742 H   0  0  0  0  0  0  0  0  0  0  0  0
   -2.5962    0.5956    1.9260 H   0  0  0  0  0  0  0  0  0  0  0  0
   -3.2407    2.9442    2.2931 H   0  0  0  0  0  0  0  0  0  0  0  0
   -1.8052    3.9044   -1.5858 H   0  0  0  0  0  0  0  0  0  0  0  0
   -1.1601    1.5395   -1.9272 H   0  0  0  0  0  0  0  0  0  0  0  0
  1  2  2  0
  2  3  2  0
  2  4  1  0
  4  5  1  0
  5  6  1  0
  6  7  1  0
  7  8  1  0
  8  9  1  0
  8 10  1  0
 10 11  2  0
 11 12  1  0
 12 13  2  0
 13 14  1  0
 14 15  2  0
 13 16  1  0
 16 17  1  0
 16 18  2  0
  7 19  1  0
 19 20  1  0
 19 21  1  0
 21 22  2  0
 22 23  1  0
 23 24  2  0
 24 25  1  0
 24 26  1  0
 26 27  2  0
 20  2  1  0
 27 21  1  0
  9  5  1  0
 15 10  1  0
  4 28  1  0
  5 29  1  1
  6 30  1  0
  6 31  1  0
  8 32  1  0
  9 33  1  0
  9 34  1  0
 11 35  1  0
 12 36  1  0
 14 37  1  0
 15 38  1  0
 19 39  1  1
 20 40  1  0
 20 41  1  0
 22 42  1  0
 23 43  1  0
 26 44  1  0
 27 45  1  0
M  CHG  2  16   1  17  -1
M  END
$$$$
[H]OC([H])([H])c1c([H])c([H])c([H])c([H])c1C([H])([H])C([H])([H])c1nc([H])nc2c([H])c(N([H])C(=O)c3c([H])n(C([H])([H])C([H])([H])[H])c4c([H])c([H])c([H])c([H])c34)c([H])c([H])c12
     RDKit          3D

 60 64  0  0  0  0  0  0  0  0999 V2000
    8.5029   -1.0935   -0.6944 C   0  0  0  0  0  0  0  0  0  0  0  0
    7.0430   -1.3305   -0.8068 C   0  0  0  0  0  0  0  0  0  0  0  0
    6.1915   -0.2553   -0.3732 N   0  0  0  0  0  0  0  0  0  0  0  0
    5.4488    0.5315   -1.1169 C   0  0  0  0  0  0  0  0  0  0  0  0
    4.6387    1.2651   -0.2087 C   0  0  0  0  0  0  0  0  0  0  0  0
    3.3507    1.7859   -0.7960 C   0  0  0  0  0  0  0  0  0  0  0  0
    3.3235    2.3003   -1.9183 O   0  0  0  0  0  0  0  0  0  0  0  0
    2.2135    1.5618   -0.0185 N   0  0  0  0  0  0  0  0  0  0  0  0
    0.8352    1.6306   -0.5306 C   0  0  0  0  0  0  0  0  0  0  0  0
   -0.2197    1.7355    0.3063 C   0  0  0  0  0  0  0  0  0  0  0  0
   -1.4288    1.1011   -0.0344 C   0  0  0  0  0  0  0  0  0  0  0  0
   -1.5151    0.3849   -1.2373 C   0  0  0  0  0  0  0  0  0  0  0  0
   -2.6109   -0.3670   -1.4694 C   0  0  0  0  0  0  0  0  0  0  0  0
   -3.7964   -0.5124   -0.6755 C   0  0  0  0  0  0  0  0  0  0  0  0
   -4.8643    0.5614   -0.8131 C   0  0  0  0  0  0  0  0  0  0  0  0
   -6.1209   -0.1996   -0.3286 C   0  0  0  0  0  0  0  0  0  0  0  0
   -6.6036   -1.0772   -1.3065 C   0  0  0  0  0  0  0  0  0  0  0  0
   -7.6575   -1.9009   -1.0208 C   0  0  0  0  0  0  0  0  0  0  0  0
   -8.2698   -1.8951    0.2193 C   0  0  0  0  0  0  0  0  0  0  0  0
   -7.7668   -1.0199    1.1558 C   0  0  0  0  0  0  0  0  0  0  0  0
   -6.6725   -0.1515    0.8913 C   0  0  0  0  0  0  0  0  0  0  0  0
   -6.0443    0.6518    1.9354 C   0  0  0  0  0  0  0  0  0  0  0  0
   -6.8726    1.6998    2.4447 O   0  0  0  0  0  0  0  0  0  0  0  0
   -2.5311   -1.2002   -2.5939 N   0  0  0  0  0  0  0  0  0  0  0  0
   -1.4969   -1.2829   -3.3907 C   0  0  0  0  0  0  0  0  0  0  0  0
   -0.4055   -0.5201   -3.1577 N   0  0  0  0  0  0  0  0  0  0  0  0
   -0.4330    0.3144   -2.0619 C   0  0  0  0  0  0  0  0  0  0  0  0
    0.7554    0.9376   -1.7331 C   0  0  0  0  0  0  0  0  0  0  0  0
    4.9056    0.9292    1.0423 C   0  0  0  0  0  0  0  0  0  0  0  0
    4.4622    1.2860    2.2923 C   0  0  0  0  0  0  0  0  0  0  0  0
    4.9425    0.7016    3.4385 C   0  0  0  0  0  0  0  0  0  0  0  0
    5.9010   -0.2772    3.3804 C   0  0  0  0  0  0  0  0  0  0  0  0
    6.3621   -0.6444    2.1036 C   0  0  0  0  0  0  0  0  0  0  0  0
    5.9051   -0.0706    0.9580 C   0  0  0  0  0  0  0  0  0  0  0  0
    8.7903   -0.1164   -0.2601 H   0  0  0  0  0  0  0  0  0  0  0  0
    8.9246   -1.8608    0.0499 H   0  0  0  0  0  0  0  0  0  0  0  0
    9.0714   -1.3372   -1.6482 H   0  0  0  0  0  0  0  0  0  0  0  0
    6.7218   -2.3313   -0.3786 H   0  0  0  0  0  0  0  0  0  0  0  0
    6.8061   -1.4884   -1.9253 H   0  0  0  0  0  0  0  0  0  0  0  0
    5.4236    0.6884   -2.1673 H   0  0  0  0  0  0  0  0  0  0  0  0
    2.2925    1.3449    1.0200 H   0  0  0  0  0  0  0  0  0  0  0  0
   -0.1672    2.2984    1.2562 H   0  0  0  0  0  0  0  0  0  0  0  0
   -2.3002    1.1400    0.5701 H   0  0  0  0  0  0  0  0  0  0  0  0
   -3.6346   -0.6610    0.4419 H   0  0  0  0  0  0  0  0  0  0  0  0
   -4.3493   -1.4792   -0.9654 H   0  0  0  0  0  0  0  0  0  0  0  0
   -4.7111    1.3418    0.0002 H   0  0  0  0  0  0  0  0  0  0  0  0
   -4.9960    1.0119   -1.7562 H   0  0  0  0  0  0  0  0  0  0  0  0
   -6.1169   -1.0616   -2.2909 H   0  0  0  0  0  0  0  0  0  0  0  0
   -8.0293   -2.6017   -1.7910 H   0  0  0  0  0  0  0  0  0  0  0  0
   -9.0939   -2.5742    0.4610 H   0  0  0  0  0  0  0  0  0  0  0  0
   -8.2346   -1.0377    2.1563 H   0  0  0  0  0  0  0  0  0  0  0  0
   -5.0053    0.7538    1.8899 H   0  0  0  0  0  0  0  0  0  0  0  0
   -6.2293   -0.0918    2.9165 H   0  0  0  0  0  0  0  0  0  0  0  0
   -6.4778    2.5881    2.1457 H   0  0  0  0  0  0  0  0  0  0  0  0
   -1.4455   -1.9550   -4.2578 H   0  0  0  0  0  0  0  0  0  0  0  0
    1.5852    0.9134   -2.3900 H   0  0  0  0  0  0  0  0  0  0  0  0
    3.7448    2.1200    2.3631 H   0  0  0  0  0  0  0  0  0  0  0  0
    4.5564    1.0232    4.4184 H   0  0  0  0  0  0  0  0  0  0  0  0
    6.2749   -0.7636    4.2611 H   0  0  0  0  0  0  0  0  0  0  0  0
    7.1278   -1.4443    1.9990 H   0  0  0  0  0  0  0  0  0  0  0  0
  1  2  1  0
  2  3  1  0
  3  4  1  0
  4  5  2  0
  5  6  1  0
  6  7  2  0
  6  8  1  0
  8  9  1  0
  9 10  2  0
 10 11  1  0
 11 12  2  0
 12 13  1  0
 13 14  1  0
 14 15  1  0
 15 16  1  0
 16 17  2  0
 17 18  1  0
 18 19  2  0
 19 20  1  0
 20 21  2  0
 21 22  1  0
 22 23  1  0
 13 24  2  0
 24 25  1  0
 25 26  2  0
 26 27  1  0
 27 28  2  0
  5 29  1  0
 29 30  2  0
 30 31  1  0
 31 32  2  0
 32 33  1  0
 33 34  2  0
 34  3  1  0
 28  9  1  0
 34 29  1  0
 27 12  1  0
 21 16  1  0
  1 35  1  0
  1 36  1  0
  1 37  1  0
  2 38  1  0
  2 39  1  0
  4 40  1  0
  8 41  1  0
 10 42  1  0
 11 43  1  0
 14 44  1  0
 14 45  1  0
 15 46  1  0
 15 47  1  0
 17 48  1  0
 18 49  1  0
 19 50  1  0
 20 51  1  0
 22 52  1  0
 22 53  1  0
 23 54  1  0
 25 55  1  0
 28 56  1  0
 30 57  1  0
 31 58  1  0
 32 59  1  0
 33 60  1  0
M  END
$$$$
[H]OC(=O)c1c([H])c([H])c(O[C@@]2([H])O[C@]([H])(C([H])([H])N3C([H])([H])[C@@]([H])(C([H])([H])C([H])([H])c4c([H])c([H])c([H])c([H])c4[H])[C@]([H])(O[H])[C@@]3([H])O[H])C([H])([H])C([H])([H])[C@@]2([H])OC([H])([H])C([H])([H])c2c([H])c([H])c(-c3c([H])nc([H])c([H])c3[H])c([H])c2[H])c([H])c1[H]
     RDKit          3D

 89 94  0  0  0  0  0  0  0  0999 V2000
    1.4097   -7.1970   -3.4765 O   0  0  0  0  0  0  0  0  0  0  0  0
    0.9203   -5.9095   -3.4503 C   0  0  0  0  0  0  0  0  0  0  0  0
    0.4234   -5.4561   -4.5101 O   0  0  0  0  0  0  0  0  0  0  0  0
    0.9640   -5.0742   -2.2425 C   0  0  0  0  0  0  0  0  0  0  0  0
    1.5090   -5.5386   -1.0658 C   0  0  0  0  0  0  0  0  0  0  0  0
    1.5494   -4.7593    0.0721 C   0  0  0  0  0  0  0  0  0  0  0  0
    1.0413   -3.4669    0.0851 C   0  0  0  0  0  0  0  0  0  0  0  0
    1.1058   -2.7491    1.2300 O   0  0  0  0  0  0  0  0  0  0  0  0
    0.6683   -1.4403    1.4832 C   0  0  1  0  0  0  0  0  0  0  0  0
   -0.4698   -1.5661    2.2748 O   0  0  0  0  0  0  0  0  0  0  0  0
   -1.0636   -0.3674    2.5945 C   0  0  2  0  0  0  0  0  0  0  0  0
   -1.9007    0.1897    1.4690 C   0  0  0  0  0  0  0  0  0  0  0  0
   -2.9736   -0.6960    1.0766 N   0  0  0  0  0  0  0  0  0  0  0  0
   -3.6739   -0.0245   -0.0266 C   0  0  0  0  0  0  0  0  0  0  0  0
   -4.6009    0.9742    0.5766 C   0  0  1  0  0  0  0  0  0  0  0  0
   -5.8783    1.0673   -0.2318 C   0  0  0  0  0  0  0  0  0  0  0  0
   -6.8290    2.0762    0.3838 C   0  0  0  0  0  0  0  0  0  0  0  0
   -8.0936    2.2037   -0.3776 C   0  0  0  0  0  0  0  0  0  0  0  0
   -9.1535    1.3791   -0.0635 C   0  0  0  0  0  0  0  0  0  0  0  0
  -10.3581    1.4486   -0.7262 C   0  0  0  0  0  0  0  0  0  0  0  0
  -10.5351    2.3646   -1.7414 C   0  0  0  0  0  0  0  0  0  0  0  0
   -9.4838    3.1934   -2.0638 C   0  0  0  0  0  0  0  0  0  0  0  0
   -8.2618    3.1239   -1.3921 C   0  0  0  0  0  0  0  0  0  0  0  0
   -4.8400    0.4536    1.9585 C   0  0  2  0  0  0  0  0  0  0  0  0
   -4.5610    1.3788    2.9425 O   0  0  0  0  0  0  0  0  0  0  0  0
   -4.0116   -0.8045    2.0626 C   0  0  1  0  0  0  0  0  0  0  0  0
   -4.8486   -1.8705    1.6872 O   0  0  0  0  0  0  0  0  0  0  0  0
   -0.0852    0.6964    3.0172 C   0  0  0  0  0  0  0  0  0  0  0  0
    1.1833   -0.0390    3.4594 C   0  0  0  0  0  0  0  0  0  0  0  0
    1.7379   -0.6207    2.1364 C   0  0  1  0  0  0  0  0  0  0  0  0
    2.9354   -1.2432    2.3404 O   0  0  0  0  0  0  0  0  0  0  0  0
    4.0248   -0.6131    1.7744 C   0  0  0  0  0  0  0  0  0  0  0  0
    3.9738   -0.4945    0.2715 C   0  0  0  0  0  0  0  0  0  0  0  0
    5.1936    0.2071   -0.2411 C   0  0  0  0  0  0  0  0  0  0  0  0
    6.3544   -0.4588   -0.5676 C   0  0  0  0  0  0  0  0  0  0  0  0
    7.4529    0.2568   -1.0447 C   0  0  0  0  0  0  0  0  0  0  0  0
    7.4346    1.6240   -1.2081 C   0  0  0  0  0  0  0  0  0  0  0  0
    6.2730    2.2952   -0.8824 C   0  0  0  0  0  0  0  0  0  0  0  0
    5.1934    1.5818   -0.4124 C   0  0  0  0  0  0  0  0  0  0  0  0
    8.5994    2.3496   -1.7098 C   0  0  0  0  0  0  0  0  0  0  0  0
    8.8487    3.6404   -1.3073 C   0  0  0  0  0  0  0  0  0  0  0  0
    9.9483    4.3083   -1.7845 C   0  0  0  0  0  0  0  0  0  0  0  0
   10.8138    3.6830   -2.6753 C   0  0  0  0  0  0  0  0  0  0  0  0
   10.5291    2.4330   -3.0351 N   0  0  0  0  0  0  0  0  0  0  0  0
    9.4703    1.7690   -2.5854 C   0  0  0  0  0  0  0  0  0  0  0  0
    0.5044   -3.0296   -1.1036 C   0  0  0  0  0  0  0  0  0  0  0  0
    0.4562   -3.7962   -2.2509 C   0  0  0  0  0  0  0  0  0  0  0  0
    1.0934   -7.8732   -2.7948 H   0  0  0  0  0  0  0  0  0  0  0  0
    1.9113   -6.5549   -1.0763 H   0  0  0  0  0  0  0  0  0  0  0  0
    1.9981   -5.2105    0.9496 H   0  0  0  0  0  0  0  0  0  0  0  0
    0.3033   -1.0156    0.5250 H   0  0  0  0  0  0  0  0  0  0  0  0
   -1.7444   -0.5450    3.4490 H   0  0  0  0  0  0  0  0  0  0  0  0
   -1.3119    0.4300    0.5704 H   0  0  0  0  0  0  0  0  0  0  0  0
   -2.3455    1.1323    1.8491 H   0  0  0  0  0  0  0  0  0  0  0  0
   -4.1687   -0.7549   -0.6965 H   0  0  0  0  0  0  0  0  0  0  0  0
   -2.9164    0.4969   -0.6506 H   0  0  0  0  0  0  0  0  0  0  0  0
   -4.1332    1.9987    0.6444 H   0  0  0  0  0  0  0  0  0  0  0  0
   -5.6062    1.3443   -1.2619 H   0  0  0  0  0  0  0  0  0  0  0  0
   -6.3619    0.0690   -0.1841 H   0  0  0  0  0  0  0  0  0  0  0  0
   -7.0258    1.7962    1.4360 H   0  0  0  0  0  0  0  0  0  0  0  0
   -6.3127    3.0668    0.4047 H   0  0  0  0  0  0  0  0  0  0  0  0
   -9.0316    0.6658    0.7166 H   0  0  0  0  0  0  0  0  0  0  0  0
  -11.1823    0.7806   -0.4529 H   0  0  0  0  0  0  0  0  0  0  0  0
  -11.4846    2.4107   -2.2556 H   0  0  0  0  0  0  0  0  0  0  0  0
   -9.6609    3.9011   -2.8691 H   0  0  0  0  0  0  0  0  0  0  0  0
   -7.4627    3.7889   -1.6748 H   0  0  0  0  0  0  0  0  0  0  0  0
   -5.9294    0.2087    2.0404 H   0  0  0  0  0  0  0  0  0  0  0  0
   -4.4754    2.3035    2.6181 H   0  0  0  0  0  0  0  0  0  0  0  0
   -3.6828   -1.0190    3.0782 H   0  0  0  0  0  0  0  0  0  0  0  0
   -4.7884   -2.0934    0.7481 H   0  0  0  0  0  0  0  0  0  0  0  0
    0.2378    1.3155    2.1374 H   0  0  0  0  0  0  0  0  0  0  0  0
   -0.5154    1.2984    3.8117 H   0  0  0  0  0  0  0  0  0  0  0  0
    1.8660    0.6878    3.8930 H   0  0  0  0  0  0  0  0  0  0  0  0
    0.9658   -0.8347    4.1771 H   0  0  0  0  0  0  0  0  0  0  0  0
    1.9065    0.2885    1.5216 H   0  0  0  0  0  0  0  0  0  0  0  0
    4.1587    0.4235    2.1646 H   0  0  0  0  0  0  0  0  0  0  0  0
    4.9899   -1.1308    2.0498 H   0  0  0  0  0  0  0  0  0  0  0  0
    4.0140   -1.5186   -0.1878 H   0  0  0  0  0  0  0  0  0  0  0  0
    3.1181    0.0875   -0.0747 H   0  0  0  0  0  0  0  0  0  0  0  0
    6.4155   -1.5351   -0.4532 H   0  0  0  0  0  0  0  0  0  0  0  0
    8.3433   -0.3336   -1.2839 H   0  0  0  0  0  0  0  0  0  0  0  0
    6.2055    3.3741   -0.9950 H   0  0  0  0  0  0  0  0  0  0  0  0
    4.3118    2.1540   -0.1729 H   0  0  0  0  0  0  0  0  0  0  0  0
    8.1481    4.1004   -0.6071 H   0  0  0  0  0  0  0  0  0  0  0  0
   10.1481    5.3237   -1.4684 H   0  0  0  0  0  0  0  0  0  0  0  0
   11.6932    4.2096   -3.0593 H   0  0  0  0  0  0  0  0  0  0  0  0
    9.3021    0.7398   -2.9283 H   0  0  0  0  0  0  0  0  0  0  0  0
    0.0912   -2.0442   -1.1858 H   0  0  0  0  0  0  0  0  0  0  0  0
    0.0217   -3.4153   -3.1709 H   0  0  0  0  0  0  0  0  0  0  0  0
  1  2  1  0
  2  3  2  0
  2  4  1  0
  4  5  2  0
  5  6  1  0
  6  7  2  0
  7  8  1  0
  8  9  1  0
  9 10  1  0
 10 11  1  0
 11 12  1  0
 12 13  1  0
 13 14  1  0
 14 15  1  0
 15 16  1  0
 16 17  1  0
 17 18  1  0
 18 19  2  0
 19 20  1  0
 20 21  2  0
 21 22  1  0
 22 23  2  0
 15 24  1  0
 24 25  1  0
 24 26  1  0
 26 27  1  0
 11 28  1  0
 28 29  1  0
 29 30  1  0
 30 31  1  0
 31 32  1  0
 32 33  1  0
 33 34  1  0
 34 35  2  0
 35 36  1  0
 36 37  2  0
 37 38  1  0
 38 39  2  0
 37 40  1  0
 40 41  2  0
 41 42  1  0
 42 43  2  0
 43 44  1  0
 44 45  2  0
  7 46  1  0
 46 47  2  0
 47  4  1  0
 30  9  1  0
 39 34  1  0
 45 40  1  0
 26 13  1  0
 23 18  1  0
  1 48  1  0
  5 49  1  0
  6 50  1  0
  9 51  1  6
 11 52  1  1
 12 53  1  0
 12 54  1  0
 14 55  1  0
 14 56  1  0
 15 57  1  1
 16 58  1  0
 16 59  1  0
 17 60  1  0
 17 61  1  0
 19 62  1  0
 20 63  1  0
 21 64  1  0
 22 65  1  0
 23 66  1  0
 24 67  1  6
 25 68  1  0
 26 69  1  1
 27 70  1  0
 28 71  1  0
 28 72  1  0
 29 73  1  0
 29 74  1  0
 30 75  1  6
 32 76  1  0
 32 77  1  0
 33 78  1  0
 33 79  1  0
 35 80  1  0
 36 81  1  0
 38 82  1  0
 39 83  1  0
 41 84  1  0
 42 85  1  0
 43 86  1  0
 45 87  1  0
 46 88  1  0
 47 89  1  0
M  END
$$$$
[H]c1c(OC([H])([H])[C@@]2([H])C([H])([H])C(=O)N(C([H])([H])[H])C2([H])[H])c(OC([H])([H])[H])c([H])c(C([H])([H])[H])c1-c1nc2c([H])c(N3C([H])([H])C([H])([H])N([H])[C@@]([H])(C([H])([H])[H])C3([H])[H])c([H])c([H])c2n1[H]
     RDKit          3D

 67 71  0  0  0  0  0  0  0  0999 V2000
    8.4612   -0.8828   -2.6190 C   0  0  0  0  0  0  0  0  0  0  0  0
    7.4533   -0.2166   -1.7029 C   0  0  1  0  0  0  0  0  0  0  0  0
    6.6776   -1.2897   -0.9242 C   0  0  0  0  0  0  0  0  0  0  0  0
    5.7421   -0.5700   -0.1144 N   0  0  0  0  0  0  0  0  0  0  0  0
    6.2934    0.3875    0.8201 C   0  0  0  0  0  0  0  0  0  0  0  0
    7.7828    0.5906    0.5625 C   0  0  0  0  0  0  0  0  0  0  0  0
    8.0913    0.7012   -0.8237 N   0  0  0  0  0  0  0  0  0  0  0  0
    4.3451   -0.7490   -0.1900 C   0  0  0  0  0  0  0  0  0  0  0  0
    3.7192   -1.6100   -1.0564 C   0  0  0  0  0  0  0  0  0  0  0  0
    2.3304   -1.7524   -1.0933 C   0  0  0  0  0  0  0  0  0  0  0  0
    1.5217   -1.0155   -0.2405 C   0  0  0  0  0  0  0  0  0  0  0  0
    0.1944   -0.9005   -0.0078 N   0  0  0  0  0  0  0  0  0  0  0  0
   -0.0231    0.0115    0.9826 C   0  0  0  0  0  0  0  0  0  0  0  0
    1.1812    0.4401    1.3400 N   0  0  0  0  0  0  0  0  0  0  0  0
    2.1361   -0.1510    0.6306 C   0  0  0  0  0  0  0  0  0  0  0  0
    3.4896   -0.0210    0.6572 C   0  0  0  0  0  0  0  0  0  0  0  0
   -1.2984    0.4261    1.5328 C   0  0  0  0  0  0  0  0  0  0  0  0
   -2.4685   -0.1639    1.0140 C   0  0  0  0  0  0  0  0  0  0  0  0
   -3.7044    0.1861    1.4915 C   0  0  0  0  0  0  0  0  0  0  0  0
   -4.8859   -0.3387    1.0385 O   0  0  0  0  0  0  0  0  0  0  0  0
   -5.1311   -1.2546    0.0577 C   0  0  0  0  0  0  0  0  0  0  0  0
   -4.7517   -0.9176   -1.3431 C   0  0  2  0  0  0  0  0  0  0  0  0
   -5.4575    0.3277   -1.8505 C   0  0  0  0  0  0  0  0  0  0  0  0
   -6.8105   -0.1265   -2.1817 N   0  0  0  0  0  0  0  0  0  0  0  0
   -7.9607    0.7158   -2.3828 C   0  0  0  0  0  0  0  0  0  0  0  0
   -6.8305   -1.5403   -2.2788 C   0  0  0  0  0  0  0  0  0  0  0  0
   -7.8381   -2.2960   -2.3903 O   0  0  0  0  0  0  0  0  0  0  0  0
   -5.4276   -1.9924   -2.2256 C   0  0  0  0  0  0  0  0  0  0  0  0
   -3.7695    1.1521    2.5167 C   0  0  0  0  0  0  0  0  0  0  0  0
   -5.0546    1.4664    2.9620 O   0  0  0  0  0  0  0  0  0  0  0  0
   -5.2649    2.4190    3.9860 C   0  0  0  0  0  0  0  0  0  0  0  0
   -2.6495    1.7375    3.0355 C   0  0  0  0  0  0  0  0  0  0  0  0
   -1.4170    1.3517    2.5196 C   0  0  0  0  0  0  0  0  0  0  0  0
   -0.2353    2.0059    3.1036 C   0  0  0  0  0  0  0  0  0  0  0  0
    9.3655   -0.2473   -2.7448 H   0  0  0  0  0  0  0  0  0  0  0  0
    8.7341   -1.8476   -2.1729 H   0  0  0  0  0  0  0  0  0  0  0  0
    7.9459   -1.0642   -3.5881 H   0  0  0  0  0  0  0  0  0  0  0  0
    6.6788    0.3119   -2.3212 H   0  0  0  0  0  0  0  0  0  0  0  0
    6.2722   -2.0409   -1.5956 H   0  0  0  0  0  0  0  0  0  0  0  0
    7.4207   -1.7428   -0.1962 H   0  0  0  0  0  0  0  0  0  0  0  0
    6.1659    0.0830    1.8682 H   0  0  0  0  0  0  0  0  0  0  0  0
    5.8132    1.3797    0.7020 H   0  0  0  0  0  0  0  0  0  0  0  0
    8.0337    1.5820    1.0358 H   0  0  0  0  0  0  0  0  0  0  0  0
    8.3659   -0.1676    1.1004 H   0  0  0  0  0  0  0  0  0  0  0  0
    7.9864    1.6908   -1.1883 H   0  0  0  0  0  0  0  0  0  0  0  0
    4.2973   -2.2146   -1.7500 H   0  0  0  0  0  0  0  0  0  0  0  0
    1.8622   -2.4368   -1.7846 H   0  0  0  0  0  0  0  0  0  0  0  0
   -0.5419   -1.4383   -0.5207 H   0  0  0  0  0  0  0  0  0  0  0  0
    3.9955    0.6686    1.3510 H   0  0  0  0  0  0  0  0  0  0  0  0
   -2.3541   -0.8991    0.2471 H   0  0  0  0  0  0  0  0  0  0  0  0
   -6.2137   -1.5394    0.0527 H   0  0  0  0  0  0  0  0  0  0  0  0
   -4.5736   -2.2163    0.2988 H   0  0  0  0  0  0  0  0  0  0  0  0
   -3.7055   -0.9721   -1.5956 H   0  0  0  0  0  0  0  0  0  0  0  0
   -5.4670    1.0682   -1.0531 H   0  0  0  0  0  0  0  0  0  0  0  0
   -4.9953    0.7180   -2.7699 H   0  0  0  0  0  0  0  0  0  0  0  0
   -7.6152    1.7181   -2.6685 H   0  0  0  0  0  0  0  0  0  0  0  0
   -8.6403    0.3457   -3.1858 H   0  0  0  0  0  0  0  0  0  0  0  0
   -8.5314    0.8336   -1.4171 H   0  0  0  0  0  0  0  0  0  0  0  0
   -5.3083   -2.9783   -1.7235 H   0  0  0  0  0  0  0  0  0  0  0  0
   -4.9789   -1.9557   -3.2320 H   0  0  0  0  0  0  0  0  0  0  0  0
   -5.1022    1.9948    5.0007 H   0  0  0  0  0  0  0  0  0  0  0  0
   -4.5966    3.2887    3.7983 H   0  0  0  0  0  0  0  0  0  0  0  0
   -6.3028    2.7881    3.9404 H   0  0  0  0  0  0  0  0  0  0  0  0
   -2.7108    2.4705    3.8143 H   0  0  0  0  0  0  0  0  0  0  0  0
   -0.5272    2.7630    3.8815 H   0  0  0  0  0  0  0  0  0  0  0  0
    0.3035    2.5901    2.3304 H   0  0  0  0  0  0  0  0  0  0  0  0
    0.4830    1.3355    3.5920 H   0  0  0  0  0  0  0  0  0  0  0  0
  1  2  1  0
  2  3  1  0
  3  4  1  0
  4  5  1  0
  5  6  1  0
  6  7  1  0
  4  8  1  0
  8  9  2  0
  9 10  1  0
 10 11  2  0
 11 12  1  0
 12 13  1  0
 13 14  2  0
 14 15  1  0
 15 16  2  0
 13 17  1  0
 17 18  2  0
 18 19  1  0
 19 20  1  0
 20 21  1  0
 21 22  1  0
 22 23  1  0
 23 24  1  0
 24 25  1  0
 24 26  1  0
 26 27  2  0
 26 28  1  0
 19 29  2  0
 29 30  1  0
 30 31  1  0
 29 32  1  0
 32 33  2  0
 33 34  1  0
  7  2  1  0
 16  8  1  0
 33 17  1  0
 15 11  1  0
 28 22  1  0
  1 35  1  0
  1 36  1  0
  1 37  1  0
  2 38  1  6
  3 39  1  0
  3 40  1  0
  5 41  1  0
  5 42  1  0
  6 43  1  0
  6 44  1  0
  7 45  1  0
  9 46  1  0
 10 47  1  0
 12 48  1  0
 16 49  1  0
 18 50  1  0
 21 51  1  0
 21 52  1  0
 22 53  1  1
 23 54  1  0
 23 55  1  0
 25 56  1  0
 25 57  1  0
 25 58  1  0
 28 59  1  0
 28 60  1  0
 31 61  1  0
 31 62  1  0
 31 63  1  0
 32 64  1  0
 34 65  1  0
 34 66  1  0
 34 67  1  0
M  END
$$$$
[H]c1sc(-c2c([H])c([H])c(OC(F)(F)F)c([H])c2[H])nc1N([H])C(=O)N([H])C1([H])C([H])([H])C([H])([H])N(C(=O)C([H])([H])C([H])(C([H])([H])[H])C([H])([H])C([H])([H])[H])C([H])([H])C1([H])[H]
     RDKit          3D

 60 62  0  0  0  0  0  0  0  0999 V2000
   -8.6838    0.6334   -0.1176 C   0  0  0  0  0  0  0  0  0  0  0  0
   -7.8125   -0.5256   -0.5301 C   0  0  0  0  0  0  0  0  0  0  0  0
   -6.6318   -0.7272    0.3835 C   0  0  0  0  0  0  0  0  0  0  0  0
   -7.0918   -0.9942    1.8133 C   0  0  0  0  0  0  0  0  0  0  0  0
   -5.6554    0.3984    0.3982 C   0  0  0  0  0  0  0  0  0  0  0  0
   -5.0301    0.6727   -0.9367 C   0  0  0  0  0  0  0  0  0  0  0  0
   -5.7092    1.3647   -1.7437 O   0  0  0  0  0  0  0  0  0  0  0  0
   -3.7680    0.1980   -1.2749 N   0  0  0  0  0  0  0  0  0  0  0  0
   -3.0069   -0.6297   -0.3463 C   0  0  0  0  0  0  0  0  0  0  0  0
   -1.8975   -1.3379   -1.0428 C   0  0  0  0  0  0  0  0  0  0  0  0
   -0.9706   -0.4643   -1.8665 C   0  0  0  0  0  0  0  0  0  0  0  0
   -1.6870    0.8783   -2.1183 C   0  0  0  0  0  0  0  0  0  0  0  0
   -3.1292    0.5142   -2.5324 C   0  0  0  0  0  0  0  0  0  0  0  0
    0.2726   -0.2885   -1.2805 N   0  0  0  0  0  0  0  0  0  0  0  0
    1.4914   -0.1162   -0.7061 C   0  0  0  0  0  0  0  0  0  0  0  0
    2.6182   -0.1762   -1.2474 O   0  0  0  0  0  0  0  0  0  0  0  0
    1.5175    0.1751    0.7155 N   0  0  0  0  0  0  0  0  0  0  0  0
    2.7973    0.3309    1.3771 C   0  0  0  0  0  0  0  0  0  0  0  0
    2.8361    0.6510    2.7194 C   0  0  0  0  0  0  0  0  0  0  0  0
    4.5126    0.6669    3.0211 S   0  0  0  0  0  0  0  0  0  0  0  0
    5.0604    0.2677    1.4303 C   0  0  0  0  0  0  0  0  0  0  0  0
    3.9342    0.1514    0.7817 N   0  0  0  0  0  0  0  0  0  0  0  0
    6.4562    0.0975    1.0067 C   0  0  0  0  0  0  0  0  0  0  0  0
    6.7797   -0.1910   -0.2655 C   0  0  0  0  0  0  0  0  0  0  0  0
    8.1235   -0.3687   -0.6314 C   0  0  0  0  0  0  0  0  0  0  0  0
    9.1245   -0.2502    0.3146 C   0  0  0  0  0  0  0  0  0  0  0  0
   10.4796   -0.4141    0.0279 O   0  0  0  0  0  0  0  0  0  0  0  0
   11.3018    0.6798   -0.3728 C   0  0  0  0  0  0  0  0  0  0  0  0
   12.5961    0.2232   -0.5677 F   0  0  0  0  0  0  0  0  0  0  0  0
   11.2724    1.6221    0.6283 F   0  0  0  0  0  0  0  0  0  0  0  0
   10.7986    1.2726   -1.5182 F   0  0  0  0  0  0  0  0  0  0  0  0
    8.7924    0.0479    1.6277 C   0  0  0  0  0  0  0  0  0  0  0  0
    7.4655    0.2130    1.9309 C   0  0  0  0  0  0  0  0  0  0  0  0
   -9.7033    0.5135   -0.5884 H   0  0  0  0  0  0  0  0  0  0  0  0
   -8.8972    0.6648    0.9740 H   0  0  0  0  0  0  0  0  0  0  0  0
   -8.3049    1.5843   -0.5108 H   0  0  0  0  0  0  0  0  0  0  0  0
   -8.3778   -1.4928   -0.5283 H   0  0  0  0  0  0  0  0  0  0  0  0
   -7.4629   -0.3548   -1.5533 H   0  0  0  0  0  0  0  0  0  0  0  0
   -6.1639   -1.6918    0.0623 H   0  0  0  0  0  0  0  0  0  0  0  0
   -7.8470   -1.7870    1.8319 H   0  0  0  0  0  0  0  0  0  0  0  0
   -6.2129   -1.3503    2.3975 H   0  0  0  0  0  0  0  0  0  0  0  0
   -7.5162   -0.0943    2.2573 H   0  0  0  0  0  0  0  0  0  0  0  0
   -6.2022    1.3254    0.6881 H   0  0  0  0  0  0  0  0  0  0  0  0
   -4.8704    0.2547    1.1733 H   0  0  0  0  0  0  0  0  0  0  0  0
   -2.7223   -0.0246    0.5081 H   0  0  0  0  0  0  0  0  0  0  0  0
   -3.7069   -1.4359    0.0353 H   0  0  0  0  0  0  0  0  0  0  0  0
   -1.2574   -1.7880   -0.2300 H   0  0  0  0  0  0  0  0  0  0  0  0
   -2.2269   -2.1833   -1.6563 H   0  0  0  0  0  0  0  0  0  0  0  0
   -0.9361   -0.9235   -2.8950 H   0  0  0  0  0  0  0  0  0  0  0  0
   -1.7011    1.3745   -1.1311 H   0  0  0  0  0  0  0  0  0  0  0  0
   -1.1980    1.4390   -2.9142 H   0  0  0  0  0  0  0  0  0  0  0  0
   -3.5361    1.3854   -3.0518 H   0  0  0  0  0  0  0  0  0  0  0  0
   -3.0186   -0.3706   -3.1858 H   0  0  0  0  0  0  0  0  0  0  0  0
    0.8742   -0.4089   -2.4877 H   0  0  0  0  0  0  0  0  0  0  0  0
    0.6250    0.2662    1.2333 H   0  0  0  0  0  0  0  0  0  0  0  0
    1.9917    0.8449    3.4006 H   0  0  0  0  0  0  0  0  0  0  0  0
    6.0472   -0.3003   -1.0481 H   0  0  0  0  0  0  0  0  0  0  0  0
    8.4178   -0.6046   -1.6470 H   0  0  0  0  0  0  0  0  0  0  0  0
    9.5910    0.1356    2.3695 H   0  0  0  0  0  0  0  0  0  0  0  0
    7.1585    0.4471    2.9586 H   0  0  0  0  0  0  0  0  0  0  0  0
  1  2  1  0
  2  3  1  0
  3  4  1  0
  3  5  1  0
  5  6  1  0
  6  7  2  0
  6  8  1  0
  8  9  1  0
  9 10  1  0
 10 11  1  0
 11 12  1  0
 12 13  1  0
 11 14  1  0
 14 15  1  0
 15 16  2  0
 15 17  1  0
 17 18  1  0
 18 19  2  0
 19 20  1  0
 20 21  1  0
 21 22  2  0
 21 23  1  0
 23 24  2  0
 24 25  1  0
 25 26  2  0
 26 27  1  0
 27 28  1  0
 28 29  1  0
 28 30  1  0
 28 31  1  0
 26 32  1  0
 32 33  2  0
 13  8  1  0
 22 18  1  0
 33 23  1  0
  1 34  1  0
  1 35  1  0
  1 36  1  0
  2 37  1  0
  2 38  1  0
  3 39  1  0
  4 40  1  0
  4 41  1  0
  4 42  1  0
  5 43  1  0
  5 44  1  0
  9 45  1  0
  9 46  1  0
 10 47  1  0
 10 48  1  0
 11 49  1  0
 12 50  1  0
 12 51  1  0
 13 52  1  0
 13 53  1  0
 14 54  1  0
 17 55  1  0
 19 56  1  0
 24 57  1  0
 25 58  1  0
 32 59  1  0
 33 60  1  0
M  END
$$$$
[H]c1nc([H])n(C([H])([H])C([H])([H])C([H])([H])C(=O)N2C([H])([H])C([H])([H])C([H])(N(C(=O)N3C([H])([H])C([H])([H])C([H])([H])C3([H])[H])C(=O)[C@]([H])(N([H])C(=O)c3c([H])c([H])c([H])c([H])c3[H])C([H])([H])c3c([H])c([H])c([H])c([H])c3[H])C([H])([H])C2([H])[H])c1[H]
     RDKit          3D

 83 87  0  0  0  0  0  0  0  0999 V2000
    4.1195   -0.5107    2.1854 O   0  0  0  0  0  0  0  0  0  0  0  0
    3.7882   -0.1855    1.0290 C   0  0  0  0  0  0  0  0  0  0  0  0
    4.7258    0.5805    0.1932 C   0  0  0  0  0  0  0  0  0  0  0  0
    6.0179    0.7625    0.9313 C   0  0  0  0  0  0  0  0  0  0  0  0
    7.0352    1.5455    0.1320 C   0  0  0  0  0  0  0  0  0  0  0  0
    8.2328    1.6550    0.9399 N   0  0  0  0  0  0  0  0  0  0  0  0
    9.2737    0.7989    0.9658 C   0  0  0  0  0  0  0  0  0  0  0  0
   10.2254    1.2346    1.8580 C   0  0  0  0  0  0  0  0  0  0  0  0
    9.7530    2.3645    2.3741 N   0  0  0  0  0  0  0  0  0  0  0  0
    8.5559    2.6284    1.8309 C   0  0  0  0  0  0  0  0  0  0  0  0
    2.5095   -0.5642    0.5447 N   0  0  0  0  0  0  0  0  0  0  0  0
    1.6579   -1.3105    1.4541 C   0  0  0  0  0  0  0  0  0  0  0  0
    0.2031   -0.8838    1.1222 C   0  0  0  0  0  0  0  0  0  0  0  0
    0.0227   -1.2268   -0.3223 C   0  0  0  0  0  0  0  0  0  0  0  0
    0.6944   -0.0734   -1.0808 C   0  0  0  0  0  0  0  0  0  0  0  0
    2.1823   -0.1818   -0.7985 C   0  0  0  0  0  0  0  0  0  0  0  0
   -1.2468   -1.6352   -0.7756 N   0  0  0  0  0  0  0  0  0  0  0  0
   -2.4298   -0.8255   -0.6784 C   0  0  0  0  0  0  0  0  0  0  0  0
   -3.5232   -1.3794   -1.1159 O   0  0  0  0  0  0  0  0  0  0  0  0
   -2.5838    0.5253   -0.1560 C   0  0  1  0  0  0  0  0  0  0  0  0
   -2.6434    1.5516   -1.2760 C   0  0  0  0  0  0  0  0  0  0  0  0
   -2.7573    2.9422   -0.8185 C   0  0  0  0  0  0  0  0  0  0  0  0
   -1.5767    3.5691   -0.4007 C   0  0  0  0  0  0  0  0  0  0  0  0
   -1.5689    4.8824    0.0120 C   0  0  0  0  0  0  0  0  0  0  0  0
   -2.7040    5.6377    0.0354 C   0  0  0  0  0  0  0  0  0  0  0  0
   -3.8747    5.0428   -0.3708 C   0  0  0  0  0  0  0  0  0  0  0  0
   -3.8811    3.7046   -0.7915 C   0  0  0  0  0  0  0  0  0  0  0  0
   -3.7793    0.6707    0.6513 N   0  0  0  0  0  0  0  0  0  0  0  0
   -5.1062    0.6497    0.1969 C   0  0  0  0  0  0  0  0  0  0  0  0
   -5.4812    0.5010   -0.9900 O   0  0  0  0  0  0  0  0  0  0  0  0
   -6.2312    0.8139    1.1510 C   0  0  0  0  0  0  0  0  0  0  0  0
   -6.0264    0.7340    2.4950 C   0  0  0  0  0  0  0  0  0  0  0  0
   -7.0739    0.9039    3.4121 C   0  0  0  0  0  0  0  0  0  0  0  0
   -8.3573    1.1595    2.9611 C   0  0  0  0  0  0  0  0  0  0  0  0
   -8.5573    1.2382    1.6053 C   0  0  0  0  0  0  0  0  0  0  0  0
   -7.5146    1.0687    0.7141 C   0  0  0  0  0  0  0  0  0  0  0  0
   -1.4240   -2.9317   -1.3345 C   0  0  0  0  0  0  0  0  0  0  0  0
   -2.6373   -3.1488   -1.8042 O   0  0  0  0  0  0  0  0  0  0  0  0
   -0.6007   -4.0356   -1.4998 N   0  0  0  0  0  0  0  0  0  0  0  0
    0.7199   -4.4061   -1.1398 C   0  0  0  0  0  0  0  0  0  0  0  0
    0.9126   -5.8978   -1.3509 C   0  0  0  0  0  0  0  0  0  0  0  0
   -0.5280   -6.3514   -1.4517 C   0  0  0  0  0  0  0  0  0  0  0  0
   -1.0982   -5.2254   -2.2808 C   0  0  0  0  0  0  0  0  0  0  0  0
    4.2953    1.5608   -0.1346 H   0  0  0  0  0  0  0  0  0  0  0  0
    4.9754    0.0679   -0.7782 H   0  0  0  0  0  0  0  0  0  0  0  0
    5.7867    1.4014    1.8256 H   0  0  0  0  0  0  0  0  0  0  0  0
    6.4011   -0.2005    1.2719 H   0  0  0  0  0  0  0  0  0  0  0  0
    6.6168    2.5490   -0.0854 H   0  0  0  0  0  0  0  0  0  0  0  0
    7.3222    1.0301   -0.8059 H   0  0  0  0  0  0  0  0  0  0  0  0
    9.3956   -0.1223    0.3837 H   0  0  0  0  0  0  0  0  0  0  0  0
   11.1707    0.7270    2.0739 H   0  0  0  0  0  0  0  0  0  0  0  0
    7.9601    3.4869    2.0778 H   0  0  0  0  0  0  0  0  0  0  0  0
    1.7239   -2.3774    1.1651 H   0  0  0  0  0  0  0  0  0  0  0  0
    1.9076   -1.1048    2.4948 H   0  0  0  0  0  0  0  0  0  0  0  0
   -0.5149   -1.3067    1.8143 H   0  0  0  0  0  0  0  0  0  0  0  0
    0.2750    0.2382    1.2720 H   0  0  0  0  0  0  0  0  0  0  0  0
    0.7908   -2.0603   -0.5222 H   0  0  0  0  0  0  0  0  0  0  0  0
    0.5291   -0.1319   -2.1612 H   0  0  0  0  0  0  0  0  0  0  0  0
    0.3348    0.8613   -0.6174 H   0  0  0  0  0  0  0  0  0  0  0  0
    2.6083    0.8201   -1.0055 H   0  0  0  0  0  0  0  0  0  0  0  0
    2.6127   -0.8818   -1.5448 H   0  0  0  0  0  0  0  0  0  0  0  0
   -1.6884    0.8558    0.4380 H   0  0  0  0  0  0  0  0  0  0  0  0
   -3.5258    1.3849   -1.9599 H   0  0  0  0  0  0  0  0  0  0  0  0
   -1.7116    1.5089   -1.8928 H   0  0  0  0  0  0  0  0  0  0  0  0
   -0.6298    3.0541   -0.3844 H   0  0  0  0  0  0  0  0  0  0  0  0
   -0.6405    5.3563    0.3371 H   0  0  0  0  0  0  0  0  0  0  0  0
   -2.6617    6.6652    0.3659 H   0  0  0  0  0  0  0  0  0  0  0  0
   -4.7813    5.6317   -0.3538 H   0  0  0  0  0  0  0  0  0  0  0  0
   -4.8459    3.3475   -1.1063 H   0  0  0  0  0  0  0  0  0  0  0  0
   -3.5700    0.8062    1.6884 H   0  0  0  0  0  0  0  0  0  0  0  0
   -5.0693    0.5356    2.9423 H   0  0  0  0  0  0  0  0  0  0  0  0
   -6.9307    0.8478    4.4804 H   0  0  0  0  0  0  0  0  0  0  0  0
   -9.1833    1.2952    3.6745 H   0  0  0  0  0  0  0  0  0  0  0  0
   -9.5472    1.4368    1.2393 H   0  0  0  0  0  0  0  0  0  0  0  0
   -7.6748    1.1331   -0.3537 H   0  0  0  0  0  0  0  0  0  0  0  0
    1.5306   -3.8947   -1.6949 H   0  0  0  0  0  0  0  0  0  0  0  0
    0.8256   -4.2442   -0.0281 H   0  0  0  0  0  0  0  0  0  0  0  0
    1.3777   -6.3429   -0.4490 H   0  0  0  0  0  0  0  0  0  0  0  0
    1.5082   -6.1357   -2.2361 H   0  0  0  0  0  0  0  0  0  0  0  0
   -0.5041   -7.3076   -2.0239 H   0  0  0  0  0  0  0  0  0  0  0  0
   -1.0102   -6.4561   -0.4811 H   0  0  0  0  0  0  0  0  0  0  0  0
   -0.7053   -5.1941   -3.2934 H   0  0  0  0  0  0  0  0  0  0  0  0
   -2.1779   -5.2322   -2.1632 H   0  0  0  0  0  0  0  0  0  0  0  0
  1  2  2  0
  2  3  1  0
  3  4  1  0
  4  5  1  0
  5  6  1  0
  6  7  1  0
  7  8  2  0
  8  9  1  0
  9 10  2  0
  2 11  1  0
 11 12  1  0
 12 13  1  0
 13 14  1  0
 14 15  1  0
 15 16  1  0
 14 17  1  0
 17 18  1  0
 18 19  2  0
 18 20  1  0
 20 21  1  0
 21 22  1  0
 22 23  2  0
 23 24  1  0
 24 25  2  0
 25 26  1  0
 26 27  2  0
 20 28  1  0
 28 29  1  0
 29 30  2  0
 29 31  1  0
 31 32  2  0
 32 33  1  0
 33 34  2  0
 34 35  1  0
 35 36  2  0
 17 37  1  0
 37 38  2  0
 37 39  1  0
 39 40  1  0
 40 41  1  0
 41 42  1  0
 42 43  1  0
 10  6  1  0
 16 11  1  0
 27 22  1  0
 36 31  1  0
 43 39  1  0
  3 44  1  0
  3 45  1  0
  4 46  1  0
  4 47  1  0
  5 48  1  0
  5 49  1  0
  7 50  1  0
  8 51  1  0
 10 52  1  0
 12 53  1  0
 12 54  1  0
 13 55  1  0
 13 56  1  0
 14 57  1  0
 15 58  1  0
 15 59  1  0
 16 60  1  0
 16 61  1  0
 20 62  1  1
 21 63  1  0
 21 64  1  0
 23 65  1  0
 24 66  1  0
 25 67  1  0
 26 68  1  0
 27 69  1  0
 28 70  1  0
 32 71  1  0
 33 72  1  0
 34 73  1  0
 35 74  1  0
 36 75  1  0
 40 76  1  0
 40 77  1  0
 41 78  1  0
 41 79  1  0
 42 80  1  0
 42 81  1  0
 43 82  1  0
 43 83  1  0
M  END
$$$$
[H]c1c(C(F)(F)F)oc(C([H])([H])[C@@]([H])(c2c([H])c([H])c([H])c([H])c2[H])N([H])C(=O)c2c([H])c([H])c(-c3c([H])c([H])c([H])c(S(=O)(=O)C([H])([H])C([H])(C([H])([H])[H])C([H])([H])[H])c3[H])c([H])c2[H])c1[H]
     RDKit          3D

 67 70  0  0  0  0  0  0  0  0999 V2000
    8.9386   -1.2988    0.9982 C   0  0  0  0  0  0  0  0  0  0  0  0
    9.1078    0.1315    0.6727 C   0  0  0  0  0  0  0  0  0  0  0  0
    9.3583    0.8961    1.9920 C   0  0  0  0  0  0  0  0  0  0  0  0
    8.2461    0.8714   -0.2339 C   0  0  0  0  0  0  0  0  0  0  0  0
    6.5830    1.1469   -0.0766 S   0  0  0  0  0  0  0  0  0  0  0  0
    6.1861    2.2087   -1.1543 O   0  0  0  0  0  0  0  0  0  0  0  0
    6.2448    1.8266    1.2766 O   0  0  0  0  0  0  0  0  0  0  0  0
    5.4230   -0.1062   -0.2367 C   0  0  0  0  0  0  0  0  0  0  0  0
    5.6906   -1.4226   -0.4400 C   0  0  0  0  0  0  0  0  0  0  0  0
    4.6461   -2.3483   -0.6268 C   0  0  0  0  0  0  0  0  0  0  0  0
    3.3386   -1.9243   -0.6045 C   0  0  0  0  0  0  0  0  0  0  0  0
    3.0396   -0.5947   -0.4012 C   0  0  0  0  0  0  0  0  0  0  0  0
    4.0407    0.2901   -0.2188 C   0  0  0  0  0  0  0  0  0  0  0  0
    1.6559   -0.0828   -0.4672 C   0  0  0  0  0  0  0  0  0  0  0  0
    0.7629   -0.6624   -1.3435 C   0  0  0  0  0  0  0  0  0  0  0  0
   -0.5180   -0.2213   -1.5142 C   0  0  0  0  0  0  0  0  0  0  0  0
   -0.9990    0.8712   -0.7887 C   0  0  0  0  0  0  0  0  0  0  0  0
   -0.1168    1.4592    0.0920 C   0  0  0  0  0  0  0  0  0  0  0  0
    1.1969    0.9894    0.2545 C   0  0  0  0  0  0  0  0  0  0  0  0
   -2.3441    1.3626   -1.0200 C   0  0  0  0  0  0  0  0  0  0  0  0
   -2.4106    2.5203   -1.5728 O   0  0  0  0  0  0  0  0  0  0  0  0
   -3.5477    0.7067   -0.7037 N   0  0  0  0  0  0  0  0  0  0  0  0
   -4.8360    1.2995   -1.0066 C   0  0  1  0  0  0  0  0  0  0  0  0
   -5.6096    0.4619   -1.9813 C   0  0  0  0  0  0  0  0  0  0  0  0
   -5.8982   -0.9088   -1.4856 C   0  0  0  0  0  0  0  0  0  0  0  0
   -5.1065   -2.0304   -1.6059 C   0  0  0  0  0  0  0  0  0  0  0  0
   -5.8026   -3.0587   -0.9929 C   0  0  0  0  0  0  0  0  0  0  0  0
   -6.9835   -2.5295   -0.5256 C   0  0  0  0  0  0  0  0  0  0  0  0
   -6.9797   -1.2601   -0.8465 O   0  0  0  0  0  0  0  0  0  0  0  0
   -8.0820   -3.2414    0.2107 C   0  0  0  0  0  0  0  0  0  0  0  0
   -8.0758   -2.7469    1.4993 F   0  0  0  0  0  0  0  0  0  0  0  0
   -7.9510   -4.5922    0.1194 F   0  0  0  0  0  0  0  0  0  0  0  0
   -9.2566   -2.7851   -0.4084 F   0  0  0  0  0  0  0  0  0  0  0  0
   -5.6674    1.5936    0.1726 C   0  0  0  0  0  0  0  0  0  0  0  0
   -5.8352    0.7495    1.2585 C   0  0  0  0  0  0  0  0  0  0  0  0
   -6.6224    1.0811    2.3294 C   0  0  0  0  0  0  0  0  0  0  0  0
   -7.2655    2.2942    2.3213 C   0  0  0  0  0  0  0  0  0  0  0  0
   -7.1234    3.1623    1.2608 C   0  0  0  0  0  0  0  0  0  0  0  0
   -6.3315    2.8333    0.1788 C   0  0  0  0  0  0  0  0  0  0  0  0
    8.9916   -1.9504    0.0974 H   0  0  0  0  0  0  0  0  0  0  0  0
    8.0558   -1.5249    1.6407 H   0  0  0  0  0  0  0  0  0  0  0  0
    9.8422   -1.6013    1.6122 H   0  0  0  0  0  0  0  0  0  0  0  0
   10.1643    0.1831    0.1845 H   0  0  0  0  0  0  0  0  0  0  0  0
   10.3849    0.6558    2.3495 H   0  0  0  0  0  0  0  0  0  0  0  0
    8.6484    0.4627    2.7025 H   0  0  0  0  0  0  0  0  0  0  0  0
    9.2978    1.9789    1.8491 H   0  0  0  0  0  0  0  0  0  0  0  0
    8.8098    1.8762   -0.4717 H   0  0  0  0  0  0  0  0  0  0  0  0
    8.4257    0.3765   -1.2860 H   0  0  0  0  0  0  0  0  0  0  0  0
    6.6935   -1.7995   -0.4995 H   0  0  0  0  0  0  0  0  0  0  0  0
    4.9217   -3.4032   -0.7799 H   0  0  0  0  0  0  0  0  0  0  0  0
    2.5205   -2.6160   -0.7425 H   0  0  0  0  0  0  0  0  0  0  0  0
    3.8391    1.3225   -0.0529 H   0  0  0  0  0  0  0  0  0  0  0  0
    1.1438   -1.5185   -1.9242 H   0  0  0  0  0  0  0  0  0  0  0  0
   -1.1805   -0.6957   -2.2091 H   0  0  0  0  0  0  0  0  0  0  0  0
   -0.4662    2.3151    0.6804 H   0  0  0  0  0  0  0  0  0  0  0  0
    1.8453    1.4650    0.9514 H   0  0  0  0  0  0  0  0  0  0  0  0
   -3.5720   -0.2346   -0.2409 H   0  0  0  0  0  0  0  0  0  0  0  0
   -4.5996    2.2605   -1.5354 H   0  0  0  0  0  0  0  0  0  0  0  0
   -4.8954    0.3056   -2.8572 H   0  0  0  0  0  0  0  0  0  0  0  0
   -6.4731    0.9878   -2.3739 H   0  0  0  0  0  0  0  0  0  0  0  0
   -4.1325   -2.1242   -2.0773 H   0  0  0  0  0  0  0  0  0  0  0  0
   -5.5525   -4.0878   -0.8610 H   0  0  0  0  0  0  0  0  0  0  0  0
   -5.3032   -0.1944    1.2079 H   0  0  0  0  0  0  0  0  0  0  0  0
   -6.7549    0.4139    3.1844 H   0  0  0  0  0  0  0  0  0  0  0  0
   -7.8913    2.5559    3.1775 H   0  0  0  0  0  0  0  0  0  0  0  0
   -7.6443    4.1314    1.2781 H   0  0  0  0  0  0  0  0  0  0  0  0
   -6.2146    3.5180   -0.6737 H   0  0  0  0  0  0  0  0  0  0  0  0
  1  2  1  0
  2  3  1  0
  2  4  1  0
  4  5  1  0
  5  6  2  0
  5  7  2  0
  5  8  1  0
  8  9  2  0
  9 10  1  0
 10 11  2  0
 11 12  1  0
 12 13  2  0
 12 14  1  0
 14 15  2  0
 15 16  1  0
 16 17  2  0
 17 18  1  0
 18 19  2  0
 17 20  1  0
 20 21  2  0
 20 22  1  0
 22 23  1  0
 23 24  1  0
 24 25  1  0
 25 26  2  0
 26 27  1  0
 27 28  2  0
 28 29  1  0
 28 30  1  0
 30 31  1  0
 30 32  1  0
 30 33  1  0
 23 34  1  0
 34 35  2  0
 35 36  1  0
 36 37  2  0
 37 38  1  0
 38 39  2  0
 13  8  1  0
 19 14  1  0
 29 25  1  0
 39 34  1  0
  1 40  1  0
  1 41  1  0
  1 42  1  0
  2 43  1  0
  3 44  1  0
  3 45  1  0
  3 46  1  0
  4 47  1  0
  4 48  1  0
  9 49  1  0
 10 50  1  0
 11 51  1  0
 13 52  1  0
 15 53  1  0
 16 54  1  0
 18 55  1  0
 19 56  1  0
 22 57  1  0
 23 58  1  6
 24 59  1  0
 24 60  1  0
 26 61  1  0
 27 62  1  0
 35 63  1  0
 36 64  1  0
 37 65  1  0
 38 66  1  0
 39 67  1  0
M  END
$$$$
[H]/C(=C(/[H])c1c([H])c([H])c([H])c2c(C([H])([H])N(C([H])([H])C([H])([H])C([H])([H])[H])C([H])([H])C([H])([H])C([H])([H])[H])c(-c3nc([H])c([H])c([H])c3[H])sc12)c1c([H])c([H])c(Cl)c([H])c1Cl
     RDKit          3D

 61 64  0  0  0  0  0  0  0  0999 V2000
   -6.2849   -1.4012    0.1181 C   0  0  0  0  0  0  0  0  0  0  0  0
   -4.9473   -0.6961    0.3680 C   0  0  0  0  0  0  0  0  0  0  0  0
   -4.2968   -0.5166   -0.9610 C   0  0  0  0  0  0  0  0  0  0  0  0
   -2.9806    0.1419   -0.9048 N   0  0  0  0  0  0  0  0  0  0  0  0
   -3.2271    1.5506   -0.4734 C   0  0  0  0  0  0  0  0  0  0  0  0
   -3.9048    2.2673   -1.5965 C   0  0  0  0  0  0  0  0  0  0  0  0
   -4.1547    3.7205   -1.1938 C   0  0  0  0  0  0  0  0  0  0  0  0
   -2.1652   -0.4926    0.0747 C   0  0  0  0  0  0  0  0  0  0  0  0
   -0.6747   -0.3717   -0.0183 C   0  0  0  0  0  0  0  0  0  0  0  0
    0.0308   -0.9210    1.0780 C   0  0  0  0  0  0  0  0  0  0  0  0
    1.6493   -0.6548    0.6809 S   0  0  0  0  0  0  0  0  0  0  0  0
    1.4801    0.1215   -0.8207 C   0  0  0  0  0  0  0  0  0  0  0  0
    2.4194    0.5868   -1.7200 C   0  0  0  0  0  0  0  0  0  0  0  0
    3.8265    0.5256   -1.4620 C   0  0  0  0  0  0  0  0  0  0  0  0
    4.4929    0.1040   -0.4334 C   0  0  0  0  0  0  0  0  0  0  0  0
    5.9595    0.1471   -0.4141 C   0  0  0  0  0  0  0  0  0  0  0  0
    6.7519    0.6065   -1.4150 C   0  0  0  0  0  0  0  0  0  0  0  0
    8.1509    0.6150   -1.3217 C   0  0  0  0  0  0  0  0  0  0  0  0
    8.7825    0.1524   -0.1985 C   0  0  0  0  0  0  0  0  0  0  0  0
   10.5309    0.1520   -0.0569 Cl  0  0  0  0  0  0  0  0  0  0  0  0
    7.9805   -0.3167    0.8241 C   0  0  0  0  0  0  0  0  0  0  0  0
    6.6079   -0.3259    0.7347 C   0  0  0  0  0  0  0  0  0  0  0  0
    5.6564   -0.9301    2.0587 Cl  0  0  0  0  0  0  0  0  0  0  0  0
    1.9659    1.1546   -2.9335 C   0  0  0  0  0  0  0  0  0  0  0  0
    0.6180    1.1969   -3.1206 C   0  0  0  0  0  0  0  0  0  0  0  0
   -0.2900    0.7276   -2.2080 C   0  0  0  0  0  0  0  0  0  0  0  0
    0.1173    0.1578   -0.9857 C   0  0  0  0  0  0  0  0  0  0  0  0
   -0.4729   -1.5783    2.2792 C   0  0  0  0  0  0  0  0  0  0  0  0
    0.4568   -2.0053    3.2232 C   0  0  0  0  0  0  0  0  0  0  0  0
    0.0809   -2.6440    4.3779 C   0  0  0  0  0  0  0  0  0  0  0  0
   -1.2524   -2.8724    4.6167 C   0  0  0  0  0  0  0  0  0  0  0  0
   -2.1745   -2.4443    3.6720 C   0  0  0  0  0  0  0  0  0  0  0  0
   -1.7422   -1.8240    2.5601 N   0  0  0  0  0  0  0  0  0  0  0  0
   -6.1765   -2.5011    0.2622 H   0  0  0  0  0  0  0  0  0  0  0  0
   -7.0300   -0.9995    0.8323 H   0  0  0  0  0  0  0  0  0  0  0  0
   -6.6575   -1.1895   -0.9039 H   0  0  0  0  0  0  0  0  0  0  0  0
   -5.2024    0.2534    0.8635 H   0  0  0  0  0  0  0  0  0  0  0  0
   -4.3825   -1.3858    1.0404 H   0  0  0  0  0  0  0  0  0  0  0  0
   -4.9895   -0.0292   -1.6412 H   0  0  0  0  0  0  0  0  0  0  0  0
   -4.0345   -1.5625   -1.3120 H   0  0  0  0  0  0  0  0  0  0  0  0
   -3.7827    1.5906    0.4775 H   0  0  0  0  0  0  0  0  0  0  0  0
   -2.2661    2.0495   -0.2555 H   0  0  0  0  0  0  0  0  0  0  0  0
   -3.1943    2.2974   -2.4591 H   0  0  0  0  0  0  0  0  0  0  0  0
   -4.8227    1.8296   -1.9807 H   0  0  0  0  0  0  0  0  0  0  0  0
   -3.8883    3.8828   -0.1315 H   0  0  0  0  0  0  0  0  0  0  0  0
   -3.5518    4.4136   -1.8029 H   0  0  0  0  0  0  0  0  0  0  0  0
   -5.2192    3.9386   -1.3186 H   0  0  0  0  0  0  0  0  0  0  0  0
   -2.4855   -1.5514    0.1267 H   0  0  0  0  0  0  0  0  0  0  0  0
   -2.5126   -0.0341    1.0617 H   0  0  0  0  0  0  0  0  0  0  0  0
    4.4506    0.9134   -2.3117 H   0  0  0  0  0  0  0  0  0  0  0  0
    3.9577   -0.2762    0.4155 H   0  0  0  0  0  0  0  0  0  0  0  0
    6.3202    0.9838   -2.3244 H   0  0  0  0  0  0  0  0  0  0  0  0
    8.7540    0.9881   -2.1375 H   0  0  0  0  0  0  0  0  0  0  0  0
    8.4958   -0.6841    1.7177 H   0  0  0  0  0  0  0  0  0  0  0  0
    2.6877    1.5147   -3.6283 H   0  0  0  0  0  0  0  0  0  0  0  0
    0.2814    1.6352   -4.0603 H   0  0  0  0  0  0  0  0  0  0  0  0
   -1.3091    0.8082   -2.5300 H   0  0  0  0  0  0  0  0  0  0  0  0
    1.5107   -1.8348    3.0538 H   0  0  0  0  0  0  0  0  0  0  0  0
    0.8135   -2.9806    5.1223 H   0  0  0  0  0  0  0  0  0  0  0  0
   -1.5319   -3.3735    5.5249 H   0  0  0  0  0  0  0  0  0  0  0  0
   -3.2247   -2.6299    3.8709 H   0  0  0  0  0  0  0  0  0  0  0  0
  1  2  1  0
  2  3  1  0
  3  4  1  0
  4  5  1  0
  5  6  1  0
  6  7  1  0
  4  8  1  0
  8  9  1  0
  9 10  2  0
 10 11  1  0
 11 12  1  0
 12 13  2  0
 13 14  1  0
 14 15  2  0
 15 16  1  0
 16 17  2  0
 17 18  1  0
 18 19  2  0
 19 20  1  0
 19 21  1  0
 21 22  2  0
 22 23  1  0
 13 24  1  0
 24 25  2  0
 25 26  1  0
 26 27  2  0
 10 28  1  0
 28 29  2  0
 29 30  1  0
 30 31  2  0
 31 32  1  0
 32 33  2  0
 27  9  1  0
 33 28  1  0
 27 12  1  0
 22 16  1  0
  1 34  1  0
  1 35  1  0
  1 36  1  0
  2 37  1  0
  2 38  1  0
  3 39  1  0
  3 40  1  0
  5 41  1  0
  5 42  1  0
  6 43  1  0
  6 44  1  0
  7 45  1  0
  7 46  1  0
  7 47  1  0
  8 48  1  0
  8 49  1  0
 14 50  1  0
 15 51  1  0
 17 52  1  0
 18 53  1  0
 21 54  1  0
 24 55  1  0
 25 56  1  0
 26 57  1  0
 29 58  1  0
 30 59  1  0
 31 60  1  0
 32 61  1  0
M  END
$$$$
[H]c1c([H])c([H])c(OC2([H])C([H])([H])C([H])([H])N(C(=O)c3c([H])c([H])c4c(N([H])[H])c([H])c(C([H])([H])C([H])([H])[H])c([H])c4c3[H])C([H])([H])C2([H])[H])c([H])c1[H]
     RDKit          3D

 54 57  0  0  0  0  0  0  0  0999 V2000
   -8.0455    0.3774    1.5610 C   0  0  0  0  0  0  0  0  0  0  0  0
   -7.5536    0.9998    0.2735 C   0  0  0  0  0  0  0  0  0  0  0  0
   -6.3084    0.2560   -0.1129 C   0  0  0  0  0  0  0  0  0  0  0  0
   -6.3395   -0.8529   -0.9044 C   0  0  0  0  0  0  0  0  0  0  0  0
   -5.1600   -1.4868   -1.2201 C   0  0  0  0  0  0  0  0  0  0  0  0
   -5.1543   -2.6553   -2.0498 N   0  0  0  0  0  0  0  0  0  0  0  0
   -3.9378   -1.0425   -0.7648 C   0  0  0  0  0  0  0  0  0  0  0  0
   -2.7583   -1.6718   -1.0765 C   0  0  0  0  0  0  0  0  0  0  0  0
   -1.5425   -1.1748   -0.5842 C   0  0  0  0  0  0  0  0  0  0  0  0
   -1.4715   -0.0702    0.2067 C   0  0  0  0  0  0  0  0  0  0  0  0
   -2.7139    0.5264    0.4891 C   0  0  0  0  0  0  0  0  0  0  0  0
   -3.9185    0.0774    0.0332 C   0  0  0  0  0  0  0  0  0  0  0  0
   -5.1112    0.7251    0.3572 C   0  0  0  0  0  0  0  0  0  0  0  0
   -0.2987    0.5642    0.7354 C   0  0  0  0  0  0  0  0  0  0  0  0
   -0.5188    1.5024    1.6189 O   0  0  0  0  0  0  0  0  0  0  0  0
    1.0581    0.3624    0.4761 N   0  0  0  0  0  0  0  0  0  0  0  0
    1.6386   -0.5344   -0.4561 C   0  0  0  0  0  0  0  0  0  0  0  0
    3.0277   -0.2912   -0.9213 C   0  0  0  0  0  0  0  0  0  0  0  0
    3.9169    0.4260    0.0666 C   0  0  0  0  0  0  0  0  0  0  0  0
    3.1012    1.6903    0.4420 C   0  0  0  0  0  0  0  0  0  0  0  0
    1.9953    1.1606    1.3089 C   0  0  0  0  0  0  0  0  0  0  0  0
    5.1137    0.7806   -0.5232 O   0  0  0  0  0  0  0  0  0  0  0  0
    6.3482    0.4693   -0.0047 C   0  0  0  0  0  0  0  0  0  0  0  0
    7.5033    0.8823   -0.6916 C   0  0  0  0  0  0  0  0  0  0  0  0
    8.7661    0.6072   -0.2333 C   0  0  0  0  0  0  0  0  0  0  0  0
    8.9139   -0.0959    0.9368 C   0  0  0  0  0  0  0  0  0  0  0  0
    7.8261   -0.5294    1.6579 C   0  0  0  0  0  0  0  0  0  0  0  0
    6.5684   -0.2214    1.1448 C   0  0  0  0  0  0  0  0  0  0  0  0
   -7.6740   -0.6554    1.6947 H   0  0  0  0  0  0  0  0  0  0  0  0
   -9.1571    0.3323    1.5457 H   0  0  0  0  0  0  0  0  0  0  0  0
   -7.7247    0.9550    2.4526 H   0  0  0  0  0  0  0  0  0  0  0  0
   -8.3046    0.8659   -0.5113 H   0  0  0  0  0  0  0  0  0  0  0  0
   -7.3283    2.0690    0.4972 H   0  0  0  0  0  0  0  0  0  0  0  0
   -7.2980   -1.2095   -1.2673 H   0  0  0  0  0  0  0  0  0  0  0  0
   -5.6214   -3.5279   -1.7314 H   0  0  0  0  0  0  0  0  0  0  0  0
   -4.6632   -2.5622   -2.9618 H   0  0  0  0  0  0  0  0  0  0  0  0
   -2.7879   -2.5496   -1.7032 H   0  0  0  0  0  0  0  0  0  0  0  0
   -0.6781   -1.7224   -0.8397 H   0  0  0  0  0  0  0  0  0  0  0  0
   -2.7305    1.4162    1.1169 H   0  0  0  0  0  0  0  0  0  0  0  0
   -5.0247    1.5933    0.9840 H   0  0  0  0  0  0  0  0  0  0  0  0
    1.0089   -0.4650   -1.4125 H   0  0  0  0  0  0  0  0  0  0  0  0
    1.5187   -1.6174   -0.1453 H   0  0  0  0  0  0  0  0  0  0  0  0
    3.0308    0.3360   -1.8618 H   0  0  0  0  0  0  0  0  0  0  0  0
    3.4864   -1.2776   -1.1614 H   0  0  0  0  0  0  0  0  0  0  0  0
    3.9686   -0.1403    1.0089 H   0  0  0  0  0  0  0  0  0  0  0  0
    3.7193    2.4274    0.9530 H   0  0  0  0  0  0  0  0  0  0  0  0
    2.7440    2.0932   -0.5237 H   0  0  0  0  0  0  0  0  0  0  0  0
    1.4925    1.9875    1.8144 H   0  0  0  0  0  0  0  0  0  0  0  0
    2.4809    0.4822    2.0636 H   0  0  0  0  0  0  0  0  0  0  0  0
    7.3971    1.4396   -1.6191 H   0  0  0  0  0  0  0  0  0  0  0  0
    9.6571    0.9236   -0.7596 H   0  0  0  0  0  0  0  0  0  0  0  0
    9.8996   -0.3173    1.3056 H   0  0  0  0  0  0  0  0  0  0  0  0
    7.9176   -1.0835    2.5801 H   0  0  0  0  0  0  0  0  0  0  0  0
    5.7259   -0.5738    1.7312 H   0  0  0  0  0  0  0  0  0  0  0  0
  1  2  1  0
  2  3  1  0
  3  4  2  0
  4  5  1  0
  5  6  1  0
  5  7  2  0
  7  8  1  0
  8  9  2  0
  9 10  1  0
 10 11  2  0
 11 12  1  0
 12 13  2  0
 10 14  1  0
 14 15  2  0
 14 16  1  0
 16 17  1  0
 17 18  1  0
 18 19  1  0
 19 20  1  0
 20 21  1  0
 19 22  1  0
 22 23  1  0
 23 24  2  0
 24 25  1  0
 25 26  2  0
 26 27  1  0
 27 28  2  0
 13  3  1  0
 21 16  1  0
 28 23  1  0
 12  7  1  0
  1 29  1  0
  1 30  1  0
  1 31  1  0
  2 32  1  0
  2 33  1  0
  4 34  1  0
  6 35  1  0
  6 36  1  0
  8 37  1  0
  9 38  1  0
 11 39  1  0
 13 40  1  0
 17 41  1  0
 17 42  1  0
 18 43  1  0
 18 44  1  0
 19 45  1  0
 20 46  1  0
 20 47  1  0
 21 48  1  0
 21 49  1  0
 24 50  1  0
 25 51  1  0
 26 52  1  0
 27 53  1  0
 28 54  1  0
M  END
$$$$
[H]O[C@@]([H])(C([H])([H])N([H])c1nc([H])c([H])c(-c2nc3c([H])c([H])c(-c4nc(C5([H])C([H])([H])C5([H])[H])nc([H])c4[H])c([H])c3n2C([H])(C([H])([H])[H])C([H])([H])[H])c1[H])C([H])([H])[N+](=O)[O-]
     RDKit          3D

 62 66  0  0  0  0  0  0  0  0999 V2000
    1.0551    3.7679   -0.2291 C   0  0  0  0  0  0  0  0  0  0  0  0
    0.3268    2.7436   -1.0990 C   0  0  0  0  0  0  0  0  0  0  0  0
    1.0454    2.6441   -2.4601 C   0  0  0  0  0  0  0  0  0  0  0  0
    0.2569    1.4643   -0.4481 N   0  0  0  0  0  0  0  0  0  0  0  0
   -0.8099    0.8648    0.0607 C   0  0  0  0  0  0  0  0  0  0  0  0
   -0.3961   -0.3761    0.4988 N   0  0  0  0  0  0  0  0  0  0  0  0
    0.9004   -0.5470    0.2739 C   0  0  0  0  0  0  0  0  0  0  0  0
    1.8029   -1.5568    0.5137 C   0  0  0  0  0  0  0  0  0  0  0  0
    3.1289   -1.4220    0.1643 C   0  0  0  0  0  0  0  0  0  0  0  0
    3.5842   -0.2649   -0.4367 C   0  0  0  0  0  0  0  0  0  0  0  0
    2.6646    0.7370   -0.6699 C   0  0  0  0  0  0  0  0  0  0  0  0
    1.3186    0.6214   -0.3262 C   0  0  0  0  0  0  0  0  0  0  0  0
    4.9781   -0.0948   -0.8140 C   0  0  0  0  0  0  0  0  0  0  0  0
    5.5038    1.0194   -1.4161 C   0  0  0  0  0  0  0  0  0  0  0  0
    6.8377    1.1318   -1.7558 C   0  0  0  0  0  0  0  0  0  0  0  0
    7.6424    0.0977   -1.4785 N   0  0  0  0  0  0  0  0  0  0  0  0
    7.1688   -1.0138   -0.8889 C   0  0  0  0  0  0  0  0  0  0  0  0
    5.8689   -1.1019   -0.5673 N   0  0  0  0  0  0  0  0  0  0  0  0
    8.1230   -2.1364   -0.6051 C   0  0  0  0  0  0  0  0  0  0  0  0
    7.5382   -3.4801   -0.4623 C   0  0  0  0  0  0  0  0  0  0  0  0
    8.0005   -2.8009    0.7587 C   0  0  0  0  0  0  0  0  0  0  0  0
   -2.1977    1.2534    0.1975 C   0  0  0  0  0  0  0  0  0  0  0  0
   -2.7044    2.5217    0.1730 C   0  0  0  0  0  0  0  0  0  0  0  0
   -4.0672    2.8068    0.2448 C   0  0  0  0  0  0  0  0  0  0  0  0
   -4.9440    1.8010    0.3454 N   0  0  0  0  0  0  0  0  0  0  0  0
   -4.5120    0.5136    0.3774 C   0  0  0  0  0  0  0  0  0  0  0  0
   -5.4560   -0.5554    0.4858 N   0  0  0  0  0  0  0  0  0  0  0  0
   -6.8646   -0.2264    0.5583 C   0  0  0  0  0  0  0  0  0  0  0  0
   -7.7139   -1.4704    0.6715 C   0  0  2  0  0  0  0  0  0  0  0  0
   -9.0527   -1.0441    0.7344 O   0  0  0  0  0  0  0  0  0  0  0  0
   -7.4498   -2.2240    1.9585 C   0  0  0  0  0  0  0  0  0  0  0  0
   -8.3777   -3.3376    1.9963 N   0  0  0  0  0  0  0  0  0  0  0  0
   -8.3319   -4.2730    0.9918 O   0  0  0  0  0  0  0  0  0  0  0  0
   -9.2032   -3.4611    2.9078 O   0  0  0  0  0  0  0  0  0  0  0  0
   -3.1720    0.2410    0.3055 C   0  0  0  0  0  0  0  0  0  0  0  0
    1.6162    3.1967    0.5545 H   0  0  0  0  0  0  0  0  0  0  0  0
    1.8091    4.3152   -0.8174 H   0  0  0  0  0  0  0  0  0  0  0  0
    0.3445    4.4271    0.3106 H   0  0  0  0  0  0  0  0  0  0  0  0
   -0.6411    3.1782   -1.3688 H   0  0  0  0  0  0  0  0  0  0  0  0
    1.2294    1.5970   -2.7375 H   0  0  0  0  0  0  0  0  0  0  0  0
    1.9251    3.3049   -2.4625 H   0  0  0  0  0  0  0  0  0  0  0  0
    0.3900    3.0438   -3.2840 H   0  0  0  0  0  0  0  0  0  0  0  0
    1.4100   -2.4513    0.9878 H   0  0  0  0  0  0  0  0  0  0  0  0
    3.8198   -2.2141    0.3557 H   0  0  0  0  0  0  0  0  0  0  0  0
    2.9851    1.6606   -1.1219 H   0  0  0  0  0  0  0  0  0  0  0  0
    4.8833    1.8468   -1.6431 H   0  0  0  0  0  0  0  0  0  0  0  0
    7.2355    2.0078   -2.2258 H   0  0  0  0  0  0  0  0  0  0  0  0
    9.1772   -1.9726   -0.9041 H   0  0  0  0  0  0  0  0  0  0  0  0
    6.4408   -3.5715   -0.6276 H   0  0  0  0  0  0  0  0  0  0  0  0
    8.0809   -4.4019   -0.7888 H   0  0  0  0  0  0  0  0  0  0  0  0
    7.2555   -2.3312    1.4349 H   0  0  0  0  0  0  0  0  0  0  0  0
    8.8894   -3.1748    1.2682 H   0  0  0  0  0  0  0  0  0  0  0  0
   -2.0657    3.3658    0.1411 H   0  0  0  0  0  0  0  0  0  0  0  0
   -4.4409    3.8154    0.2222 H   0  0  0  0  0  0  0  0  0  0  0  0
   -5.0943   -1.5237    0.5080 H   0  0  0  0  0  0  0  0  0  0  0  0
   -7.0531    0.4469    1.3979 H   0  0  0  0  0  0  0  0  0  0  0  0
   -7.1280    0.2858   -0.3728 H   0  0  0  0  0  0  0  0  0  0  0  0
   -7.6101   -2.1290   -0.1987 H   0  0  0  0  0  0  0  0  0  0  0  0
   -9.1441   -0.5951    1.6193 H   0  0  0  0  0  0  0  0  0  0  0  0
   -7.5691   -1.5574    2.8234 H   0  0  0  0  0  0  0  0  0  0  0  0
   -6.4148   -2.6350    1.9875 H   0  0  0  0  0  0  0  0  0  0  0  0
   -2.8226   -0.7773    0.3284 H   0  0  0  0  0  0  0  0  0  0  0  0
  1  2  1  0
  2  3  1  0
  2  4  1  0
  4  5  1  0
  5  6  2  0
  6  7  1  0
  7  8  2  0
  8  9  1  0
  9 10  2  0
 10 11  1  0
 11 12  2  0
 10 13  1  0
 13 14  2  0
 14 15  1  0
 15 16  2  0
 16 17  1  0
 17 18  2  0
 17 19  1  0
 19 20  1  0
 20 21  1  0
  5 22  1  0
 22 23  2  0
 23 24  1  0
 24 25  2  0
 25 26  1  0
 26 27  1  0
 27 28  1  0
 28 29  1  0
 29 30  1  0
 29 31  1  0
 31 32  1  0
 32 33  1  0
 32 34  2  0
 26 35  2  0
 12  4  1  0
 18 13  1  0
 21 19  1  0
 35 22  1  0
 12  7  1  0
  1 36  1  0
  1 37  1  0
  1 38  1  0
  2 39  1  0
  3 40  1  0
  3 41  1  0
  3 42  1  0
  8 43  1  0
  9 44  1  0
 11 45  1  0
 14 46  1  0
 15 47  1  0
 19 48  1  0
 20 49  1  0
 20 50  1  0
 21 51  1  0
 21 52  1  0
 23 53  1  0
 24 54  1  0
 27 55  1  0
 28 56  1  0
 28 57  1  0
 29 58  1  6
 30 59  1  0
 31 60  1  0
 31 61  1  0
 35 62  1  0
M  CHG  2  32   1  33  -1
M  END
$$$$
[H]c1nc(C([H])(C([H])([H])[H])C2([H])C3([H])C([H])([H])C([H])([H])C2([H])C3([H])[H])c([H])c(-c2nc(C([H])([H])[H])nc(C([H])([H])[H])c2[H])c1[H]
     RDKit          3D

 45 48  0  0  0  0  0  0  0  0999 V2000
   -1.3894    1.8979    1.8780 C   0  0  0  0  0  0  0  0  0  0  0  0
   -1.8696    0.4413    1.8109 C   0  0  0  0  0  0  0  0  0  0  0  0
   -3.0008    0.3779    0.9114 C   0  0  0  0  0  0  0  0  0  0  0  0
   -2.9061    0.7666   -0.5288 C   0  0  0  0  0  0  0  0  0  0  0  0
   -4.3841    0.9905   -0.8543 C   0  0  0  0  0  0  0  0  0  0  0  0
   -4.9621   -0.2541   -0.1413 C   0  0  0  0  0  0  0  0  0  0  0  0
   -3.6336   -0.8391    0.3915 C   0  0  0  0  0  0  0  0  0  0  0  0
   -2.8293   -0.7036   -0.8672 C   0  0  0  0  0  0  0  0  0  0  0  0
   -0.7234   -0.4367    1.6671 C   0  0  0  0  0  0  0  0  0  0  0  0
    0.3023   -0.0652    0.8195 C   0  0  0  0  0  0  0  0  0  0  0  0
    1.4299   -0.8155    0.6068 C   0  0  0  0  0  0  0  0  0  0  0  0
    1.4617   -2.0170    1.3336 C   0  0  0  0  0  0  0  0  0  0  0  0
    0.4447   -2.3726    2.1662 C   0  0  0  0  0  0  0  0  0  0  0  0
   -0.6187   -1.5882    2.3190 N   0  0  0  0  0  0  0  0  0  0  0  0
    2.5307   -0.4649   -0.2731 C   0  0  0  0  0  0  0  0  0  0  0  0
    2.5119    0.6957   -0.9826 C   0  0  0  0  0  0  0  0  0  0  0  0
    3.5772    0.9920   -1.8077 C   0  0  0  0  0  0  0  0  0  0  0  0
    3.5170    2.2732   -2.5670 C   0  0  0  0  0  0  0  0  0  0  0  0
    4.5905    0.1407   -1.8887 N   0  0  0  0  0  0  0  0  0  0  0  0
    4.6125   -1.0103   -1.1871 C   0  0  0  0  0  0  0  0  0  0  0  0
    5.7836   -1.9398   -1.3146 C   0  0  0  0  0  0  0  0  0  0  0  0
    3.5739   -1.2943   -0.3858 N   0  0  0  0  0  0  0  0  0  0  0  0
   -0.4751    1.9884    2.4983 H   0  0  0  0  0  0  0  0  0  0  0  0
   -1.2100    2.2784    0.8311 H   0  0  0  0  0  0  0  0  0  0  0  0
   -2.1899    2.4834    2.3718 H   0  0  0  0  0  0  0  0  0  0  0  0
   -2.2700    0.2389    2.8590 H   0  0  0  0  0  0  0  0  0  0  0  0
   -3.8360    1.0347    1.3665 H   0  0  0  0  0  0  0  0  0  0  0  0
   -2.1886    1.4425   -0.8856 H   0  0  0  0  0  0  0  0  0  0  0  0
   -4.5832    0.9458   -1.9228 H   0  0  0  0  0  0  0  0  0  0  0  0
   -4.7315    1.9158   -0.3540 H   0  0  0  0  0  0  0  0  0  0  0  0
   -5.6088    0.0758    0.6740 H   0  0  0  0  0  0  0  0  0  0  0  0
   -5.4039   -0.9469   -0.8566 H   0  0  0  0  0  0  0  0  0  0  0  0
   -3.6812   -1.7518    0.9129 H   0  0  0  0  0  0  0  0  0  0  0  0
   -1.8885   -1.1904   -0.9805 H   0  0  0  0  0  0  0  0  0  0  0  0
   -3.4851   -0.9679   -1.7561 H   0  0  0  0  0  0  0  0  0  0  0  0
    0.2332    0.8874    0.2697 H   0  0  0  0  0  0  0  0  0  0  0  0
    2.3544   -2.6318    1.1782 H   0  0  0  0  0  0  0  0  0  0  0  0
    0.5371   -3.3347    2.7078 H   0  0  0  0  0  0  0  0  0  0  0  0
    1.6855    1.4244   -0.9378 H   0  0  0  0  0  0  0  0  0  0  0  0
    4.2393    2.2125   -3.3809 H   0  0  0  0  0  0  0  0  0  0  0  0
    2.4791    2.4372   -2.9495 H   0  0  0  0  0  0  0  0  0  0  0  0
    3.7221    3.1167   -1.8595 H   0  0  0  0  0  0  0  0  0  0  0  0
    6.5272   -1.4796   -1.9927 H   0  0  0  0  0  0  0  0  0  0  0  0
    6.2614   -2.0490   -0.3290 H   0  0  0  0  0  0  0  0  0  0  0  0
    5.4940   -2.9045   -1.7676 H   0  0  0  0  0  0  0  0  0  0  0  0
  1  2  1  0
  2  3  1  0
  3  4  1  0
  4  5  1  0
  5  6  1  0
  6  7  1  0
  7  8  1  0
  2  9  1  0
  9 10  2  0
 10 11  1  0
 11 12  2  0
 12 13  1  0
 13 14  2  0
 11 15  1  0
 15 16  2  0
 16 17  1  0
 17 18  1  0
 17 19  2  0
 19 20  1  0
 20 21  1  0
 20 22  2  0
  7  3  1  0
 14  9  1  0
 22 15  1  0
  8  4  1  0
  1 23  1  0
  1 24  1  0
  1 25  1  0
  2 26  1  0
  3 27  1  0
  4 28  1  0
  5 29  1  0
  5 30  1  0
  6 31  1  0
  6 32  1  0
  7 33  1  0
  8 34  1  0
  8 35  1  0
 10 36  1  0
 12 37  1  0
 13 38  1  0
 16 39  1  0
 18 40  1  0
 18 41  1  0
 18 42  1  0
 21 43  1  0
 21 44  1  0
 21 45  1  0
M  END
$$$$
[H]c1c([H])c(Cl)c([H])c(S(=O)(=O)c2c([H])c([H])c(OC([H])([H])[C@@]([H])(C(=O)N([H])[H])N([H])[H])c([H])c2[H])c1[H]
     RDKit          3D

 38 39  0  0  0  0  0  0  0  0999 V2000
   -5.9098    0.0609    1.0408 N   0  0  0  0  0  0  0  0  0  0  0  0
   -4.9668    0.1228   -0.0320 C   0  0  1  0  0  0  0  0  0  0  0  0
   -3.5597    0.4282    0.4521 C   0  0  0  0  0  0  0  0  0  0  0  0
   -2.6675    0.4810   -0.6195 O   0  0  0  0  0  0  0  0  0  0  0  0
   -1.3184    0.7462   -0.4254 C   0  0  0  0  0  0  0  0  0  0  0  0
   -0.8593    0.9616    0.8641 C   0  0  0  0  0  0  0  0  0  0  0  0
    0.4769    1.2266    1.0785 C   0  0  0  0  0  0  0  0  0  0  0  0
    1.3565    1.2758   -0.0052 C   0  0  0  0  0  0  0  0  0  0  0  0
    0.9108    1.0630   -1.2928 C   0  0  0  0  0  0  0  0  0  0  0  0
   -0.4221    0.8015   -1.4793 C   0  0  0  0  0  0  0  0  0  0  0  0
    3.0193    1.6114    0.3201 S   0  0  0  0  0  0  0  0  0  0  0  0
    3.6134    2.3372   -0.8770 O   0  0  0  0  0  0  0  0  0  0  0  0
    3.1954    2.5493    1.4936 O   0  0  0  0  0  0  0  0  0  0  0  0
    3.9654    0.1948    0.6087 C   0  0  0  0  0  0  0  0  0  0  0  0
    4.1046   -0.3010    1.8843 C   0  0  0  0  0  0  0  0  0  0  0  0
    4.8725   -1.4473    2.1032 C   0  0  0  0  0  0  0  0  0  0  0  0
    5.4954   -2.0941    1.0659 C   0  0  0  0  0  0  0  0  0  0  0  0
    5.3593   -1.6012   -0.2168 C   0  0  0  0  0  0  0  0  0  0  0  0
    6.1672   -2.4503   -1.5184 Cl  0  0  0  0  0  0  0  0  0  0  0  0
    4.5970   -0.4666   -0.4197 C   0  0  0  0  0  0  0  0  0  0  0  0
   -4.9937   -1.1599   -0.7728 C   0  0  0  0  0  0  0  0  0  0  0  0
   -4.1376   -1.3365   -1.8869 N   0  0  0  0  0  0  0  0  0  0  0  0
   -5.7596   -2.0692   -0.4188 O   0  0  0  0  0  0  0  0  0  0  0  0
   -5.5524   -0.3263    1.9213 H   0  0  0  0  0  0  0  0  0  0  0  0
   -6.5365    0.8695    1.1262 H   0  0  0  0  0  0  0  0  0  0  0  0
   -5.2566    0.9806   -0.6824 H   0  0  0  0  0  0  0  0  0  0  0  0
   -3.6162    1.3758    1.0289 H   0  0  0  0  0  0  0  0  0  0  0  0
   -3.2926   -0.3765    1.1789 H   0  0  0  0  0  0  0  0  0  0  0  0
   -1.5193    0.9304    1.7331 H   0  0  0  0  0  0  0  0  0  0  0  0
    0.8427    1.3955    2.0802 H   0  0  0  0  0  0  0  0  0  0  0  0
    1.6497    1.1170   -2.0787 H   0  0  0  0  0  0  0  0  0  0  0  0
   -0.7862    0.6318   -2.4916 H   0  0  0  0  0  0  0  0  0  0  0  0
    3.6241    0.1858    2.7367 H   0  0  0  0  0  0  0  0  0  0  0  0
    4.9875   -1.8448    3.1056 H   0  0  0  0  0  0  0  0  0  0  0  0
    6.1035   -2.9996    1.2294 H   0  0  0  0  0  0  0  0  0  0  0  0
    4.4978   -0.0903   -1.4276 H   0  0  0  0  0  0  0  0  0  0  0  0
   -3.2095   -1.7569   -1.7903 H   0  0  0  0  0  0  0  0  0  0  0  0
   -4.4753   -1.0264   -2.8177 H   0  0  0  0  0  0  0  0  0  0  0  0
  1  2  1  0
  2  3  1  0
  3  4  1  0
  4  5  1  0
  5  6  2  0
  6  7  1  0
  7  8  2  0
  8  9  1  0
  9 10  2  0
  8 11  1  0
 11 12  2  0
 11 13  2  0
 11 14  1  0
 14 15  2  0
 15 16  1  0
 16 17  2  0
 17 18  1  0
 18 19  1  0
 18 20  2  0
  2 21  1  0
 21 22  1  0
 21 23  2  0
 10  5  1  0
 20 14  1  0
  1 24  1  0
  1 25  1  0
  2 26  1  6
  3 27  1  0
  3 28  1  0
  6 29  1  0
  7 30  1  0
  9 31  1  0
 10 32  1  0
 15 33  1  0
 16 34  1  0
 17 35  1  0
 20 36  1  0
 22 37  1  0
 22 38  1  0
M  END
$$$$
[H]c1c([H])c(-c2c([H])c([H])c(-n3c([H])nnc3F)c([H])c2[H])c([H])c([H])c1OC([H])([H])[H]
     RDKit          3D

 32 34  0  0  0  0  0  0  0  0999 V2000
    6.0325    0.1286   -0.1638 C   0  0  0  0  0  0  0  0  0  0  0  0
    5.1742    0.6180    0.8277 O   0  0  0  0  0  0  0  0  0  0  0  0
    3.7818    0.4737    0.6633 C   0  0  0  0  0  0  0  0  0  0  0  0
    2.9156    0.9474    1.6250 C   0  0  0  0  0  0  0  0  0  0  0  0
    1.5519    0.8188    1.4880 C   0  0  0  0  0  0  0  0  0  0  0  0
    1.0745    0.1990    0.3547 C   0  0  0  0  0  0  0  0  0  0  0  0
    1.9217   -0.2850   -0.6249 C   0  0  0  0  0  0  0  0  0  0  0  0
    3.2835   -0.1440   -0.4643 C   0  0  0  0  0  0  0  0  0  0  0  0
   -0.3653    0.0375    0.1638 C   0  0  0  0  0  0  0  0  0  0  0  0
   -0.8754    0.0469   -1.1212 C   0  0  0  0  0  0  0  0  0  0  0  0
   -2.2351   -0.1071   -1.2784 C   0  0  0  0  0  0  0  0  0  0  0  0
   -3.0296   -0.2628   -0.1740 C   0  0  0  0  0  0  0  0  0  0  0  0
   -2.5200   -0.2727    1.1167 C   0  0  0  0  0  0  0  0  0  0  0  0
   -1.1494   -0.1179    1.2839 C   0  0  0  0  0  0  0  0  0  0  0  0
   -4.4300   -0.4187   -0.3624 N   0  0  0  0  0  0  0  0  0  0  0  0
   -5.0732   -1.4618   -0.8754 C   0  0  0  0  0  0  0  0  0  0  0  0
   -6.3984   -1.1584   -0.8555 N   0  0  0  0  0  0  0  0  0  0  0  0
   -6.5153    0.0508   -0.3345 N   0  0  0  0  0  0  0  0  0  0  0  0
   -5.3105    0.5556   -0.0100 C   0  0  0  0  0  0  0  0  0  0  0  0
   -5.0088    1.7568    0.5430 F   0  0  0  0  0  0  0  0  0  0  0  0
    5.7028    0.5671   -1.1473 H   0  0  0  0  0  0  0  0  0  0  0  0
    7.0765    0.4653    0.0628 H   0  0  0  0  0  0  0  0  0  0  0  0
    6.0353   -0.9739   -0.2570 H   0  0  0  0  0  0  0  0  0  0  0  0
    3.2805    1.4307    2.5093 H   0  0  0  0  0  0  0  0  0  0  0  0
    0.8581    1.1955    2.2518 H   0  0  0  0  0  0  0  0  0  0  0  0
    1.5628   -0.7679   -1.5092 H   0  0  0  0  0  0  0  0  0  0  0  0
    3.9782   -0.5165   -1.2201 H   0  0  0  0  0  0  0  0  0  0  0  0
   -0.2196    0.1733   -1.9938 H   0  0  0  0  0  0  0  0  0  0  0  0
   -2.6444   -0.0998   -2.2993 H   0  0  0  0  0  0  0  0  0  0  0  0
   -3.1571   -0.3954    1.9603 H   0  0  0  0  0  0  0  0  0  0  0  0
   -0.6916   -0.1178    2.2608 H   0  0  0  0  0  0  0  0  0  0  0  0
   -4.6064   -2.3651   -1.2320 H   0  0  0  0  0  0  0  0  0  0  0  0
  1  2  1  0
  2  3  1  0
  3  4  2  0
  4  5  1  0
  5  6  2  0
  6  7  1  0
  7  8  2  0
  6  9  1  0
  9 10  2  0
 10 11  1  0
 11 12  2  0
 12 13  1  0
 13 14  2  0
 12 15  1  0
 15 16  1  0
 16 17  2  0
 17 18  1  0
 18 19  2  0
 19 20  1  0
  8  3  1  0
 14  9  1  0
 19 15  1  0
  1 21  1  0
  1 22  1  0
  1 23  1  0
  4 24  1  0
  5 25  1  0
  7 26  1  0
  8 27  1  0
 10 28  1  0
 11 29  1  0
 13 30  1  0
 14 31  1  0
 16 32  1  0
M  END
$$$$
[H]c1c(Cl)c([H])c(C([H])([H])[H])c(OC([H])([H])C([H])([H])C([H])([H])c2c([H])c(C([H])([H])[H])n(C([H])([H])[H])c2[H])c1C(=O)N([H])C(C([H])([H])[H])(C([H])([H])[H])C([H])([H])[H]
     RDKit          3D

 55 56  0  0  0  0  0  0  0  0999 V2000
    0.5363    2.4517    2.0575 C   0  0  0  0  0  0  0  0  0  0  0  0
   -0.4179    1.3299    2.3730 C   0  0  0  0  0  0  0  0  0  0  0  0
   -0.5157    0.8284    3.6376 C   0  0  0  0  0  0  0  0  0  0  0  0
   -1.4399   -0.1618    3.9226 C   0  0  0  0  0  0  0  0  0  0  0  0
   -1.5672   -0.8182    5.5616 Cl  0  0  0  0  0  0  0  0  0  0  0  0
   -2.2592   -0.6442    2.9585 C   0  0  0  0  0  0  0  0  0  0  0  0
   -2.1936   -0.1540    1.6415 C   0  0  0  0  0  0  0  0  0  0  0  0
   -3.2044   -0.5754    0.6989 C   0  0  0  0  0  0  0  0  0  0  0  0
   -3.9314   -1.5929    1.0916 O   0  0  0  0  0  0  0  0  0  0  0  0
   -3.5621   -0.1188   -0.5594 N   0  0  0  0  0  0  0  0  0  0  0  0
   -4.6241   -0.7308   -1.3634 C   0  0  0  0  0  0  0  0  0  0  0  0
   -4.3218   -2.1815   -1.6485 C   0  0  0  0  0  0  0  0  0  0  0  0
   -4.7487   -0.0130   -2.6891 C   0  0  0  0  0  0  0  0  0  0  0  0
   -5.9693   -0.6560   -0.7024 C   0  0  0  0  0  0  0  0  0  0  0  0
   -1.2663    0.8266    1.3616 C   0  0  0  0  0  0  0  0  0  0  0  0
   -1.0740    1.3727    0.1366 O   0  0  0  0  0  0  0  0  0  0  0  0
   -0.3197    1.0119   -0.9388 C   0  0  0  0  0  0  0  0  0  0  0  0
    1.1236    0.7856   -0.9460 C   0  0  0  0  0  0  0  0  0  0  0  0
    1.7009   -0.3454   -0.1727 C   0  0  0  0  0  0  0  0  0  0  0  0
    3.1987   -0.2954   -0.4180 C   0  0  0  0  0  0  0  0  0  0  0  0
    3.9145   -0.9113   -1.4045 C   0  0  0  0  0  0  0  0  0  0  0  0
    5.2517   -0.6105   -1.2764 C   0  0  0  0  0  0  0  0  0  0  0  0
    6.3829   -1.0803   -2.1512 C   0  0  0  0  0  0  0  0  0  0  0  0
    5.3510    0.1945   -0.2040 N   0  0  0  0  0  0  0  0  0  0  0  0
    6.5875    0.7536    0.2964 C   0  0  0  0  0  0  0  0  0  0  0  0
    4.1175    0.4026    0.3373 C   0  0  0  0  0  0  0  0  0  0  0  0
    0.5302    3.1774    2.9082 H   0  0  0  0  0  0  0  0  0  0  0  0
    0.2031    2.9350    1.1412 H   0  0  0  0  0  0  0  0  0  0  0  0
    1.5463    2.0373    1.8959 H   0  0  0  0  0  0  0  0  0  0  0  0
    0.1278    1.2020    4.4228 H   0  0  0  0  0  0  0  0  0  0  0  0
   -2.9775   -1.4066    3.1589 H   0  0  0  0  0  0  0  0  0  0  0  0
   -3.1309    0.7009   -0.9941 H   0  0  0  0  0  0  0  0  0  0  0  0
   -4.5537   -2.4803   -2.6908 H   0  0  0  0  0  0  0  0  0  0  0  0
   -3.2532   -2.3995   -1.4360 H   0  0  0  0  0  0  0  0  0  0  0  0
   -4.9293   -2.8007   -0.9587 H   0  0  0  0  0  0  0  0  0  0  0  0
   -3.9963   -0.3049   -3.4270 H   0  0  0  0  0  0  0  0  0  0  0  0
   -5.7927   -0.1282   -3.0573 H   0  0  0  0  0  0  0  0  0  0  0  0
   -4.6167    1.1000   -2.5485 H   0  0  0  0  0  0  0  0  0  0  0  0
   -6.2176    0.3534   -0.3147 H   0  0  0  0  0  0  0  0  0  0  0  0
   -6.7234   -0.8288   -1.5283 H   0  0  0  0  0  0  0  0  0  0  0  0
   -6.1393   -1.4614    0.0146 H   0  0  0  0  0  0  0  0  0  0  0  0
   -0.5508    1.8324   -1.7382 H   0  0  0  0  0  0  0  0  0  0  0  0
   -0.7807    0.1076   -1.4853 H   0  0  0  0  0  0  0  0  0  0  0  0
    1.7435    1.6877   -0.7082 H   0  0  0  0  0  0  0  0  0  0  0  0
    1.4307    0.5791   -2.0326 H   0  0  0  0  0  0  0  0  0  0  0  0
    1.4046   -1.3473   -0.5744 H   0  0  0  0  0  0  0  0  0  0  0  0
    1.6194   -0.3038    0.9202 H   0  0  0  0  0  0  0  0  0  0  0  0
    3.5124   -1.5459   -2.1820 H   0  0  0  0  0  0  0  0  0  0  0  0
    6.0404   -1.2527   -3.1861 H   0  0  0  0  0  0  0  0  0  0  0  0
    7.1512   -0.2633   -2.2031 H   0  0  0  0  0  0  0  0  0  0  0  0
    6.8163   -2.0244   -1.7949 H   0  0  0  0  0  0  0  0  0  0  0  0
    6.4438    1.7582    0.7473 H   0  0  0  0  0  0  0  0  0  0  0  0
    7.3417    0.8691   -0.5067 H   0  0  0  0  0  0  0  0  0  0  0  0
    7.0414    0.1290    1.0948 H   0  0  0  0  0  0  0  0  0  0  0  0
    3.9599    1.0102    1.1953 H   0  0  0  0  0  0  0  0  0  0  0  0
  1  2  1  0
  2  3  2  0
  3  4  1  0
  4  5  1  0
  4  6  2  0
  6  7  1  0
  7  8  1  0
  8  9  2  0
  8 10  1  0
 10 11  1  0
 11 12  1  0
 11 13  1  0
 11 14  1  0
  7 15  2  0
 15 16  1  0
 16 17  1  0
 17 18  1  0
 18 19  1  0
 19 20  1  0
 20 21  1  0
 21 22  2  0
 22 23  1  0
 22 24  1  0
 24 25  1  0
 24 26  1  0
 15  2  1  0
 26 20  2  0
  1 27  1  0
  1 28  1  0
  1 29  1  0
  3 30  1  0
  6 31  1  0
 10 32  1  0
 12 33  1  0
 12 34  1  0
 12 35  1  0
 13 36  1  0
 13 37  1  0
 13 38  1  0
 14 39  1  0
 14 40  1  0
 14 41  1  0
 17 42  1  0
 17 43  1  0
 18 44  1  0
 18 45  1  0
 19 46  1  0
 19 47  1  0
 21 48  1  0
 23 49  1  0
 23 50  1  0
 23 51  1  0
 25 52  1  0
 25 53  1  0
 25 54  1  0
 26 55  1  0
M  END
$$$$
[H]c1nc2c(c([H])c1C(=O)N([H])c1c([H])c(C(=O)N([H])C([H])([H])c3sc(C([H])([H])N4C([H])([H])C([H])([H])OC([H])([H])C4([H])[H])c([H])c3[H])c([H])c([H])c1OC([H])([H])[H])c(-c1c([H])c([H])c([H])c(C(F)(F)F)c1[H])c([H])n2[H]
     RDKit          3D

 76 81  0  0  0  0  0  0  0  0999 V2000
   -1.4181   -5.0487   -3.1551 C   0  0  0  0  0  0  0  0  0  0  0  0
   -1.7749   -4.1114   -2.1680 O   0  0  0  0  0  0  0  0  0  0  0  0
   -0.8633   -3.2255   -1.6285 C   0  0  0  0  0  0  0  0  0  0  0  0
    0.4464   -3.2060   -2.0282 C   0  0  0  0  0  0  0  0  0  0  0  0
    1.3612   -2.3122   -1.4766 C   0  0  0  0  0  0  0  0  0  0  0  0
    0.9298   -1.4289   -0.5069 C   0  0  0  0  0  0  0  0  0  0  0  0
   -0.3746   -1.4481   -0.1125 C   0  0  0  0  0  0  0  0  0  0  0  0
   -1.3116   -2.3263   -0.6400 C   0  0  0  0  0  0  0  0  0  0  0  0
   -2.6505   -2.4186   -0.2334 N   0  0  0  0  0  0  0  0  0  0  0  0
   -3.3829   -1.6002    0.6202 C   0  0  0  0  0  0  0  0  0  0  0  0
   -2.8815   -0.5864    1.1574 O   0  0  0  0  0  0  0  0  0  0  0  0
   -4.7976   -1.8741    0.9476 C   0  0  0  0  0  0  0  0  0  0  0  0
   -5.1888   -3.1126    1.4127 C   0  0  0  0  0  0  0  0  0  0  0  0
   -6.4615   -3.3956    1.7141 N   0  0  0  0  0  0  0  0  0  0  0  0
   -7.4075   -2.4500    1.5641 C   0  0  0  0  0  0  0  0  0  0  0  0
   -8.7453   -2.4345    1.7776 N   0  0  0  0  0  0  0  0  0  0  0  0
   -9.2490   -1.2353    1.4695 C   0  0  0  0  0  0  0  0  0  0  0  0
   -8.2034   -0.4069    1.0288 C   0  0  0  0  0  0  0  0  0  0  0  0
   -8.3324    0.9661    0.5752 C   0  0  0  0  0  0  0  0  0  0  0  0
   -9.4182    1.2326   -0.2809 C   0  0  0  0  0  0  0  0  0  0  0  0
   -9.6822    2.4628   -0.7886 C   0  0  0  0  0  0  0  0  0  0  0  0
   -8.8598    3.4993   -0.4587 C   0  0  0  0  0  0  0  0  0  0  0  0
   -7.7747    3.2535    0.3908 C   0  0  0  0  0  0  0  0  0  0  0  0
   -7.5122    1.9934    0.9060 C   0  0  0  0  0  0  0  0  0  0  0  0
   -6.9339    4.4336    0.6893 C   0  0  0  0  0  0  0  0  0  0  0  0
   -7.7094    5.3691    1.3667 F   0  0  0  0  0  0  0  0  0  0  0  0
   -5.8051    4.1210    1.3847 F   0  0  0  0  0  0  0  0  0  0  0  0
   -6.5959    5.0151   -0.5440 F   0  0  0  0  0  0  0  0  0  0  0  0
   -7.0802   -1.1754    1.0968 C   0  0  0  0  0  0  0  0  0  0  0  0
   -5.7376   -0.9001    0.7867 C   0  0  0  0  0  0  0  0  0  0  0  0
    1.9002   -0.5221    0.1389 C   0  0  0  0  0  0  0  0  0  0  0  0
    1.6987    0.7042    0.0201 O   0  0  0  0  0  0  0  0  0  0  0  0
    2.9999   -1.0064    0.8615 N   0  0  0  0  0  0  0  0  0  0  0  0
    4.0195   -0.3231    1.5486 C   0  0  0  0  0  0  0  0  0  0  0  0
    4.9317    0.5310    0.7453 C   0  0  0  0  0  0  0  0  0  0  0  0
    4.9107    1.8851    0.5295 C   0  0  0  0  0  0  0  0  0  0  0  0
    5.8880    2.4203   -0.2112 C   0  0  0  0  0  0  0  0  0  0  0  0
    6.8437    1.5698   -0.7041 C   0  0  0  0  0  0  0  0  0  0  0  0
    8.0221    1.9661   -1.5284 C   0  0  0  0  0  0  0  0  0  0  0  0
    9.2725    1.8997   -0.8497 N   0  0  0  0  0  0  0  0  0  0  0  0
    9.6638    0.5716   -0.4128 C   0  0  0  0  0  0  0  0  0  0  0  0
   11.0160    0.7808    0.2927 C   0  0  0  0  0  0  0  0  0  0  0  0
   10.7307    1.3283    1.5428 O   0  0  0  0  0  0  0  0  0  0  0  0
    9.6158    2.1274    1.5643 C   0  0  0  0  0  0  0  0  0  0  0  0
    9.3740    2.8485    0.2491 C   0  0  0  0  0  0  0  0  0  0  0  0
    6.3493    0.0541   -0.1222 S   0  0  0  0  0  0  0  0  0  0  0  0
   -2.1516   -5.8800   -3.2421 H   0  0  0  0  0  0  0  0  0  0  0  0
   -1.2675   -4.5110   -4.0970 H   0  0  0  0  0  0  0  0  0  0  0  0
   -0.4307   -5.4919   -2.8585 H   0  0  0  0  0  0  0  0  0  0  0  0
    0.7982   -3.9023   -2.8011 H   0  0  0  0  0  0  0  0  0  0  0  0
    2.3908   -2.3059   -1.7974 H   0  0  0  0  0  0  0  0  0  0  0  0
   -0.6567   -0.7367    0.6494 H   0  0  0  0  0  0  0  0  0  0  0  0
   -3.2090   -3.2455   -0.6286 H   0  0  0  0  0  0  0  0  0  0  0  0
   -4.4059   -3.8444    1.5161 H   0  0  0  0  0  0  0  0  0  0  0  0
   -9.2543   -3.2699    2.1347 H   0  0  0  0  0  0  0  0  0  0  0  0
  -10.2672   -0.8861    1.5230 H   0  0  0  0  0  0  0  0  0  0  0  0
  -10.0730    0.4149   -0.5477 H   0  0  0  0  0  0  0  0  0  0  0  0
  -10.5484    2.6072   -1.4570 H   0  0  0  0  0  0  0  0  0  0  0  0
   -9.0822    4.4702   -0.8723 H   0  0  0  0  0  0  0  0  0  0  0  0
   -6.6788    1.8250    1.5597 H   0  0  0  0  0  0  0  0  0  0  0  0
   -5.4984    0.0881    0.4274 H   0  0  0  0  0  0  0  0  0  0  0  0
    3.0797   -2.0821    0.8882 H   0  0  0  0  0  0  0  0  0  0  0  0
    3.5569    0.3868    2.3016 H   0  0  0  0  0  0  0  0  0  0  0  0
    4.6603   -0.9840    2.1840 H   0  0  0  0  0  0  0  0  0  0  0  0
    4.0772    2.4749    0.9832 H   0  0  0  0  0  0  0  0  0  0  0  0
    5.9246    3.5195   -0.4175 H   0  0  0  0  0  0  0  0  0  0  0  0
    8.1036    1.2898   -2.4314 H   0  0  0  0  0  0  0  0  0  0  0  0
    7.8856    2.9842   -1.9575 H   0  0  0  0  0  0  0  0  0  0  0  0
    9.8799   -0.0994   -1.2678 H   0  0  0  0  0  0  0  0  0  0  0  0
    8.9693    0.0796    0.2630 H   0  0  0  0  0  0  0  0  0  0  0  0
   11.6380    1.4300   -0.3260 H   0  0  0  0  0  0  0  0  0  0  0  0
   11.4605   -0.2147    0.4223 H   0  0  0  0  0  0  0  0  0  0  0  0
    9.7683    2.9032    2.3382 H   0  0  0  0  0  0  0  0  0  0  0  0
    8.7262    1.5392    1.8528 H   0  0  0  0  0  0  0  0  0  0  0  0
    8.5057    3.4934    0.3703 H   0  0  0  0  0  0  0  0  0  0  0  0
   10.2770    3.4629    0.0571 H   0  0  0  0  0  0  0  0  0  0  0  0
  1  2  1  0
  2  3  1  0
  3  4  2  0
  4  5  1  0
  5  6  2  0
  6  7  1  0
  7  8  2  0
  8  9  1  0
  9 10  1  0
 10 11  2  0
 10 12  1  0
 12 13  2  0
 13 14  1  0
 14 15  2  0
 15 16  1  0
 16 17  1  0
 17 18  2  0
 18 19  1  0
 19 20  2  0
 20 21  1  0
 21 22  2  0
 22 23  1  0
 23 24  2  0
 23 25  1  0
 25 26  1  0
 25 27  1  0
 25 28  1  0
 18 29  1  0
 29 30  2  0
  6 31  1  0
 31 32  2  0
 31 33  1  0
 33 34  1  0
 34 35  1  0
 35 36  2  0
 36 37  1  0
 37 38  2  0
 38 39  1  0
 39 40  1  0
 40 41  1  0
 41 42  1  0
 42 43  1  0
 43 44  1  0
 44 45  1  0
 38 46  1  0
  8  3  1  0
 30 12  1  0
 46 35  1  0
 29 15  1  0
 45 40  1  0
 24 19  1  0
  1 47  1  0
  1 48  1  0
  1 49  1  0
  4 50  1  0
  5 51  1  0
  7 52  1  0
  9 53  1  0
 13 54  1  0
 16 55  1  0
 17 56  1  0
 20 57  1  0
 21 58  1  0
 22 59  1  0
 24 60  1  0
 30 61  1  0
 33 62  1  0
 34 63  1  0
 34 64  1  0
 36 65  1  0
 37 66  1  0
 39 67  1  0
 39 68  1  0
 41 69  1  0
 41 70  1  0
 42 71  1  0
 42 72  1  0
 44 73  1  0
 44 74  1  0
 45 75  1  0
 45 76  1  0
M  END
$$$$
[H]c1c([H])c(C([H])([H])N(C([H])([H])[H])[C@]([H])(C(=O)N2C([H])([H])C([H])([H])N([C@@]([H])(c3nn([H])c(=O)c([H])c3[H])C([H])([H])C([H])(C([H])([H])[H])C([H])([H])[H])C([H])([H])C2([H])[H])C([H])([H])[H])c([H])c([H])c1C([H])([H])[H]
     RDKit          3D

 69 71  0  0  0  0  0  0  0  0999 V2000
   -5.3512   -2.6736    1.2861 C   0  0  0  0  0  0  0  0  0  0  0  0
   -5.5241   -2.0772   -0.0722 C   0  0  0  0  0  0  0  0  0  0  0  0
   -5.9315   -3.1914   -1.0220 C   0  0  0  0  0  0  0  0  0  0  0  0
   -4.3082   -1.4260   -0.6414 C   0  0  0  0  0  0  0  0  0  0  0  0
   -3.7898   -0.2871    0.2017 C   0  0  1  0  0  0  0  0  0  0  0  0
   -2.6324    0.3397   -0.3376 N   0  0  0  0  0  0  0  0  0  0  0  0
   -1.8939    1.0258    0.6224 C   0  0  0  0  0  0  0  0  0  0  0  0
   -0.7137    1.8382    0.1188 C   0  0  0  0  0  0  0  0  0  0  0  0
   -0.0247    1.0258   -0.8394 N   0  0  0  0  0  0  0  0  0  0  0  0
   -0.8077    0.5479   -1.9562 C   0  0  0  0  0  0  0  0  0  0  0  0
   -2.0668   -0.1508   -1.5101 C   0  0  0  0  0  0  0  0  0  0  0  0
    1.3345    0.7083   -0.7130 C   0  0  0  0  0  0  0  0  0  0  0  0
    1.8182   -0.0379   -1.6391 O   0  0  0  0  0  0  0  0  0  0  0  0
    2.2381    1.1560    0.3863 C   0  0  2  0  0  0  0  0  0  0  0  0
    2.3548    2.6524    0.4793 C   0  0  0  0  0  0  0  0  0  0  0  0
    3.5404    0.5353    0.2185 N   0  0  0  0  0  0  0  0  0  0  0  0
    4.2224    0.9265   -0.9705 C   0  0  0  0  0  0  0  0  0  0  0  0
    4.3087    0.4585    1.4054 C   0  0  0  0  0  0  0  0  0  0  0  0
    5.6030   -0.2339    1.0740 C   0  0  0  0  0  0  0  0  0  0  0  0
    5.5595   -1.5761    0.8085 C   0  0  0  0  0  0  0  0  0  0  0  0
    6.7356   -2.2619    0.4951 C   0  0  0  0  0  0  0  0  0  0  0  0
    7.9575   -1.6295    0.4424 C   0  0  0  0  0  0  0  0  0  0  0  0
    9.2009   -2.3578    0.1067 C   0  0  0  0  0  0  0  0  0  0  0  0
    7.9931   -0.2683    0.7132 C   0  0  0  0  0  0  0  0  0  0  0  0
    6.8141    0.4090    1.0249 C   0  0  0  0  0  0  0  0  0  0  0  0
   -4.8246    0.7557    0.4246 C   0  0  0  0  0  0  0  0  0  0  0  0
   -5.0198    1.6772   -0.5778 C   0  0  0  0  0  0  0  0  0  0  0  0
   -5.9657    2.6842   -0.4312 C   0  0  0  0  0  0  0  0  0  0  0  0
   -6.6867    2.7181    0.7414 C   0  0  0  0  0  0  0  0  0  0  0  0
   -7.5644    3.5937    0.9630 O   0  0  0  0  0  0  0  0  0  0  0  0
   -6.4745    1.7999    1.7101 N   0  0  0  0  0  0  0  0  0  0  0  0
   -5.5662    0.8598    1.5311 N   0  0  0  0  0  0  0  0  0  0  0  0
   -5.7040   -3.7464    1.3305 H   0  0  0  0  0  0  0  0  0  0  0  0
   -4.3217   -2.6913    1.6539 H   0  0  0  0  0  0  0  0  0  0  0  0
   -6.0485   -2.1297    1.9829 H   0  0  0  0  0  0  0  0  0  0  0  0
   -6.3624   -1.3405   -0.1083 H   0  0  0  0  0  0  0  0  0  0  0  0
   -5.6036   -2.9806   -2.0697 H   0  0  0  0  0  0  0  0  0  0  0  0
   -5.3808   -4.1192   -0.7186 H   0  0  0  0  0  0  0  0  0  0  0  0
   -7.0190   -3.4162   -0.9631 H   0  0  0  0  0  0  0  0  0  0  0  0
   -3.5012   -2.1959   -0.7484 H   0  0  0  0  0  0  0  0  0  0  0  0
   -4.5480   -1.0963   -1.6728 H   0  0  0  0  0  0  0  0  0  0  0  0
   -3.5393   -0.7202    1.2036 H   0  0  0  0  0  0  0  0  0  0  0  0
   -1.4747    0.3628    1.4318 H   0  0  0  0  0  0  0  0  0  0  0  0
   -2.5699    1.7898    1.1148 H   0  0  0  0  0  0  0  0  0  0  0  0
   -1.1687    2.7064   -0.4212 H   0  0  0  0  0  0  0  0  0  0  0  0
   -0.1541    2.1389    1.0027 H   0  0  0  0  0  0  0  0  0  0  0  0
   -0.2489   -0.1328   -2.6228 H   0  0  0  0  0  0  0  0  0  0  0  0
   -1.0886    1.4394   -2.5500 H   0  0  0  0  0  0  0  0  0  0  0  0
   -1.8267   -1.2287   -1.4023 H   0  0  0  0  0  0  0  0  0  0  0  0
   -2.7942   -0.0506   -2.3560 H   0  0  0  0  0  0  0  0  0  0  0  0
    1.8165    0.7838    1.3317 H   0  0  0  0  0  0  0  0  0  0  0  0
    2.0362    2.9876    1.4694 H   0  0  0  0  0  0  0  0  0  0  0  0
    3.4437    2.9083    0.4111 H   0  0  0  0  0  0  0  0  0  0  0  0
    1.8703    3.1888   -0.3622 H   0  0  0  0  0  0  0  0  0  0  0  0
    3.6246    1.5866   -1.6385 H   0  0  0  0  0  0  0  0  0  0  0  0
    5.1523    1.5127   -0.7264 H   0  0  0  0  0  0  0  0  0  0  0  0
    4.5620    0.0555   -1.5647 H   0  0  0  0  0  0  0  0  0  0  0  0
    3.7646   -0.1906    2.1444 H   0  0  0  0  0  0  0  0  0  0  0  0
    4.5437    1.4526    1.8615 H   0  0  0  0  0  0  0  0  0  0  0  0
    4.6184   -2.1202    0.8376 H   0  0  0  0  0  0  0  0  0  0  0  0
    6.7036   -3.3289    0.2852 H   0  0  0  0  0  0  0  0  0  0  0  0
    9.5776   -1.8957   -0.8466 H   0  0  0  0  0  0  0  0  0  0  0  0
    9.9773   -2.2811    0.8941 H   0  0  0  0  0  0  0  0  0  0  0  0
    8.9874   -3.4204   -0.0405 H   0  0  0  0  0  0  0  0  0  0  0  0
    8.9203    0.2655    0.6843 H   0  0  0  0  0  0  0  0  0  0  0  0
    6.8262    1.4615    1.2372 H   0  0  0  0  0  0  0  0  0  0  0  0
   -4.4460    1.6513   -1.5118 H   0  0  0  0  0  0  0  0  0  0  0  0
   -6.1428    3.4184   -1.1952 H   0  0  0  0  0  0  0  0  0  0  0  0
   -7.0162    1.8348    2.5797 H   0  0  0  0  0  0  0  0  0  0  0  0
  1  2  1  0
  2  3  1  0
  2  4  1  0
  4  5  1  0
  5  6  1  0
  6  7  1  0
  7  8  1  0
  8  9  1  0
  9 10  1  0
 10 11  1  0
  9 12  1  0
 12 13  2  0
 12 14  1  0
 14 15  1  0
 14 16  1  0
 16 17  1  0
 16 18  1  0
 18 19  1  0
 19 20  2  0
 20 21  1  0
 21 22  2  0
 22 23  1  0
 22 24  1  0
 24 25  2  0
  5 26  1  0
 26 27  1  0
 27 28  2  0
 28 29  1  0
 29 30  2  0
 29 31  1  0
 31 32  1  0
 11  6  1  0
 25 19  1  0
 32 26  2  0
  1 33  1  0
  1 34  1  0
  1 35  1  0
  2 36  1  0
  3 37  1  0
  3 38  1  0
  3 39  1  0
  4 40  1  0
  4 41  1  0
  5 42  1  1
  7 43  1  0
  7 44  1  0
  8 45  1  0
  8 46  1  0
 10 47  1  0
 10 48  1  0
 11 49  1  0
 11 50  1  0
 14 51  1  1
 15 52  1  0
 15 53  1  0
 15 54  1  0
 17 55  1  0
 17 56  1  0
 17 57  1  0
 18 58  1  0
 18 59  1  0
 20 60  1  0
 21 61  1  0
 23 62  1  0
 23 63  1  0
 23 64  1  0
 24 65  1  0
 25 66  1  0
 27 67  1  0
 28 68  1  0
 31 69  1  0
M  END
$$$$
[H]c1c([H])c(C([H])([H])N2C([H])([H])C([H])([H])N(S(=O)(=O)C([H])([H])[H])C([H])([H])C2([H])[H])c([H])c([H])c1[N+](=O)[O-]
     RDKit          3D

 37 38  0  0  0  0  0  0  0  0999 V2000
    4.0379   -1.8123    0.7340 C   0  0  0  0  0  0  0  0  0  0  0  0
    4.3520   -0.5025   -0.3991 S   0  0  0  0  0  0  0  0  0  0  0  0
    4.8887   -0.9793   -1.7144 O   0  0  0  0  0  0  0  0  0  0  0  0
    5.4410    0.3747    0.2046 O   0  0  0  0  0  0  0  0  0  0  0  0
    2.9960    0.5081   -0.6651 N   0  0  0  0  0  0  0  0  0  0  0  0
    2.5500    1.1717    0.5400 C   0  0  0  0  0  0  0  0  0  0  0  0
    1.3466    1.9976    0.1787 C   0  0  0  0  0  0  0  0  0  0  0  0
    0.2333    1.1881   -0.3155 N   0  0  0  0  0  0  0  0  0  0  0  0
   -0.8154    1.3209    0.6572 C   0  0  0  0  0  0  0  0  0  0  0  0
   -2.0659    0.6216    0.3569 C   0  0  0  0  0  0  0  0  0  0  0  0
   -2.4804    0.2957   -0.9159 C   0  0  0  0  0  0  0  0  0  0  0  0
   -3.6824   -0.3750   -1.1401 C   0  0  0  0  0  0  0  0  0  0  0  0
   -4.5043   -0.7387   -0.0953 C   0  0  0  0  0  0  0  0  0  0  0  0
   -4.0987   -0.4173    1.1822 C   0  0  0  0  0  0  0  0  0  0  0  0
   -2.9086    0.2463    1.3990 C   0  0  0  0  0  0  0  0  0  0  0  0
   -5.7358   -1.4237   -0.3026 N   0  0  0  0  0  0  0  0  0  0  0  0
   -6.1681   -1.7585   -1.5628 O   0  0  0  0  0  0  0  0  0  0  0  0
   -6.4462   -1.7321    0.6694 O   0  0  0  0  0  0  0  0  0  0  0  0
    0.6854   -0.1795   -0.4719 C   0  0  0  0  0  0  0  0  0  0  0  0
    1.9236   -0.1269   -1.3778 C   0  0  0  0  0  0  0  0  0  0  0  0
    4.4153   -2.7670    0.2795 H   0  0  0  0  0  0  0  0  0  0  0  0
    2.9684   -1.9573    0.9340 H   0  0  0  0  0  0  0  0  0  0  0  0
    4.6038   -1.7078    1.6933 H   0  0  0  0  0  0  0  0  0  0  0  0
    3.3544    1.9005    0.8088 H   0  0  0  0  0  0  0  0  0  0  0  0
    2.3818    0.4487    1.3403 H   0  0  0  0  0  0  0  0  0  0  0  0
    1.6683    2.6554   -0.6805 H   0  0  0  0  0  0  0  0  0  0  0  0
    1.0319    2.6986    0.9750 H   0  0  0  0  0  0  0  0  0  0  0  0
   -0.4206    0.9401    1.6285 H   0  0  0  0  0  0  0  0  0  0  0  0
   -0.9753    2.4145    0.8175 H   0  0  0  0  0  0  0  0  0  0  0  0
   -1.8627    0.5671   -1.7642 H   0  0  0  0  0  0  0  0  0  0  0  0
   -4.0084   -0.6310   -2.1378 H   0  0  0  0  0  0  0  0  0  0  0  0
   -4.7665   -0.7160    1.9926 H   0  0  0  0  0  0  0  0  0  0  0  0
   -2.5999    0.4950    2.4214 H   0  0  0  0  0  0  0  0  0  0  0  0
    0.9138   -0.6793    0.4809 H   0  0  0  0  0  0  0  0  0  0  0  0
   -0.0470   -0.7829   -1.0050 H   0  0  0  0  0  0  0  0  0  0  0  0
    1.6391    0.5483   -2.2254 H   0  0  0  0  0  0  0  0  0  0  0  0
    2.1549   -1.1055   -1.7910 H   0  0  0  0  0  0  0  0  0  0  0  0
  1  2  1  0
  2  3  2  0
  2  4  2  0
  2  5  1  0
  5  6  1  0
  6  7  1  0
  7  8  1  0
  8  9  1  0
  9 10  1  0
 10 11  2  0
 11 12  1  0
 12 13  2  0
 13 14  1  0
 14 15  2  0
 13 16  1  0
 16 17  1  0
 16 18  2  0
  8 19  1  0
 19 20  1  0
 20  5  1  0
 15 10  1  0
  1 21  1  0
  1 22  1  0
  1 23  1  0
  6 24  1  0
  6 25  1  0
  7 26  1  0
  7 27  1  0
  9 28  1  0
  9 29  1  0
 11 30  1  0
 12 31  1  0
 14 32  1  0
 15 33  1  0
 19 34  1  0
 19 35  1  0
 20 36  1  0
 20 37  1  0
M  CHG  2  16   1  17  -1
M  END
$$$$
[H]c1c(F)c([H])c2nc(C3([H])C([H])([H])C([H])([H])N(C([H])([H])C([H])([H])OC([H])([H])[H])C([H])([H])C3([H])[H])n([H])c2c1[H]
     RDKit          3D

 40 42  0  0  0  0  0  0  0  0999 V2000
    6.6735    0.0986    0.0626 C   0  0  0  0  0  0  0  0  0  0  0  0
    5.6117   -0.7599   -0.3037 O   0  0  0  0  0  0  0  0  0  0  0  0
    4.4233   -0.2116    0.2230 C   0  0  0  0  0  0  0  0  0  0  0  0
    3.2407   -1.1090   -0.1331 C   0  0  0  0  0  0  0  0  0  0  0  0
    2.0801   -0.5197    0.4252 N   0  0  0  0  0  0  0  0  0  0  0  0
    1.7384    0.6914   -0.2274 C   0  0  0  0  0  0  0  0  0  0  0  0
    0.2734    0.5976   -0.6353 C   0  0  0  0  0  0  0  0  0  0  0  0
   -0.5288    0.6097    0.6465 C   0  0  0  0  0  0  0  0  0  0  0  0
   -0.0549   -0.5628    1.4848 C   0  0  0  0  0  0  0  0  0  0  0  0
    1.0081   -1.3797    0.7804 C   0  0  0  0  0  0  0  0  0  0  0  0
   -1.9799    0.5571    0.4053 C   0  0  0  0  0  0  0  0  0  0  0  0
   -2.8586    1.5066    0.7449 N   0  0  0  0  0  0  0  0  0  0  0  0
   -4.1053    1.1127    0.3717 C   0  0  0  0  0  0  0  0  0  0  0  0
   -5.3734    1.6647    0.4618 C   0  0  0  0  0  0  0  0  0  0  0  0
   -6.4863    1.0111   -0.0177 C   0  0  0  0  0  0  0  0  0  0  0  0
   -7.7403    1.5224    0.0547 F   0  0  0  0  0  0  0  0  0  0  0  0
   -6.3091   -0.2279   -0.6019 C   0  0  0  0  0  0  0  0  0  0  0  0
   -5.0488   -0.7800   -0.6932 C   0  0  0  0  0  0  0  0  0  0  0  0
   -3.9269   -0.1241   -0.2108 C   0  0  0  0  0  0  0  0  0  0  0  0
   -2.6167   -0.4661   -0.1897 N   0  0  0  0  0  0  0  0  0  0  0  0
    6.7343    0.1623    1.1895 H   0  0  0  0  0  0  0  0  0  0  0  0
    7.6037   -0.4336   -0.2307 H   0  0  0  0  0  0  0  0  0  0  0  0
    6.5662    1.0877   -0.3864 H   0  0  0  0  0  0  0  0  0  0  0  0
    4.2430    0.8139   -0.1880 H   0  0  0  0  0  0  0  0  0  0  0  0
    4.5645   -0.1306    1.3175 H   0  0  0  0  0  0  0  0  0  0  0  0
    3.1296   -1.0803   -1.2549 H   0  0  0  0  0  0  0  0  0  0  0  0
    3.4329   -2.1566    0.1319 H   0  0  0  0  0  0  0  0  0  0  0  0
    1.8024    1.5434    0.4975 H   0  0  0  0  0  0  0  0  0  0  0  0
    2.3495    0.9393   -1.1306 H   0  0  0  0  0  0  0  0  0  0  0  0
   -0.0162    1.4528   -1.2824 H   0  0  0  0  0  0  0  0  0  0  0  0
    0.1109   -0.3155   -1.2269 H   0  0  0  0  0  0  0  0  0  0  0  0
   -0.2586    1.5676    1.1770 H   0  0  0  0  0  0  0  0  0  0  0  0
    0.4391   -0.1781    2.4130 H   0  0  0  0  0  0  0  0  0  0  0  0
   -0.9293   -1.1302    1.7940 H   0  0  0  0  0  0  0  0  0  0  0  0
    1.4051   -2.0848    1.5718 H   0  0  0  0  0  0  0  0  0  0  0  0
    0.6100   -2.0207   -0.0169 H   0  0  0  0  0  0  0  0  0  0  0  0
   -5.4997    2.6352    0.9186 H   0  0  0  0  0  0  0  0  0  0  0  0
   -7.1666   -0.7790   -0.9950 H   0  0  0  0  0  0  0  0  0  0  0  0
   -4.8915   -1.7660   -1.1515 H   0  0  0  0  0  0  0  0  0  0  0  0
   -2.2494   -1.3576   -0.5733 H   0  0  0  0  0  0  0  0  0  0  0  0
  1  2  1  0
  2  3  1  0
  3  4  1  0
  4  5  1  0
  5  6  1  0
  6  7  1  0
  7  8  1  0
  8  9  1  0
  9 10  1  0
  8 11  1  0
 11 12  2  0
 12 13  1  0
 13 14  2  0
 14 15  1  0
 15 16  1  0
 15 17  2  0
 17 18  1  0
 18 19  2  0
 19 20  1  0
 10  5  1  0
 20 11  1  0
 19 13  1  0
  1 21  1  0
  1 22  1  0
  1 23  1  0
  3 24  1  0
  3 25  1  0
  4 26  1  0
  4 27  1  0
  6 28  1  0
  6 29  1  0
  7 30  1  0
  7 31  1  0
  8 32  1  0
  9 33  1  0
  9 34  1  0
 10 35  1  0
 10 36  1  0
 14 37  1  0
 17 38  1  0
 18 39  1  0
 20 40  1  0
M  END
$$$$
[H]c1nc(-c2c([H])c([H])c(OC([H])([H])[H])c([H])c2[H])c([H])c([H])c1C([H])([H])c1c([H])nn([H])c1[H]
     RDKit          3D

 35 37  0  0  0  0  0  0  0  0999 V2000
    6.3291   -0.8504    2.0448 C   0  0  0  0  0  0  0  0  0  0  0  0
    5.7885    0.2906    1.4210 O   0  0  0  0  0  0  0  0  0  0  0  0
    4.4851    0.2354    0.9599 C   0  0  0  0  0  0  0  0  0  0  0  0
    3.8927    1.3198    0.3381 C   0  0  0  0  0  0  0  0  0  0  0  0
    2.5895    1.2608   -0.1215 C   0  0  0  0  0  0  0  0  0  0  0  0
    1.8224    0.1277    0.0162 C   0  0  0  0  0  0  0  0  0  0  0  0
    2.4368   -0.9491    0.6434 C   0  0  0  0  0  0  0  0  0  0  0  0
    3.7293   -0.9060    1.1049 C   0  0  0  0  0  0  0  0  0  0  0  0
    0.4440    0.0254   -0.4550 C   0  0  0  0  0  0  0  0  0  0  0  0
   -0.2207    1.0513   -1.0820 C   0  0  0  0  0  0  0  0  0  0  0  0
   -1.5423    0.9313   -1.5257 C   0  0  0  0  0  0  0  0  0  0  0  0
   -2.1767   -0.2628   -1.3163 C   0  0  0  0  0  0  0  0  0  0  0  0
   -3.5841   -0.4420   -1.7696 C   0  0  0  0  0  0  0  0  0  0  0  0
   -4.5614   -0.0575   -0.7241 C   0  0  0  0  0  0  0  0  0  0  0  0
   -5.1012   -0.8788    0.2487 C   0  0  0  0  0  0  0  0  0  0  0  0
   -5.9311   -0.0978    0.9625 N   0  0  0  0  0  0  0  0  0  0  0  0
   -5.9433    1.1275    0.5087 N   0  0  0  0  0  0  0  0  0  0  0  0
   -5.0981    1.2001   -0.5503 C   0  0  0  0  0  0  0  0  0  0  0  0
   -1.5230   -1.2816   -0.6960 C   0  0  0  0  0  0  0  0  0  0  0  0
   -0.2601   -1.1224   -0.2885 N   0  0  0  0  0  0  0  0  0  0  0  0
    5.6658   -1.0810    2.9253 H   0  0  0  0  0  0  0  0  0  0  0  0
    6.2543   -1.7093    1.3423 H   0  0  0  0  0  0  0  0  0  0  0  0
    7.3603   -0.6659    2.3677 H   0  0  0  0  0  0  0  0  0  0  0  0
    4.5037    2.2087    0.2335 H   0  0  0  0  0  0  0  0  0  0  0  0
    2.1883    2.1420   -0.5972 H   0  0  0  0  0  0  0  0  0  0  0  0
    1.8507   -1.8497    0.7615 H   0  0  0  0  0  0  0  0  0  0  0  0
    4.1970   -1.7534    1.5926 H   0  0  0  0  0  0  0  0  0  0  0  0
    0.2881    1.9917   -1.2436 H   0  0  0  0  0  0  0  0  0  0  0  0
   -2.0631    1.7398   -2.0186 H   0  0  0  0  0  0  0  0  0  0  0  0
   -3.7599   -1.4925   -2.0337 H   0  0  0  0  0  0  0  0  0  0  0  0
   -3.7389    0.1991   -2.6597 H   0  0  0  0  0  0  0  0  0  0  0  0
   -4.8855   -1.9402    0.3915 H   0  0  0  0  0  0  0  0  0  0  0  0
   -6.5022    1.9315    0.8831 H   0  0  0  0  0  0  0  0  0  0  0  0
   -4.8998    2.0965   -1.1353 H   0  0  0  0  0  0  0  0  0  0  0  0
   -2.0342   -2.2398   -0.5287 H   0  0  0  0  0  0  0  0  0  0  0  0
  1  2  1  0
  2  3  1  0
  3  4  2  0
  4  5  1  0
  5  6  2  0
  6  7  1  0
  7  8  2  0
  6  9  1  0
  9 10  2  0
 10 11  1  0
 11 12  2  0
 12 13  1  0
 13 14  1  0
 14 15  1  0
 15 16  2  0
 16 17  1  0
 17 18  1  0
 12 19  1  0
 19 20  2  0
  8  3  1  0
 20  9  1  0
 18 14  2  0
  1 21  1  0
  1 22  1  0
  1 23  1  0
  4 24  1  0
  5 25  1  0
  7 26  1  0
  8 27  1  0
 10 28  1  0
 11 29  1  0
 13 30  1  0
 13 31  1  0
 15 32  1  0
 17 33  1  0
 18 34  1  0
 19 35  1  0
M  END
$$$$
[H]c1nc([H])c(C([H])(N([H])C(=O)c2c([H])c([H])c(-c3nc(-c4c([H])c([H])c(C([H])([H])[H])c([H])c4[H])no3)c(OC([H])([H])C([H])([H])[H])c2[H])C([H])([H])[H])s1
     RDKit          3D

 53 56  0  0  0  0  0  0  0  0999 V2000
   -0.2937   -3.5842    2.6417 C   0  0  0  0  0  0  0  0  0  0  0  0
   -0.9680   -2.6281    1.6937 C   0  0  0  0  0  0  0  0  0  0  0  0
   -0.0171   -1.7759    1.0689 O   0  0  0  0  0  0  0  0  0  0  0  0
   -0.3966   -0.8075    0.1518 C   0  0  0  0  0  0  0  0  0  0  0  0
   -1.7429   -0.6363   -0.1916 C   0  0  0  0  0  0  0  0  0  0  0  0
   -2.1277    0.3143   -1.0935 C   0  0  0  0  0  0  0  0  0  0  0  0
   -1.1548    1.1140   -1.6687 C   0  0  0  0  0  0  0  0  0  0  0  0
    0.1650    0.9291   -1.3166 C   0  0  0  0  0  0  0  0  0  0  0  0
    0.5799   -0.0193   -0.4124 C   0  0  0  0  0  0  0  0  0  0  0  0
    1.9811   -0.1962   -0.0559 C   0  0  0  0  0  0  0  0  0  0  0  0
    3.0280    0.5108   -0.5359 N   0  0  0  0  0  0  0  0  0  0  0  0
    4.1709    0.0712    0.0176 C   0  0  0  0  0  0  0  0  0  0  0  0
    3.8026   -0.9164    0.8436 N   0  0  0  0  0  0  0  0  0  0  0  0
    2.4948   -1.0575    0.7832 O   0  0  0  0  0  0  0  0  0  0  0  0
    5.5121    0.5890   -0.2524 C   0  0  0  0  0  0  0  0  0  0  0  0
    5.6650    1.6231   -1.1514 C   0  0  0  0  0  0  0  0  0  0  0  0
    6.9107    2.1466   -1.4402 C   0  0  0  0  0  0  0  0  0  0  0  0
    8.0551    1.6481   -0.8335 C   0  0  0  0  0  0  0  0  0  0  0  0
    9.3906    2.2187   -1.1516 C   0  0  0  0  0  0  0  0  0  0  0  0
    7.8685    0.6163    0.0587 C   0  0  0  0  0  0  0  0  0  0  0  0
    6.6354    0.0925    0.3495 C   0  0  0  0  0  0  0  0  0  0  0  0
   -3.5153    0.4973   -1.4499 C   0  0  0  0  0  0  0  0  0  0  0  0
   -3.7779    1.3662   -2.3462 O   0  0  0  0  0  0  0  0  0  0  0  0
   -4.5764   -0.2272   -0.8633 N   0  0  0  0  0  0  0  0  0  0  0  0
   -5.9442    0.0115   -1.2719 C   0  0  0  0  0  0  0  0  0  0  0  0
   -6.6164   -1.2243   -1.7685 C   0  0  0  0  0  0  0  0  0  0  0  0
   -6.7588    0.5800   -0.1448 C   0  0  0  0  0  0  0  0  0  0  0  0
   -8.0239    0.2159    0.2533 C   0  0  0  0  0  0  0  0  0  0  0  0
   -8.5372    0.8478    1.2604 N   0  0  0  0  0  0  0  0  0  0  0  0
   -7.8470    1.8034    1.8641 C   0  0  0  0  0  0  0  0  0  0  0  0
   -6.3922    1.8191    0.9693 S   0  0  0  0  0  0  0  0  0  0  0  0
   -0.9512   -3.9073    3.4605 H   0  0  0  0  0  0  0  0  0  0  0  0
    0.0081   -4.5187    2.0876 H   0  0  0  0  0  0  0  0  0  0  0  0
    0.6120   -3.0682    3.0567 H   0  0  0  0  0  0  0  0  0  0  0  0
   -1.6780   -1.9922    2.2804 H   0  0  0  0  0  0  0  0  0  0  0  0
   -1.5869   -3.1492    0.9243 H   0  0  0  0  0  0  0  0  0  0  0  0
   -2.4829   -1.2650    0.2631 H   0  0  0  0  0  0  0  0  0  0  0  0
   -1.4553    1.8795   -2.3936 H   0  0  0  0  0  0  0  0  0  0  0  0
    0.9132    1.5583   -1.7714 H   0  0  0  0  0  0  0  0  0  0  0  0
    4.7884    2.0546   -1.6606 H   0  0  0  0  0  0  0  0  0  0  0  0
    7.0368    2.9700   -2.1554 H   0  0  0  0  0  0  0  0  0  0  0  0
   10.1136    2.0658   -0.3257 H   0  0  0  0  0  0  0  0  0  0  0  0
    9.8164    1.6670   -2.0345 H   0  0  0  0  0  0  0  0  0  0  0  0
    9.3380    3.3117   -1.3311 H   0  0  0  0  0  0  0  0  0  0  0  0
    8.7748    0.2184    0.5420 H   0  0  0  0  0  0  0  0  0  0  0  0
    6.5072   -0.7200    1.0546 H   0  0  0  0  0  0  0  0  0  0  0  0
   -4.4018   -0.9399   -0.1331 H   0  0  0  0  0  0  0  0  0  0  0  0
   -5.9621    0.8012   -2.0643 H   0  0  0  0  0  0  0  0  0  0  0  0
   -7.1234   -1.8084   -0.9832 H   0  0  0  0  0  0  0  0  0  0  0  0
   -7.2722   -1.0225   -2.6468 H   0  0  0  0  0  0  0  0  0  0  0  0
   -5.8114   -1.9056   -2.1702 H   0  0  0  0  0  0  0  0  0  0  0  0
   -8.5974   -0.5945   -0.2655 H   0  0  0  0  0  0  0  0  0  0  0  0
   -8.1557    2.4230    2.7294 H   0  0  0  0  0  0  0  0  0  0  0  0
  1  2  1  0
  2  3  1  0
  3  4  1  0
  4  5  2  0
  5  6  1  0
  6  7  2  0
  7  8  1  0
  8  9  2  0
  9 10  1  0
 10 11  2  0
 11 12  1  0
 12 13  2  0
 13 14  1  0
 12 15  1  0
 15 16  2  0
 16 17  1  0
 17 18  2  0
 18 19  1  0
 18 20  1  0
 20 21  2  0
  6 22  1  0
 22 23  2  0
 22 24  1  0
 24 25  1  0
 25 26  1  0
 25 27  1  0
 27 28  2  0
 28 29  1  0
 29 30  2  0
 30 31  1  0
  9  4  1  0
 14 10  1  0
 21 15  1  0
 31 27  1  0
  1 32  1  0
  1 33  1  0
  1 34  1  0
  2 35  1  0
  2 36  1  0
  5 37  1  0
  7 38  1  0
  8 39  1  0
 16 40  1  0
 17 41  1  0
 19 42  1  0
 19 43  1  0
 19 44  1  0
 20 45  1  0
 21 46  1  0
 24 47  1  0
 25 48  1  0
 26 49  1  0
 26 50  1  0
 26 51  1  0
 28 52  1  0
 30 53  1  0
M  END
$$$$
[H]OC(=O)c1nc([H])c([H])n1-c1nc(N([H])c2c([H])c([H])c([H])c(C(F)(F)F)c2[H])c(C(=O)N([H])[C@]([H])(c2c([H])nc(C([H])([H])C([H])([H])[H])c([H])c2[H])C([H])(C([H])([H])[H])C([H])([H])[H])s1
     RDKit          3D

 64 67  0  0  0  0  0  0  0  0999 V2000
    2.2521   -0.7977   -3.6030 C   0  0  0  0  0  0  0  0  0  0  0  0
    2.9761   -0.0046   -2.5270 C   0  0  0  0  0  0  0  0  0  0  0  0
    4.3738    0.2853   -3.0265 C   0  0  0  0  0  0  0  0  0  0  0  0
    2.9747   -0.7991   -1.2093 C   0  0  2  0  0  0  0  0  0  0  0  0
    1.6738   -1.0722   -0.7103 N   0  0  0  0  0  0  0  0  0  0  0  0
    0.4804   -0.3493   -0.9520 C   0  0  0  0  0  0  0  0  0  0  0  0
    0.3809    0.6861   -1.6412 O   0  0  0  0  0  0  0  0  0  0  0  0
   -0.8020   -0.8015   -0.3784 C   0  0  0  0  0  0  0  0  0  0  0  0
   -1.0861   -2.3486    0.3512 S   0  0  0  0  0  0  0  0  0  0  0  0
   -2.7732   -2.1884    0.6013 C   0  0  0  0  0  0  0  0  0  0  0  0
   -3.0062   -0.9907    0.1266 N   0  0  0  0  0  0  0  0  0  0  0  0
   -2.0461   -0.2603   -0.3736 C   0  0  0  0  0  0  0  0  0  0  0  0
   -2.3134    1.1020   -0.7993 N   0  0  0  0  0  0  0  0  0  0  0  0
   -3.6446    1.6322   -0.8476 C   0  0  0  0  0  0  0  0  0  0  0  0
   -4.6501    0.8334   -1.3286 C   0  0  0  0  0  0  0  0  0  0  0  0
   -5.9702    1.2835   -1.3648 C   0  0  0  0  0  0  0  0  0  0  0  0
   -6.2865    2.5390   -0.9159 C   0  0  0  0  0  0  0  0  0  0  0  0
   -5.2808    3.3381   -0.4321 C   0  0  0  0  0  0  0  0  0  0  0  0
   -3.9656    2.8936   -0.3973 C   0  0  0  0  0  0  0  0  0  0  0  0
   -5.6264    4.6976    0.0564 C   0  0  0  0  0  0  0  0  0  0  0  0
   -6.5878    4.5696    1.0668 F   0  0  0  0  0  0  0  0  0  0  0  0
   -6.1244    5.4057   -1.0260 F   0  0  0  0  0  0  0  0  0  0  0  0
   -4.5210    5.3280    0.5437 F   0  0  0  0  0  0  0  0  0  0  0  0
   -3.7218   -3.1330    1.1578 N   0  0  0  0  0  0  0  0  0  0  0  0
   -4.2298   -4.1968    0.5194 C   0  0  0  0  0  0  0  0  0  0  0  0
   -5.1022   -4.8514    1.3578 C   0  0  0  0  0  0  0  0  0  0  0  0
   -5.1024   -4.1532    2.4969 N   0  0  0  0  0  0  0  0  0  0  0  0
   -4.2536   -3.0911    2.3837 C   0  0  0  0  0  0  0  0  0  0  0  0
   -3.9918   -2.0829    3.4007 C   0  0  0  0  0  0  0  0  0  0  0  0
   -4.6218   -2.1717    4.6117 O   0  0  0  0  0  0  0  0  0  0  0  0
   -3.2013   -1.1611    3.1587 O   0  0  0  0  0  0  0  0  0  0  0  0
    3.9627   -0.2584   -0.2906 C   0  0  0  0  0  0  0  0  0  0  0  0
    3.7095    0.7064    0.6397 C   0  0  0  0  0  0  0  0  0  0  0  0
    4.6971    1.2100    1.4335 C   0  0  0  0  0  0  0  0  0  0  0  0
    5.9956    0.7286    1.2935 C   0  0  0  0  0  0  0  0  0  0  0  0
    7.1189    1.2306    2.1135 C   0  0  0  0  0  0  0  0  0  0  0  0
    7.3639    0.3813    3.3432 C   0  0  0  0  0  0  0  0  0  0  0  0
    6.2574   -0.2188    0.3906 N   0  0  0  0  0  0  0  0  0  0  0  0
    5.2875   -0.7110   -0.3861 C   0  0  0  0  0  0  0  0  0  0  0  0
    3.0172   -1.2167   -4.3105 H   0  0  0  0  0  0  0  0  0  0  0  0
    1.8168   -1.7232   -3.1277 H   0  0  0  0  0  0  0  0  0  0  0  0
    1.4650   -0.2345   -4.1095 H   0  0  0  0  0  0  0  0  0  0  0  0
    2.4743    0.9718   -2.4147 H   0  0  0  0  0  0  0  0  0  0  0  0
    4.9569   -0.6298   -3.2303 H   0  0  0  0  0  0  0  0  0  0  0  0
    4.2794    0.7939   -4.0255 H   0  0  0  0  0  0  0  0  0  0  0  0
    4.9590    0.9543   -2.4054 H   0  0  0  0  0  0  0  0  0  0  0  0
    3.3791   -1.8136   -1.6059 H   0  0  0  0  0  0  0  0  0  0  0  0
    1.5525   -1.9177   -0.0561 H   0  0  0  0  0  0  0  0  0  0  0  0
   -1.5708    1.7597   -1.0827 H   0  0  0  0  0  0  0  0  0  0  0  0
   -4.4621   -0.1763   -1.7271 H   0  0  0  0  0  0  0  0  0  0  0  0
   -6.7330    0.6199   -1.7566 H   0  0  0  0  0  0  0  0  0  0  0  0
   -7.3258    2.9022   -0.9439 H   0  0  0  0  0  0  0  0  0  0  0  0
   -3.1671    3.5415   -0.0086 H   0  0  0  0  0  0  0  0  0  0  0  0
   -4.0049   -4.4946   -0.5012 H   0  0  0  0  0  0  0  0  0  0  0  0
   -5.6451   -5.7397    1.0717 H   0  0  0  0  0  0  0  0  0  0  0  0
   -5.6140   -2.2759    4.7436 H   0  0  0  0  0  0  0  0  0  0  0  0
    2.6963    1.0824    0.7468 H   0  0  0  0  0  0  0  0  0  0  0  0
    4.4844    1.9781    2.1734 H   0  0  0  0  0  0  0  0  0  0  0  0
    6.9315    2.3029    2.3984 H   0  0  0  0  0  0  0  0  0  0  0  0
    8.0449    1.1986    1.4872 H   0  0  0  0  0  0  0  0  0  0  0  0
    6.6283   -0.4315    3.4109 H   0  0  0  0  0  0  0  0  0  0  0  0
    8.3817   -0.1117    3.2726 H   0  0  0  0  0  0  0  0  0  0  0  0
    7.3398    0.9516    4.2863 H   0  0  0  0  0  0  0  0  0  0  0  0
    5.5204   -1.5006   -1.1222 H   0  0  0  0  0  0  0  0  0  0  0  0
  1  2  1  0
  2  3  1  0
  2  4  1  0
  4  5  1  0
  5  6  1  0
  6  7  2  0
  6  8  1  0
  8  9  1  0
  9 10  1  0
 10 11  2  0
 11 12  1  0
 12 13  1  0
 13 14  1  0
 14 15  2  0
 15 16  1  0
 16 17  2  0
 17 18  1  0
 18 19  2  0
 18 20  1  0
 20 21  1  0
 20 22  1  0
 20 23  1  0
 10 24  1  0
 24 25  1  0
 25 26  2  0
 26 27  1  0
 27 28  2  0
 28 29  1  0
 29 30  1  0
 29 31  2  0
  4 32  1  0
 32 33  2  0
 33 34  1  0
 34 35  2  0
 35 36  1  0
 36 37  1  0
 35 38  1  0
 38 39  2  0
 12  8  2  0
 19 14  1  0
 28 24  1  0
 39 32  1  0
  1 40  1  0
  1 41  1  0
  1 42  1  0
  2 43  1  0
  3 44  1  0
  3 45  1  0
  3 46  1  0
  4 47  1  6
  5 48  1  0
 13 49  1  0
 15 50  1  0
 16 51  1  0
 17 52  1  0
 19 53  1  0
 25 54  1  0
 26 55  1  0
 30 56  1  0
 33 57  1  0
 34 58  1  0
 36 59  1  0
 36 60  1  0
 37 61  1  0
 37 62  1  0
 37 63  1  0
 39 64  1  0
M  END
$$$$
[H]c1c([H])c(F)c(C([H])([H])Oc2c([H])c([H])c(-c3c([H])c([H])c([H])c4nc(C([H])([H])[H])c([H])c(OC([H])([H])[H])c34)c([H])c2[H])c(C([H])([H])[H])c1[H]
     RDKit          3D

 51 54  0  0  0  0  0  0  0  0999 V2000
   -3.6166   -2.8459    0.7477 C   0  0  0  0  0  0  0  0  0  0  0  0
   -3.2315   -1.5347    0.4310 O   0  0  0  0  0  0  0  0  0  0  0  0
   -4.0780   -0.4501    0.3030 C   0  0  0  0  0  0  0  0  0  0  0  0
   -5.4381   -0.5861    0.4723 C   0  0  0  0  0  0  0  0  0  0  0  0
   -6.2751    0.5148    0.3476 C   0  0  0  0  0  0  0  0  0  0  0  0
   -7.7517    0.4748    0.4353 C   0  0  0  0  0  0  0  0  0  0  0  0
   -5.7039    1.6961    0.0667 N   0  0  0  0  0  0  0  0  0  0  0  0
   -4.3845    1.8649   -0.1046 C   0  0  0  0  0  0  0  0  0  0  0  0
   -3.9042    3.1091   -0.4315 C   0  0  0  0  0  0  0  0  0  0  0  0
   -2.5386    3.2675   -0.6626 C   0  0  0  0  0  0  0  0  0  0  0  0
   -1.7432    2.2105   -0.5494 C   0  0  0  0  0  0  0  0  0  0  0  0
   -2.2063    0.8700   -0.1961 C   0  0  0  0  0  0  0  0  0  0  0  0
   -1.0899   -0.0429   -0.0640 C   0  0  0  0  0  0  0  0  0  0  0  0
   -0.3473   -0.2658   -1.2360 C   0  0  0  0  0  0  0  0  0  0  0  0
    0.9936   -0.6296   -1.1576 C   0  0  0  0  0  0  0  0  0  0  0  0
    1.5913   -0.7763    0.1171 C   0  0  0  0  0  0  0  0  0  0  0  0
    2.8919   -1.0611    0.1234 O   0  0  0  0  0  0  0  0  0  0  0  0
    3.9326   -1.3830    0.9510 C   0  0  0  0  0  0  0  0  0  0  0  0
    5.2455   -1.0431    0.2906 C   0  0  0  0  0  0  0  0  0  0  0  0
    6.2282   -1.9494   -0.0019 C   0  0  0  0  0  0  0  0  0  0  0  0
    5.9517   -3.2829    0.1651 F   0  0  0  0  0  0  0  0  0  0  0  0
    7.4775   -1.5621   -0.4819 C   0  0  0  0  0  0  0  0  0  0  0  0
    7.7097   -0.2044   -0.6590 C   0  0  0  0  0  0  0  0  0  0  0  0
    6.7494    0.7387   -0.3702 C   0  0  0  0  0  0  0  0  0  0  0  0
    5.4925    0.3298    0.1143 C   0  0  0  0  0  0  0  0  0  0  0  0
    4.5334    1.3389    0.5821 C   0  0  0  0  0  0  0  0  0  0  0  0
    0.8073   -0.5687    1.2249 C   0  0  0  0  0  0  0  0  0  0  0  0
   -0.5302   -0.2014    1.1638 C   0  0  0  0  0  0  0  0  0  0  0  0
   -3.4936    0.7781    0.0023 C   0  0  0  0  0  0  0  0  0  0  0  0
   -4.6127   -2.7716    1.2477 H   0  0  0  0  0  0  0  0  0  0  0  0
   -2.8735   -3.2489    1.4918 H   0  0  0  0  0  0  0  0  0  0  0  0
   -3.6817   -3.4368   -0.1570 H   0  0  0  0  0  0  0  0  0  0  0  0
   -5.9214   -1.5108    0.6919 H   0  0  0  0  0  0  0  0  0  0  0  0
   -8.1590    1.4573    0.7720 H   0  0  0  0  0  0  0  0  0  0  0  0
   -8.1192   -0.3199    1.0802 H   0  0  0  0  0  0  0  0  0  0  0  0
   -8.1850    0.3021   -0.5917 H   0  0  0  0  0  0  0  0  0  0  0  0
   -4.5979    3.9085   -0.4778 H   0  0  0  0  0  0  0  0  0  0  0  0
   -2.1733    4.2870   -0.9233 H   0  0  0  0  0  0  0  0  0  0  0  0
   -0.6733    2.2986   -0.7264 H   0  0  0  0  0  0  0  0  0  0  0  0
   -0.8173   -0.1763   -2.1937 H   0  0  0  0  0  0  0  0  0  0  0  0
    1.5672   -0.8141   -2.0516 H   0  0  0  0  0  0  0  0  0  0  0  0
    3.8768   -0.5312    1.7792 H   0  0  0  0  0  0  0  0  0  0  0  0
    3.9296   -2.2778    1.5486 H   0  0  0  0  0  0  0  0  0  0  0  0
    8.2605   -2.2772   -0.7148 H   0  0  0  0  0  0  0  0  0  0  0  0
    8.6451    0.1644   -1.0261 H   0  0  0  0  0  0  0  0  0  0  0  0
    6.9278    1.8160   -0.5162 H   0  0  0  0  0  0  0  0  0  0  0  0
    3.5683    1.3983    0.1241 H   0  0  0  0  0  0  0  0  0  0  0  0
    4.4636    1.3508    1.7086 H   0  0  0  0  0  0  0  0  0  0  0  0
    5.0268    2.3529    0.3655 H   0  0  0  0  0  0  0  0  0  0  0  0
    1.3378   -0.7142    2.1692 H   0  0  0  0  0  0  0  0  0  0  0  0
   -1.0610   -0.0629    2.0617 H   0  0  0  0  0  0  0  0  0  0  0  0
  1  2  1  0
  2  3  1  0
  3  4  2  0
  4  5  1  0
  5  6  1  0
  5  7  2  0
  7  8  1  0
  8  9  2  0
  9 10  1  0
 10 11  2  0
 11 12  1  0
 12 13  1  0
 13 14  2  0
 14 15  1  0
 15 16  2  0
 16 17  1  0
 17 18  1  0
 18 19  1  0
 19 20  2  0
 20 21  1  0
 20 22  1  0
 22 23  2  0
 23 24  1  0
 24 25  2  0
 25 26  1  0
 16 27  1  0
 27 28  2  0
 12 29  2  0
 29  3  1  0
 29  8  1  0
 28 13  1  0
 25 19  1  0
  1 30  1  0
  1 31  1  0
  1 32  1  0
  4 33  1  0
  6 34  1  0
  6 35  1  0
  6 36  1  0
  9 37  1  0
 10 38  1  0
 11 39  1  0
 14 40  1  0
 15 41  1  0
 18 42  1  0
 18 43  1  0
 22 44  1  0
 23 45  1  0
 24 46  1  0
 26 47  1  0
 26 48  1  0
 26 49  1  0
 27 50  1  0
 28 51  1  0
M  END
$$$$
[H]c1nn(-c2c([H])c([H])c([H])c([H])c2OC(F)(F)F)c([H])c1C1([H])C([H])([H])C([H])([H])N(C(=O)C([H])([H])C([H])([H])C(=O)c2c([H])c([H])c([H])c(-c3c([H])c([H])c(F)c([H])c3[H])c2[H])C([H])([H])C1([H])[H]
     RDKit          3D

 68 72  0  0  0  0  0  0  0  0999 V2000
    3.0123   -2.1097   -0.4639 O   0  0  0  0  0  0  0  0  0  0  0  0
    3.8696   -1.2623   -0.1351 C   0  0  0  0  0  0  0  0  0  0  0  0
    3.4757   -0.0545    0.6057 C   0  0  0  0  0  0  0  0  0  0  0  0
    1.9887    0.0170    0.8058 C   0  0  0  0  0  0  0  0  0  0  0  0
    1.2695    0.0914   -0.4837 C   0  0  0  0  0  0  0  0  0  0  0  0
    1.9224    0.2498   -1.5449 O   0  0  0  0  0  0  0  0  0  0  0  0
   -0.1543   -0.0132   -0.5290 N   0  0  0  0  0  0  0  0  0  0  0  0
   -0.9670   -0.1929    0.6516 C   0  0  0  0  0  0  0  0  0  0  0  0
   -2.0502   -1.1783    0.3457 C   0  0  0  0  0  0  0  0  0  0  0  0
   -2.9211   -0.6631   -0.7590 C   0  0  0  0  0  0  0  0  0  0  0  0
   -2.2936    0.3692   -1.6329 C   0  0  0  0  0  0  0  0  0  0  0  0
   -0.8029    0.0657   -1.8171 C   0  0  0  0  0  0  0  0  0  0  0  0
   -4.1998   -0.1585   -0.1692 C   0  0  0  0  0  0  0  0  0  0  0  0
   -4.3966    0.9697    0.5988 C   0  0  0  0  0  0  0  0  0  0  0  0
   -5.7184    1.0313    0.9167 N   0  0  0  0  0  0  0  0  0  0  0  0
   -6.3669    0.0060    0.3930 N   0  0  0  0  0  0  0  0  0  0  0  0
   -5.4634   -0.7284   -0.2703 C   0  0  0  0  0  0  0  0  0  0  0  0
   -7.7698   -0.2244    0.5415 C   0  0  0  0  0  0  0  0  0  0  0  0
   -8.2902   -1.5046    0.3549 C   0  0  0  0  0  0  0  0  0  0  0  0
   -9.6325   -1.7508    0.4927 C   0  0  0  0  0  0  0  0  0  0  0  0
  -10.4614   -0.7043    0.8206 C   0  0  0  0  0  0  0  0  0  0  0  0
   -9.9521    0.5580    1.0051 C   0  0  0  0  0  0  0  0  0  0  0  0
   -8.6001    0.8253    0.8702 C   0  0  0  0  0  0  0  0  0  0  0  0
   -8.0461    2.0674    1.0442 O   0  0  0  0  0  0  0  0  0  0  0  0
   -8.7896    3.2219    1.3822 C   0  0  0  0  0  0  0  0  0  0  0  0
   -9.7506    3.5362    0.4580 F   0  0  0  0  0  0  0  0  0  0  0  0
   -7.9755    4.3254    1.5346 F   0  0  0  0  0  0  0  0  0  0  0  0
   -9.3703    2.9999    2.6366 F   0  0  0  0  0  0  0  0  0  0  0  0
    5.2618   -1.4749   -0.4879 C   0  0  0  0  0  0  0  0  0  0  0  0
    5.6281   -2.5944   -1.1791 C   0  0  0  0  0  0  0  0  0  0  0  0
    6.9692   -2.7717   -1.5014 C   0  0  0  0  0  0  0  0  0  0  0  0
    7.9126   -1.8515   -1.1398 C   0  0  0  0  0  0  0  0  0  0  0  0
    7.5272   -0.7298   -0.4443 C   0  0  0  0  0  0  0  0  0  0  0  0
    6.1954   -0.5579   -0.1266 C   0  0  0  0  0  0  0  0  0  0  0  0
    8.5026    0.2643   -0.0453 C   0  0  0  0  0  0  0  0  0  0  0  0
    8.2987    0.9875    1.1195 C   0  0  0  0  0  0  0  0  0  0  0  0
    9.1797    1.9465    1.5619 C   0  0  0  0  0  0  0  0  0  0  0  0
   10.3128    2.2135    0.8355 C   0  0  0  0  0  0  0  0  0  0  0  0
   11.2361    3.1512    1.2091 F   0  0  0  0  0  0  0  0  0  0  0  0
   10.5613    1.5130   -0.3415 C   0  0  0  0  0  0  0  0  0  0  0  0
    9.6469    0.5490   -0.7588 C   0  0  0  0  0  0  0  0  0  0  0  0
    3.9332   -0.0221    1.6299 H   0  0  0  0  0  0  0  0  0  0  0  0
    3.8285    0.8269    0.0190 H   0  0  0  0  0  0  0  0  0  0  0  0
    1.7842    0.9733    1.3666 H   0  0  0  0  0  0  0  0  0  0  0  0
    1.6286   -0.8622    1.3934 H   0  0  0  0  0  0  0  0  0  0  0  0
   -1.4405    0.8059    0.8582 H   0  0  0  0  0  0  0  0  0  0  0  0
   -0.3653   -0.4891    1.5370 H   0  0  0  0  0  0  0  0  0  0  0  0
   -2.6857   -1.4140    1.2253 H   0  0  0  0  0  0  0  0  0  0  0  0
   -1.5604   -2.1557    0.0702 H   0  0  0  0  0  0  0  0  0  0  0  0
   -3.1939   -1.5769   -1.3700 H   0  0  0  0  0  0  0  0  0  0  0  0
   -2.4562    1.4071   -1.2823 H   0  0  0  0  0  0  0  0  0  0  0  0
   -2.7427    0.2976   -2.6456 H   0  0  0  0  0  0  0  0  0  0  0  0
   -0.3194    0.8643   -2.4147 H   0  0  0  0  0  0  0  0  0  0  0  0
   -0.7343   -0.8809   -2.3964 H   0  0  0  0  0  0  0  0  0  0  0  0
   -3.6636    1.6854    0.9047 H   0  0  0  0  0  0  0  0  0  0  0  0
   -5.7036   -1.6374   -0.8047 H   0  0  0  0  0  0  0  0  0  0  0  0
   -7.6288   -2.3282    0.0955 H   0  0  0  0  0  0  0  0  0  0  0  0
  -10.0082   -2.7500    0.3427 H   0  0  0  0  0  0  0  0  0  0  0  0
  -11.5355   -0.9159    0.9280 H   0  0  0  0  0  0  0  0  0  0  0  0
  -10.6369    1.3557    1.2625 H   0  0  0  0  0  0  0  0  0  0  0  0
    4.8874   -3.3279   -1.4693 H   0  0  0  0  0  0  0  0  0  0  0  0
    7.2701   -3.6423   -2.0412 H   0  0  0  0  0  0  0  0  0  0  0  0
    8.9465   -2.0004   -1.3954 H   0  0  0  0  0  0  0  0  0  0  0  0
    5.9086    0.3333    0.4226 H   0  0  0  0  0  0  0  0  0  0  0  0
    7.4222    0.8000    1.7072 H   0  0  0  0  0  0  0  0  0  0  0  0
    9.0129    2.5170    2.4856 H   0  0  0  0  0  0  0  0  0  0  0  0
   11.4516    1.7213   -0.9147 H   0  0  0  0  0  0  0  0  0  0  0  0
    9.8029   -0.0188   -1.6692 H   0  0  0  0  0  0  0  0  0  0  0  0
  1  2  2  0
  2  3  1  0
  3  4  1  0
  4  5  1  0
  5  6  2  0
  5  7  1  0
  7  8  1  0
  8  9  1  0
  9 10  1  0
 10 11  1  0
 11 12  1  0
 10 13  1  0
 13 14  1  0
 14 15  2  0
 15 16  1  0
 16 17  1  0
 16 18  1  0
 18 19  2  0
 19 20  1  0
 20 21  2  0
 21 22  1  0
 22 23  2  0
 23 24  1  0
 24 25  1  0
 25 26  1  0
 25 27  1  0
 25 28  1  0
  2 29  1  0
 29 30  2  0
 30 31  1  0
 31 32  2  0
 32 33  1  0
 33 34  2  0
 33 35  1  0
 35 36  2  0
 36 37  1  0
 37 38  2  0
 38 39  1  0
 38 40  1  0
 40 41  2  0
 12  7  1  0
 17 13  2  0
 23 18  1  0
 34 29  1  0
 41 35  1  0
  3 42  1  0
  3 43  1  0
  4 44  1  0
  4 45  1  0
  8 46  1  0
  8 47  1  0
  9 48  1  0
  9 49  1  0
 10 50  1  0
 11 51  1  0
 11 52  1  0
 12 53  1  0
 12 54  1  0
 14 55  1  0
 17 56  1  0
 19 57  1  0
 20 58  1  0
 21 59  1  0
 22 60  1  0
 30 61  1  0
 31 62  1  0
 32 63  1  0
 34 64  1  0
 36 65  1  0
 37 66  1  0
 40 67  1  0
 41 68  1  0
M  END
$$$$
[H]/C(=C(\N1SC([H])([H])C([H])([H])C1([H])[H])C([H])([H])[H])c1c([H])c([H])c(S(=O)(=O)c2c([H])c([H])c(N=C(c3c([H])c([H])c([H])c([H])c3[H])N([H])[H])c([H])c2[H])c([H])c1[H]
     RDKit          3D

 57 60  0  0  0  0  0  0  0  0999 V2000
    5.7133    1.5284   -1.4514 C   0  0  0  0  0  0  0  0  0  0  0  0
    5.7845    0.5710   -0.3245 C   0  0  0  0  0  0  0  0  0  0  0  0
    4.7378    0.2666    0.3606 C   0  0  0  0  0  0  0  0  0  0  0  0
    3.4197    0.8024    0.1171 C   0  0  0  0  0  0  0  0  0  0  0  0
    2.7148    1.2304    1.2565 C   0  0  0  0  0  0  0  0  0  0  0  0
    1.4450    1.7438    1.1853 C   0  0  0  0  0  0  0  0  0  0  0  0
    0.8420    1.8418   -0.0519 C   0  0  0  0  0  0  0  0  0  0  0  0
    1.5089    1.4297   -1.1865 C   0  0  0  0  0  0  0  0  0  0  0  0
    2.7874    0.9166   -1.0811 C   0  0  0  0  0  0  0  0  0  0  0  0
   -0.7797    2.4966   -0.1257 S   0  0  0  0  0  0  0  0  0  0  0  0
   -0.9927    3.1928   -1.4540 O   0  0  0  0  0  0  0  0  0  0  0  0
   -1.0344    3.4803    0.9771 O   0  0  0  0  0  0  0  0  0  0  0  0
   -1.9358    1.1982   -0.0325 C   0  0  0  0  0  0  0  0  0  0  0  0
   -2.4255    0.7331    1.1571 C   0  0  0  0  0  0  0  0  0  0  0  0
   -3.3271   -0.2812    1.1749 C   0  0  0  0  0  0  0  0  0  0  0  0
   -3.7945   -0.8931    0.0030 C   0  0  0  0  0  0  0  0  0  0  0  0
   -4.6768   -1.9209    0.0089 N   0  0  0  0  0  0  0  0  0  0  0  0
   -5.8299   -2.2424    0.0004 C   0  0  0  0  0  0  0  0  0  0  0  0
   -6.1567   -3.6699    0.0192 N   0  0  0  0  0  0  0  0  0  0  0  0
   -7.0025   -1.3666   -0.0303 C   0  0  0  0  0  0  0  0  0  0  0  0
   -8.2814   -1.9299   -0.0224 C   0  0  0  0  0  0  0  0  0  0  0  0
   -9.4027   -1.1548   -0.0509 C   0  0  0  0  0  0  0  0  0  0  0  0
   -9.3377    0.2164   -0.0889 C   0  0  0  0  0  0  0  0  0  0  0  0
   -8.0898    0.7699   -0.0967 C   0  0  0  0  0  0  0  0  0  0  0  0
   -6.9362    0.0015   -0.0682 C   0  0  0  0  0  0  0  0  0  0  0  0
   -3.2844   -0.4060   -1.2006 C   0  0  0  0  0  0  0  0  0  0  0  0
   -2.3853    0.6076   -1.1917 C   0  0  0  0  0  0  0  0  0  0  0  0
    7.0751    0.0172   -0.0452 N   0  0  0  0  0  0  0  0  0  0  0  0
    7.5271   -1.3433    0.0549 C   0  0  0  0  0  0  0  0  0  0  0  0
    8.5128   -1.4592    1.1670 C   0  0  0  0  0  0  0  0  0  0  0  0
    9.4998   -0.3393    1.1034 C   0  0  0  0  0  0  0  0  0  0  0  0
    8.5353    0.9658    0.2684 S   0  0  0  0  0  0  0  0  0  0  0  0
    4.9888    2.3399   -1.3257 H   0  0  0  0  0  0  0  0  0  0  0  0
    6.7129    2.0623   -1.5674 H   0  0  0  0  0  0  0  0  0  0  0  0
    5.6123    0.9832   -2.4341 H   0  0  0  0  0  0  0  0  0  0  0  0
    4.8236   -0.4485    1.1940 H   0  0  0  0  0  0  0  0  0  0  0  0
    3.1857    1.1548    2.2266 H   0  0  0  0  0  0  0  0  0  0  0  0
    0.9220    2.0659    2.0660 H   0  0  0  0  0  0  0  0  0  0  0  0
    1.0540    1.4985   -2.1638 H   0  0  0  0  0  0  0  0  0  0  0  0
    3.3274    0.5726   -1.9739 H   0  0  0  0  0  0  0  0  0  0  0  0
   -2.0979    1.1718    2.1120 H   0  0  0  0  0  0  0  0  0  0  0  0
   -3.7149   -0.6490    2.1166 H   0  0  0  0  0  0  0  0  0  0  0  0
   -6.1535   -4.2122   -0.8598 H   0  0  0  0  0  0  0  0  0  0  0  0
   -6.3931   -4.1525    0.9032 H   0  0  0  0  0  0  0  0  0  0  0  0
   -8.3710   -3.0156    0.0071 H   0  0  0  0  0  0  0  0  0  0  0  0
  -10.3759   -1.6248   -0.0437 H   0  0  0  0  0  0  0  0  0  0  0  0
  -10.2139    0.8587   -0.1123 H   0  0  0  0  0  0  0  0  0  0  0  0
   -8.0378    1.8540   -0.1269 H   0  0  0  0  0  0  0  0  0  0  0  0
   -5.9927    0.5137   -0.0786 H   0  0  0  0  0  0  0  0  0  0  0  0
   -3.6088   -0.8382   -2.1130 H   0  0  0  0  0  0  0  0  0  0  0  0
   -2.0152    0.9532   -2.1668 H   0  0  0  0  0  0  0  0  0  0  0  0
    8.0477   -1.5914   -0.8921 H   0  0  0  0  0  0  0  0  0  0  0  0
    6.6975   -2.0672    0.1685 H   0  0  0  0  0  0  0  0  0  0  0  0
    9.0194   -2.4475    1.0897 H   0  0  0  0  0  0  0  0  0  0  0  0
    7.9503   -1.3853    2.1273 H   0  0  0  0  0  0  0  0  0  0  0  0
    9.8346   -0.0125    2.1100 H   0  0  0  0  0  0  0  0  0  0  0  0
   10.3678   -0.5876    0.4433 H   0  0  0  0  0  0  0  0  0  0  0  0
  1  2  1  0
  2  3  2  0
  3  4  1  0
  4  5  2  0
  5  6  1  0
  6  7  2  0
  7  8  1  0
  8  9  2  0
  7 10  1  0
 10 11  2  0
 10 12  2  0
 10 13  1  0
 13 14  2  0
 14 15  1  0
 15 16  2  0
 16 17  1  0
 17 18  2  3
 18 19  1  0
 18 20  1  0
 20 21  2  0
 21 22  1  0
 22 23  2  0
 23 24  1  0
 24 25  2  0
 16 26  1  0
 26 27  2  0
  2 28  1  0
 28 29  1  0
 29 30  1  0
 30 31  1  0
 31 32  1  0
  9  4  1  0
 27 13  1  0
 32 28  1  0
 25 20  1  0
  1 33  1  0
  1 34  1  0
  1 35  1  0
  3 36  1  0
  5 37  1  0
  6 38  1  0
  8 39  1  0
  9 40  1  0
 14 41  1  0
 15 42  1  0
 19 43  1  0
 19 44  1  0
 21 45  1  0
 22 46  1  0
 23 47  1  0
 24 48  1  0
 25 49  1  0
 26 50  1  0
 27 51  1  0
 29 52  1  0
 29 53  1  0
 30 54  1  0
 30 55  1  0
 31 56  1  0
 31 57  1  0
M  END
$$$$
[H]c1c([H])c(C(=O)N([H])C([H])(N([H])C(=O)N([H])C2([H])C([H])([H])C2([H])[H])C([H])([H])[H])c([H])c(C([H])([H])c2c([H])c([H])c(S(=O)(=O)C([H])([H])[H])c([H])c2[H])c1[H]
     RDKit          3D

 54 56  0  0  0  0  0  0  0  0999 V2000
   -2.2653   -2.2403    2.0806 C   0  0  0  0  0  0  0  0  0  0  0  0
   -2.7600   -0.8982    1.5970 C   0  0  0  0  0  0  0  0  0  0  0  0
   -1.6831   -0.1316    0.9590 N   0  0  0  0  0  0  0  0  0  0  0  0
   -1.2462    1.1040    1.4484 C   0  0  0  0  0  0  0  0  0  0  0  0
   -1.7752    1.6245    2.4875 O   0  0  0  0  0  0  0  0  0  0  0  0
   -0.1716    1.8468    0.7937 C   0  0  0  0  0  0  0  0  0  0  0  0
    0.1493    3.1398    1.2319 C   0  0  0  0  0  0  0  0  0  0  0  0
    1.1534    3.8611    0.6361 C   0  0  0  0  0  0  0  0  0  0  0  0
    1.8565    3.3019   -0.4107 C   0  0  0  0  0  0  0  0  0  0  0  0
    1.5883    2.0352   -0.8867 C   0  0  0  0  0  0  0  0  0  0  0  0
    2.3579    1.4402   -2.0234 C   0  0  0  0  0  0  0  0  0  0  0  0
    3.5637    0.7480   -1.4758 C   0  0  0  0  0  0  0  0  0  0  0  0
    4.7342    1.4839   -1.3418 C   0  0  0  0  0  0  0  0  0  0  0  0
    5.8654    0.8957   -0.8439 C   0  0  0  0  0  0  0  0  0  0  0  0
    5.8422   -0.4267   -0.4758 C   0  0  0  0  0  0  0  0  0  0  0  0
    4.6713   -1.1705   -0.6079 C   0  0  0  0  0  0  0  0  0  0  0  0
    3.5403   -0.5747   -1.1079 C   0  0  0  0  0  0  0  0  0  0  0  0
    7.2652   -1.2363    0.1719 S   0  0  0  0  0  0  0  0  0  0  0  0
    8.1532   -1.9298   -1.1959 C   0  0  0  0  0  0  0  0  0  0  0  0
    8.1371   -0.2376    0.8767 O   0  0  0  0  0  0  0  0  0  0  0  0
    6.7999   -2.3226    1.0717 O   0  0  0  0  0  0  0  0  0  0  0  0
    0.5635    1.3410   -0.2537 C   0  0  0  0  0  0  0  0  0  0  0  0
   -3.8510   -1.1204    0.6639 N   0  0  0  0  0  0  0  0  0  0  0  0
   -5.1411   -0.5986    0.9159 C   0  0  0  0  0  0  0  0  0  0  0  0
   -5.3462    0.0645    1.9544 O   0  0  0  0  0  0  0  0  0  0  0  0
   -6.2133   -0.8091    0.0166 N   0  0  0  0  0  0  0  0  0  0  0  0
   -7.5356   -0.2758    0.2689 C   0  0  0  0  0  0  0  0  0  0  0  0
   -8.3665    0.2322   -0.8551 C   0  0  0  0  0  0  0  0  0  0  0  0
   -8.7171   -1.0582   -0.1590 C   0  0  0  0  0  0  0  0  0  0  0  0
   -2.9675   -2.6435    2.8331 H   0  0  0  0  0  0  0  0  0  0  0  0
   -2.1581   -2.9558    1.2377 H   0  0  0  0  0  0  0  0  0  0  0  0
   -1.2730   -2.1330    2.6019 H   0  0  0  0  0  0  0  0  0  0  0  0
   -3.1019   -0.3023    2.4765 H   0  0  0  0  0  0  0  0  0  0  0  0
   -1.2697   -0.5712    0.1187 H   0  0  0  0  0  0  0  0  0  0  0  0
   -0.4205    3.5442    2.0519 H   0  0  0  0  0  0  0  0  0  0  0  0
    1.3973    4.8794    0.9906 H   0  0  0  0  0  0  0  0  0  0  0  0
    2.6602    3.8515   -0.9051 H   0  0  0  0  0  0  0  0  0  0  0  0
    1.7531    0.7731   -2.6460 H   0  0  0  0  0  0  0  0  0  0  0  0
    2.7110    2.2716   -2.6889 H   0  0  0  0  0  0  0  0  0  0  0  0
    4.7492    2.5416   -1.6372 H   0  0  0  0  0  0  0  0  0  0  0  0
    6.8051    1.4202   -0.7177 H   0  0  0  0  0  0  0  0  0  0  0  0
    4.6476   -2.2279   -0.3147 H   0  0  0  0  0  0  0  0  0  0  0  0
    2.6368   -1.1360   -1.2143 H   0  0  0  0  0  0  0  0  0  0  0  0
    7.7335   -2.9344   -1.4341 H   0  0  0  0  0  0  0  0  0  0  0  0
    7.9986   -1.2720   -2.0760 H   0  0  0  0  0  0  0  0  0  0  0  0
    9.2190   -1.9904   -0.8878 H   0  0  0  0  0  0  0  0  0  0  0  0
    0.3417    0.3323   -0.6216 H   0  0  0  0  0  0  0  0  0  0  0  0
   -3.6299   -1.6788   -0.1908 H   0  0  0  0  0  0  0  0  0  0  0  0
   -6.0865   -1.3683   -0.8803 H   0  0  0  0  0  0  0  0  0  0  0  0
   -7.6171    0.3067    1.2072 H   0  0  0  0  0  0  0  0  0  0  0  0
   -9.0592    1.0687   -0.6715 H   0  0  0  0  0  0  0  0  0  0  0  0
   -8.0228    0.1772   -1.9048 H   0  0  0  0  0  0  0  0  0  0  0  0
   -8.6173   -1.9589   -0.7694 H   0  0  0  0  0  0  0  0  0  0  0  0
   -9.5992   -1.0674    0.5062 H   0  0  0  0  0  0  0  0  0  0  0  0
  1  2  1  0
  2  3  1  0
  3  4  1  0
  4  5  2  0
  4  6  1  0
  6  7  2  0
  7  8  1  0
  8  9  2  0
  9 10  1  0
 10 11  1  0
 11 12  1  0
 12 13  2  0
 13 14  1  0
 14 15  2  0
 15 16  1  0
 16 17  2  0
 15 18  1  0
 18 19  1  0
 18 20  2  0
 18 21  2  0
 10 22  2  0
  2 23  1  0
 23 24  1  0
 24 25  2  0
 24 26  1  0
 26 27  1  0
 27 28  1  0
 28 29  1  0
 22  6  1  0
 29 27  1  0
 17 12  1  0
  1 30  1  0
  1 31  1  0
  1 32  1  0
  2 33  1  0
  3 34  1  0
  7 35  1  0
  8 36  1  0
  9 37  1  0
 11 38  1  0
 11 39  1  0
 13 40  1  0
 14 41  1  0
 16 42  1  0
 17 43  1  0
 19 44  1  0
 19 45  1  0
 19 46  1  0
 22 47  1  0
 23 48  1  0
 26 49  1  0
 27 50  1  0
 28 51  1  0
 28 52  1  0
 29 53  1  0
 29 54  1  0
M  END
$$$$
[H]c1nc(C([H])(N([H])C([H])([H])c2nc(N([H])c3c([H])c([H])c(-c4c([H])c([H])c([H])c([H])c4[H])c([H])c3[H])c([H])o2)C([H])([H])C([H])([H])C([H])(C([H])([H])[H])C([H])([H])[H])c([H])c([H])c1N([H])[H]
     RDKit          3D

 64 67  0  0  0  0  0  0  0  0999 V2000
   -6.4742   -2.1547   -1.6888 C   0  0  0  0  0  0  0  0  0  0  0  0
   -5.0089   -1.9352   -1.8500 C   0  0  0  0  0  0  0  0  0  0  0  0
   -4.7718   -1.2292   -3.1834 C   0  0  0  0  0  0  0  0  0  0  0  0
   -4.3857   -1.0526   -0.7934 C   0  0  0  0  0  0  0  0  0  0  0  0
   -4.5297   -1.5803    0.5830 C   0  0  0  0  0  0  0  0  0  0  0  0
   -3.8973   -0.6369    1.5734 C   0  0  0  0  0  0  0  0  0  0  0  0
   -2.5056   -0.4857    1.2395 N   0  0  0  0  0  0  0  0  0  0  0  0
   -1.7237   -1.6709    1.3180 C   0  0  0  0  0  0  0  0  0  0  0  0
   -0.3044   -1.3483    0.9471 C   0  0  0  0  0  0  0  0  0  0  0  0
    0.1331   -0.1809    0.4992 N   0  0  0  0  0  0  0  0  0  0  0  0
    1.4811   -0.2915    0.2783 C   0  0  0  0  0  0  0  0  0  0  0  0
    2.3332    0.6957   -0.2343 N   0  0  0  0  0  0  0  0  0  0  0  0
    3.7247    0.5382   -0.3301 C   0  0  0  0  0  0  0  0  0  0  0  0
    4.3270    1.0925   -1.4561 C   0  0  0  0  0  0  0  0  0  0  0  0
    5.6919    0.9965   -1.5682 C   0  0  0  0  0  0  0  0  0  0  0  0
    6.4875    0.3819   -0.6254 C   0  0  0  0  0  0  0  0  0  0  0  0
    5.8896   -0.1624    0.4827 C   0  0  0  0  0  0  0  0  0  0  0  0
    4.4988   -0.0744    0.6156 C   0  0  0  0  0  0  0  0  0  0  0  0
    7.9513    0.2915   -0.7709 C   0  0  0  0  0  0  0  0  0  0  0  0
    8.7423    0.2906    0.3637 C   0  0  0  0  0  0  0  0  0  0  0  0
   10.0975    0.2089    0.3255 C   0  0  0  0  0  0  0  0  0  0  0  0
   10.7146    0.1226   -0.9064 C   0  0  0  0  0  0  0  0  0  0  0  0
    9.9387    0.1214   -2.0698 C   0  0  0  0  0  0  0  0  0  0  0  0
    8.5717    0.2055   -1.9907 C   0  0  0  0  0  0  0  0  0  0  0  0
    1.8073   -1.5740    0.6165 C   0  0  0  0  0  0  0  0  0  0  0  0
    0.6907   -2.1653    1.0134 O   0  0  0  0  0  0  0  0  0  0  0  0
   -4.6176    0.6640    1.6596 C   0  0  0  0  0  0  0  0  0  0  0  0
   -4.0044    1.7670    2.2610 C   0  0  0  0  0  0  0  0  0  0  0  0
   -4.6633    2.9691    2.3600 C   0  0  0  0  0  0  0  0  0  0  0  0
   -5.9485    3.1425    1.8753 C   0  0  0  0  0  0  0  0  0  0  0  0
   -6.6300    4.3890    1.9786 N   0  0  0  0  0  0  0  0  0  0  0  0
   -6.5244    2.0345    1.2882 C   0  0  0  0  0  0  0  0  0  0  0  0
   -5.8609    0.8737    1.2040 N   0  0  0  0  0  0  0  0  0  0  0  0
   -7.0182   -1.2945   -1.2547 H   0  0  0  0  0  0  0  0  0  0  0  0
   -6.9033   -2.2637   -2.7292 H   0  0  0  0  0  0  0  0  0  0  0  0
   -6.7122   -3.1138   -1.1795 H   0  0  0  0  0  0  0  0  0  0  0  0
   -4.5072   -2.9102   -1.8963 H   0  0  0  0  0  0  0  0  0  0  0  0
   -5.0390   -0.1532   -3.0856 H   0  0  0  0  0  0  0  0  0  0  0  0
   -3.7006   -1.2847   -3.4644 H   0  0  0  0  0  0  0  0  0  0  0  0
   -5.4273   -1.6859   -3.9339 H   0  0  0  0  0  0  0  0  0  0  0  0
   -4.7306   -0.0165   -0.8703 H   0  0  0  0  0  0  0  0  0  0  0  0
   -3.2784   -1.0584   -1.0331 H   0  0  0  0  0  0  0  0  0  0  0  0
   -4.0560   -2.5791    0.7187 H   0  0  0  0  0  0  0  0  0  0  0  0
   -5.5928   -1.6991    0.9069 H   0  0  0  0  0  0  0  0  0  0  0  0
   -3.9088   -1.1355    2.6016 H   0  0  0  0  0  0  0  0  0  0  0  0
   -2.3049    0.0174    0.3653 H   0  0  0  0  0  0  0  0  0  0  0  0
   -1.7486   -2.1667    2.3071 H   0  0  0  0  0  0  0  0  0  0  0  0
   -2.0302   -2.4629    0.5803 H   0  0  0  0  0  0  0  0  0  0  0  0
    1.8642    1.6092   -0.5624 H   0  0  0  0  0  0  0  0  0  0  0  0
    3.7121    1.5868   -2.2187 H   0  0  0  0  0  0  0  0  0  0  0  0
    6.1557    1.4285   -2.4455 H   0  0  0  0  0  0  0  0  0  0  0  0
    6.4660   -0.6578    1.2561 H   0  0  0  0  0  0  0  0  0  0  0  0
    4.0858   -0.4983    1.5169 H   0  0  0  0  0  0  0  0  0  0  0  0
    8.2372    0.3599    1.3260 H   0  0  0  0  0  0  0  0  0  0  0  0
   10.7505    0.2055    1.1972 H   0  0  0  0  0  0  0  0  0  0  0  0
   11.7804    0.0545   -1.0248 H   0  0  0  0  0  0  0  0  0  0  0  0
   10.4174    0.0532   -3.0434 H   0  0  0  0  0  0  0  0  0  0  0  0
    7.9879    0.2033   -2.8997 H   0  0  0  0  0  0  0  0  0  0  0  0
    2.7607   -2.0906    0.5945 H   0  0  0  0  0  0  0  0  0  0  0  0
   -2.9990    1.6277    2.6393 H   0  0  0  0  0  0  0  0  0  0  0  0
   -4.1935    3.8226    2.8237 H   0  0  0  0  0  0  0  0  0  0  0  0
   -6.4300    5.0133    2.7848 H   0  0  0  0  0  0  0  0  0  0  0  0
   -7.3294    4.7161    1.2799 H   0  0  0  0  0  0  0  0  0  0  0  0
   -7.5390    2.1302    0.8924 H   0  0  0  0  0  0  0  0  0  0  0  0
  1  2  1  0
  2  3  1  0
  2  4  1  0
  4  5  1  0
  5  6  1  0
  6  7  1  0
  7  8  1  0
  8  9  1  0
  9 10  2  0
 10 11  1  0
 11 12  1  0
 12 13  1  0
 13 14  2  0
 14 15  1  0
 15 16  2  0
 16 17  1  0
 17 18  2  0
 16 19  1  0
 19 20  2  0
 20 21  1  0
 21 22  2  0
 22 23  1  0
 23 24  2  0
 11 25  2  0
 25 26  1  0
  6 27  1  0
 27 28  2  0
 28 29  1  0
 29 30  2  0
 30 31  1  0
 30 32  1  0
 32 33  2  0
 26  9  1  0
 33 27  1  0
 18 13  1  0
 24 19  1  0
  1 34  1  0
  1 35  1  0
  1 36  1  0
  2 37  1  0
  3 38  1  0
  3 39  1  0
  3 40  1  0
  4 41  1  0
  4 42  1  0
  5 43  1  0
  5 44  1  0
  6 45  1  0
  7 46  1  0
  8 47  1  0
  8 48  1  0
 12 49  1  0
 14 50  1  0
 15 51  1  0
 17 52  1  0
 18 53  1  0
 20 54  1  0
 21 55  1  0
 22 56  1  0
 23 57  1  0
 24 58  1  0
 25 59  1  0
 28 60  1  0
 29 61  1  0
 31 62  1  0
 31 63  1  0
 32 64  1  0
M  END
$$$$
[H]OC([H])([H])C([H])(OC(=O)C([H])([H])c1c([H])c([H])c(C(=O)N2C([H])([H])C([H])([H])C([H])(N(c3nc([H])c(C(C([H])([H])[H])(C([H])([H])[H])C([H])([H])[H])n3[H])C([H])([H])c3oc(C#N)c([H])c3[H])C([H])([H])C2([H])[H])c([H])c1F)C([H])([H])[H]
     RDKit          3D

 77 80  0  0  0  0  0  0  0  0999 V2000
   10.8235   -0.8849   -0.8633 C   0  0  0  0  0  0  0  0  0  0  0  0
   10.0210   -0.5933    0.4041 C   0  0  0  0  0  0  0  0  0  0  0  0
   10.7440    0.5668    1.1151 C   0  0  0  0  0  0  0  0  0  0  0  0
   12.0746    0.2684    1.2980 O   0  0  0  0  0  0  0  0  0  0  0  0
    8.7440   -0.4128    0.2717 O   0  0  0  0  0  0  0  0  0  0  0  0
    7.4740   -0.3664    0.2322 C   0  0  0  0  0  0  0  0  0  0  0  0
    6.9362   -1.3615    0.9149 O   0  0  0  0  0  0  0  0  0  0  0  0
    6.5261    0.5516   -0.3979 C   0  0  0  0  0  0  0  0  0  0  0  0
    5.1202    0.2968   -0.0066 C   0  0  0  0  0  0  0  0  0  0  0  0
    4.1588   -0.2080   -0.8170 C   0  0  0  0  0  0  0  0  0  0  0  0
    2.8151   -0.3652   -0.4016 C   0  0  0  0  0  0  0  0  0  0  0  0
    2.4110   -0.0112    0.8486 C   0  0  0  0  0  0  0  0  0  0  0  0
    3.4240    0.5100    1.6789 C   0  0  0  0  0  0  0  0  0  0  0  0
    4.7206    0.6688    1.2979 C   0  0  0  0  0  0  0  0  0  0  0  0
    5.6854    1.1720    2.0950 F   0  0  0  0  0  0  0  0  0  0  0  0
    1.0570   -0.0096    1.3858 C   0  0  0  0  0  0  0  0  0  0  0  0
    0.9585    0.1615    2.6802 O   0  0  0  0  0  0  0  0  0  0  0  0
   -0.1389   -0.1456    0.7358 N   0  0  0  0  0  0  0  0  0  0  0  0
   -0.4359   -0.3466   -0.6278 C   0  0  0  0  0  0  0  0  0  0  0  0
   -1.8913   -0.0951   -1.0040 C   0  0  0  0  0  0  0  0  0  0  0  0
   -2.4905    1.0735   -0.3063 C   0  0  0  0  0  0  0  0  0  0  0  0
   -1.9048    1.3461    1.0499 C   0  0  0  0  0  0  0  0  0  0  0  0
   -1.3647    0.0003    1.5933 C   0  0  0  0  0  0  0  0  0  0  0  0
   -3.9294    1.0014   -0.2217 N   0  0  0  0  0  0  0  0  0  0  0  0
   -4.6814    2.0145    0.4544 C   0  0  0  0  0  0  0  0  0  0  0  0
   -4.6059    3.3633   -0.1444 C   0  0  0  0  0  0  0  0  0  0  0  0
   -5.5261    3.9578   -0.9294 C   0  0  0  0  0  0  0  0  0  0  0  0
   -5.0827    5.1949   -1.2694 C   0  0  0  0  0  0  0  0  0  0  0  0
   -3.8251    5.3300   -0.6407 C   0  0  0  0  0  0  0  0  0  0  0  0
   -3.5898    4.2365    0.0037 O   0  0  0  0  0  0  0  0  0  0  0  0
   -3.0751    6.5354   -0.7981 C   0  0  0  0  0  0  0  0  0  0  0  0
   -2.4419    7.5154   -0.9133 N   0  0  0  0  0  0  0  0  0  0  0  0
   -4.6266   -0.0840   -0.8007 C   0  0  0  0  0  0  0  0  0  0  0  0
   -5.0137   -0.3057   -2.0410 N   0  0  0  0  0  0  0  0  0  0  0  0
   -5.6861   -1.4608   -2.1569 C   0  0  0  0  0  0  0  0  0  0  0  0
   -5.7286   -2.0207   -0.8837 C   0  0  0  0  0  0  0  0  0  0  0  0
   -5.0683   -1.1532   -0.0759 N   0  0  0  0  0  0  0  0  0  0  0  0
   -6.3660   -3.2922   -0.4626 C   0  0  0  0  0  0  0  0  0  0  0  0
   -5.2958   -4.0806    0.2815 C   0  0  0  0  0  0  0  0  0  0  0  0
   -6.7155   -4.0688   -1.7212 C   0  0  0  0  0  0  0  0  0  0  0  0
   -7.6134   -3.1026    0.3510 C   0  0  0  0  0  0  0  0  0  0  0  0
   10.5787   -0.2073   -1.7017 H   0  0  0  0  0  0  0  0  0  0  0  0
   10.7652   -1.9497   -1.1354 H   0  0  0  0  0  0  0  0  0  0  0  0
   11.8691   -0.7012   -0.5699 H   0  0  0  0  0  0  0  0  0  0  0  0
   10.2487   -1.5015    1.0564 H   0  0  0  0  0  0  0  0  0  0  0  0
   10.5822    1.5156    0.5569 H   0  0  0  0  0  0  0  0  0  0  0  0
   10.2405    0.7007    2.0859 H   0  0  0  0  0  0  0  0  0  0  0  0
   12.3739    0.8278    2.0828 H   0  0  0  0  0  0  0  0  0  0  0  0
    6.7906    1.6326   -0.1880 H   0  0  0  0  0  0  0  0  0  0  0  0
    6.6128    0.4675   -1.4927 H   0  0  0  0  0  0  0  0  0  0  0  0
    4.4158   -0.5091   -1.8119 H   0  0  0  0  0  0  0  0  0  0  0  0
    2.1149   -0.7908   -1.0863 H   0  0  0  0  0  0  0  0  0  0  0  0
    3.1474    0.8026    2.6934 H   0  0  0  0  0  0  0  0  0  0  0  0
   -0.1602   -1.3861   -0.9738 H   0  0  0  0  0  0  0  0  0  0  0  0
    0.1470    0.3486   -1.2826 H   0  0  0  0  0  0  0  0  0  0  0  0
   -1.8874    0.0410   -2.1171 H   0  0  0  0  0  0  0  0  0  0  0  0
   -2.5376   -0.9772   -0.8056 H   0  0  0  0  0  0  0  0  0  0  0  0
   -2.2803    1.9830   -0.9616 H   0  0  0  0  0  0  0  0  0  0  0  0
   -1.0040    2.0299    0.9106 H   0  0  0  0  0  0  0  0  0  0  0  0
   -2.5349    1.8696    1.7617 H   0  0  0  0  0  0  0  0  0  0  0  0
   -1.1246    0.0734    2.6396 H   0  0  0  0  0  0  0  0  0  0  0  0
   -2.0413   -0.7985    1.2696 H   0  0  0  0  0  0  0  0  0  0  0  0
   -4.4397    2.0914    1.5628 H   0  0  0  0  0  0  0  0  0  0  0  0
   -5.7862    1.7527    0.4880 H   0  0  0  0  0  0  0  0  0  0  0  0
   -6.5010    3.5561   -1.2693 H   0  0  0  0  0  0  0  0  0  0  0  0
   -5.5978    5.8971   -1.8885 H   0  0  0  0  0  0  0  0  0  0  0  0
   -6.1348   -1.9554   -2.9913 H   0  0  0  0  0  0  0  0  0  0  0  0
   -4.9443   -1.3259    0.9350 H   0  0  0  0  0  0  0  0  0  0  0  0
   -4.5156   -4.3037   -0.4493 H   0  0  0  0  0  0  0  0  0  0  0  0
   -5.7278   -4.9811    0.7558 H   0  0  0  0  0  0  0  0  0  0  0  0
   -4.9216   -3.4219    1.1096 H   0  0  0  0  0  0  0  0  0  0  0  0
   -7.2073   -5.0107   -1.3687 H   0  0  0  0  0  0  0  0  0  0  0  0
   -7.4422   -3.5239   -2.3264 H   0  0  0  0  0  0  0  0  0  0  0  0
   -5.7981   -4.3837   -2.2579 H   0  0  0  0  0  0  0  0  0  0  0  0
   -8.5072   -3.4807   -0.2053 H   0  0  0  0  0  0  0  0  0  0  0  0
   -7.7846   -2.0507    0.6587 H   0  0  0  0  0  0  0  0  0  0  0  0
   -7.6046   -3.7268    1.2939 H   0  0  0  0  0  0  0  0  0  0  0  0
  1  2  1  0
  2  3  1  0
  3  4  1  0
  2  5  1  0
  5  6  1  0
  6  7  2  0
  6  8  1  0
  8  9  1  0
  9 10  2  0
 10 11  1  0
 11 12  2  0
 12 13  1  0
 13 14  2  0
 14 15  1  0
 12 16  1  0
 16 17  2  0
 16 18  1  0
 18 19  1  0
 19 20  1  0
 20 21  1  0
 21 22  1  0
 22 23  1  0
 21 24  1  0
 24 25  1  0
 25 26  1  0
 26 27  2  0
 27 28  1  0
 28 29  2  0
 29 30  1  0
 29 31  1  0
 31 32  3  0
 24 33  1  0
 33 34  2  0
 34 35  1  0
 35 36  2  0
 36 37  1  0
 36 38  1  0
 38 39  1  0
 38 40  1  0
 38 41  1  0
 14  9  1  0
 23 18  1  0
 30 26  1  0
 37 33  1  0
  1 42  1  0
  1 43  1  0
  1 44  1  0
  2 45  1  0
  3 46  1  0
  3 47  1  0
  4 48  1  0
  8 49  1  0
  8 50  1  0
 10 51  1  0
 11 52  1  0
 13 53  1  0
 19 54  1  0
 19 55  1  0
 20 56  1  0
 20 57  1  0
 21 58  1  0
 22 59  1  0
 22 60  1  0
 23 61  1  0
 23 62  1  0
 25 63  1  0
 25 64  1  0
 27 65  1  0
 28 66  1  0
 35 67  1  0
 37 68  1  0
 39 69  1  0
 39 70  1  0
 39 71  1  0
 40 72  1  0
 40 73  1  0
 40 74  1  0
 41 75  1  0
 41 76  1  0
 41 77  1  0
M  END
$$$$
[H]c1c([H])c([H])c2c(c1[H])C([H])([H])S(=O)(=O)N1C([H])([H])C([H])([H])C([H])([H])[C@]1([H])C(=O)N([H])[C@]2([H])C([H])([H])C([H])([H])C([H])([H])C([H])([H])[H]
     RDKit          3D

 47 49  0  0  0  0  0  0  0  0999 V2000
    3.5958   -2.7790    1.9438 C   0  0  0  0  0  0  0  0  0  0  0  0
    2.7982   -1.5341    1.7303 C   0  0  0  0  0  0  0  0  0  0  0  0
    2.3282   -1.4011    0.2750 C   0  0  0  0  0  0  0  0  0  0  0  0
    1.5461   -0.1110    0.2138 C   0  0  0  0  0  0  0  0  0  0  0  0
    0.9865    0.2041   -1.1518 C   0  0  1  0  0  0  0  0  0  0  0  0
    0.0972   -0.7663   -1.5966 N   0  0  0  0  0  0  0  0  0  0  0  0
   -0.9022   -1.5828   -1.0943 C   0  0  0  0  0  0  0  0  0  0  0  0
   -0.7408   -2.8658   -1.1606 O   0  0  0  0  0  0  0  0  0  0  0  0
   -2.2074   -1.2815   -0.4565 C   0  0  1  0  0  0  0  0  0  0  0  0
   -2.6557   -2.4144    0.4793 C   0  0  0  0  0  0  0  0  0  0  0  0
   -2.2921   -1.9310    1.8633 C   0  0  0  0  0  0  0  0  0  0  0  0
   -2.3818   -0.4312    1.7367 C   0  0  0  0  0  0  0  0  0  0  0  0
   -2.0709   -0.1767    0.3939 N   0  0  0  0  0  0  0  0  0  0  0  0
   -2.6694    1.2926   -0.2419 S   0  0  0  0  0  0  0  0  0  0  0  0
   -4.1459    1.1810   -0.4762 O   0  0  0  0  0  0  0  0  0  0  0  0
   -2.4323    2.3643    0.7600 O   0  0  0  0  0  0  0  0  0  0  0  0
   -1.8091    1.6360   -1.7664 C   0  0  0  0  0  0  0  0  0  0  0  0
   -0.4848    2.2698   -1.5025 C   0  0  0  0  0  0  0  0  0  0  0  0
   -0.4986    3.6540   -1.5360 C   0  0  0  0  0  0  0  0  0  0  0  0
    0.6087    4.4479   -1.3245 C   0  0  0  0  0  0  0  0  0  0  0  0
    1.8018    3.8187   -1.0640 C   0  0  0  0  0  0  0  0  0  0  0  0
    1.8134    2.4432   -1.0309 C   0  0  0  0  0  0  0  0  0  0  0  0
    0.6863    1.6340   -1.2457 C   0  0  0  0  0  0  0  0  0  0  0  0
    4.2800   -2.5939    2.8145 H   0  0  0  0  0  0  0  0  0  0  0  0
    4.1790   -2.9949    1.0324 H   0  0  0  0  0  0  0  0  0  0  0  0
    2.9205   -3.5873    2.2389 H   0  0  0  0  0  0  0  0  0  0  0  0
    1.8988   -1.5631    2.3599 H   0  0  0  0  0  0  0  0  0  0  0  0
    3.3553   -0.6051    2.0004 H   0  0  0  0  0  0  0  0  0  0  0  0
    1.7628   -2.2881    0.0061 H   0  0  0  0  0  0  0  0  0  0  0  0
    3.2555   -1.2829   -0.3364 H   0  0  0  0  0  0  0  0  0  0  0  0
    0.7937   -0.1734    1.0202 H   0  0  0  0  0  0  0  0  0  0  0  0
    2.2707    0.6823    0.5491 H   0  0  0  0  0  0  0  0  0  0  0  0
    1.9341    0.0891   -1.8188 H   0  0  0  0  0  0  0  0  0  0  0  0
    0.2267   -0.9317   -2.6832 H   0  0  0  0  0  0  0  0  0  0  0  0
   -3.0363   -1.2118   -1.1922 H   0  0  0  0  0  0  0  0  0  0  0  0
   -3.7647   -2.5326    0.4777 H   0  0  0  0  0  0  0  0  0  0  0  0
   -2.2183   -3.3745    0.2086 H   0  0  0  0  0  0  0  0  0  0  0  0
   -1.2660   -2.2520    2.0756 H   0  0  0  0  0  0  0  0  0  0  0  0
   -3.0333   -2.2760    2.6147 H   0  0  0  0  0  0  0  0  0  0  0  0
   -3.3645   -0.0438    2.0812 H   0  0  0  0  0  0  0  0  0  0  0  0
   -1.5526   -0.0148    2.3813 H   0  0  0  0  0  0  0  0  0  0  0  0
   -2.4929    2.3494   -2.3210 H   0  0  0  0  0  0  0  0  0  0  0  0
   -1.7427    0.7860   -2.4389 H   0  0  0  0  0  0  0  0  0  0  0  0
   -1.4285    4.2093   -1.7413 H   0  0  0  0  0  0  0  0  0  0  0  0
    0.5358    5.5383   -1.3638 H   0  0  0  0  0  0  0  0  0  0  0  0
    2.7109    4.3983   -0.8881 H   0  0  0  0  0  0  0  0  0  0  0  0
    2.8049    2.0029   -0.8250 H   0  0  0  0  0  0  0  0  0  0  0  0
  1  2  1  0
  2  3  1  0
  3  4  1  0
  4  5  1  0
  5  6  1  0
  6  7  1  0
  7  8  2  0
  7  9  1  0
  9 10  1  0
 10 11  1  0
 11 12  1  0
 12 13  1  0
 13 14  1  0
 14 15  2  0
 14 16  2  0
 14 17  1  0
 17 18  1  0
 18 19  2  0
 19 20  1  0
 20 21  2  0
 21 22  1  0
 22 23  2  0
 23  5  1  0
 13  9  1  0
 23 18  1  0
  1 24  1  0
  1 25  1  0
  1 26  1  0
  2 27  1  0
  2 28  1  0
  3 29  1  0
  3 30  1  0
  4 31  1  0
  4 32  1  0
  5 33  1  6
  6 34  1  0
  9 35  1  6
 10 36  1  0
 10 37  1  0
 11 38  1  0
 11 39  1  0
 12 40  1  0
 12 41  1  0
 17 42  1  0
 17 43  1  0
 19 44  1  0
 20 45  1  0
 21 46  1  0
 22 47  1  0
M  END
$$$$
[H]c1c([H])c([H])c(-c2c([H])c(S(=O)(=O)C([H])([H])[H])c([H])c([H])c2C(=O)N([H])C([H])([H])c2c([H])c([H])c([H])c([H])c2[H])c([H])c1[H]
     RDKit          3D

 45 47  0  0  0  0  0  0  0  0999 V2000
   -3.7081    4.4365    0.7120 C   0  0  0  0  0  0  0  0  0  0  0  0
   -4.2207    3.0717   -0.3315 S   0  0  0  0  0  0  0  0  0  0  0  0
   -4.6029    3.6439   -1.6778 O   0  0  0  0  0  0  0  0  0  0  0  0
   -5.4224    2.4728    0.3484 O   0  0  0  0  0  0  0  0  0  0  0  0
   -2.9327    1.8981   -0.4556 C   0  0  0  0  0  0  0  0  0  0  0  0
   -1.8108    2.1606   -1.1922 C   0  0  0  0  0  0  0  0  0  0  0  0
   -0.7698    1.3003   -1.3755 C   0  0  0  0  0  0  0  0  0  0  0  0
   -0.8303    0.0262   -0.7645 C   0  0  0  0  0  0  0  0  0  0  0  0
    0.3254   -0.8323   -0.9388 C   0  0  0  0  0  0  0  0  0  0  0  0
    0.2999   -2.0659   -0.9881 O   0  0  0  0  0  0  0  0  0  0  0  0
    1.6383   -0.2415   -1.0717 N   0  0  0  0  0  0  0  0  0  0  0  0
    2.7912   -1.0684   -1.2432 C   0  0  0  0  0  0  0  0  0  0  0  0
    4.0207   -0.4599   -0.7058 C   0  0  0  0  0  0  0  0  0  0  0  0
    5.2459   -1.0716   -0.9948 C   0  0  0  0  0  0  0  0  0  0  0  0
    6.4153   -0.5598   -0.5378 C   0  0  0  0  0  0  0  0  0  0  0  0
    6.3895    0.5881    0.2291 C   0  0  0  0  0  0  0  0  0  0  0  0
    5.2120    1.2180    0.5361 C   0  0  0  0  0  0  0  0  0  0  0  0
    4.0130    0.6821    0.0591 C   0  0  0  0  0  0  0  0  0  0  0  0
   -1.9449   -0.2740   -0.0169 C   0  0  0  0  0  0  0  0  0  0  0  0
   -2.1702   -1.5852    0.6015 C   0  0  0  0  0  0  0  0  0  0  0  0
   -2.3842   -2.7314   -0.1139 C   0  0  0  0  0  0  0  0  0  0  0  0
   -2.5899   -3.9539    0.4838 C   0  0  0  0  0  0  0  0  0  0  0  0
   -2.5901   -4.0761    1.8592 C   0  0  0  0  0  0  0  0  0  0  0  0
   -2.3776   -2.9353    2.6221 C   0  0  0  0  0  0  0  0  0  0  0  0
   -2.1727   -1.7170    1.9936 C   0  0  0  0  0  0  0  0  0  0  0  0
   -2.9907    0.6613    0.1366 C   0  0  0  0  0  0  0  0  0  0  0  0
   -3.2238    4.0011    1.6253 H   0  0  0  0  0  0  0  0  0  0  0  0
   -4.5454    5.0958    0.9792 H   0  0  0  0  0  0  0  0  0  0  0  0
   -2.8960    5.0311    0.1971 H   0  0  0  0  0  0  0  0  0  0  0  0
   -1.7532    3.1292   -1.6604 H   0  0  0  0  0  0  0  0  0  0  0  0
    0.1047    1.5303   -1.9702 H   0  0  0  0  0  0  0  0  0  0  0  0
    1.7071    0.7891   -1.0328 H   0  0  0  0  0  0  0  0  0  0  0  0
    2.6552   -2.0726   -0.7245 H   0  0  0  0  0  0  0  0  0  0  0  0
    2.9854   -1.3573   -2.2945 H   0  0  0  0  0  0  0  0  0  0  0  0
    5.2500   -1.9874   -1.6046 H   0  0  0  0  0  0  0  0  0  0  0  0
    7.3581   -1.0399   -0.7655 H   0  0  0  0  0  0  0  0  0  0  0  0
    7.3257    1.0186    0.6091 H   0  0  0  0  0  0  0  0  0  0  0  0
    5.2504    2.1130    1.1394 H   0  0  0  0  0  0  0  0  0  0  0  0
    3.1273    1.2221    0.3328 H   0  0  0  0  0  0  0  0  0  0  0  0
   -2.4118   -2.6908   -1.1863 H   0  0  0  0  0  0  0  0  0  0  0  0
   -2.7546   -4.8499   -0.1407 H   0  0  0  0  0  0  0  0  0  0  0  0
   -2.7507   -5.0418    2.2953 H   0  0  0  0  0  0  0  0  0  0  0  0
   -2.3842   -3.0442    3.7051 H   0  0  0  0  0  0  0  0  0  0  0  0
   -2.0125   -0.8426    2.5927 H   0  0  0  0  0  0  0  0  0  0  0  0
   -3.8651    0.4090    0.7299 H   0  0  0  0  0  0  0  0  0  0  0  0
  1  2  1  0
  2  3  2  0
  2  4  2  0
  2  5  1  0
  5  6  2  0
  6  7  1  0
  7  8  2  0
  8  9  1  0
  9 10  2  0
  9 11  1  0
 11 12  1  0
 12 13  1  0
 13 14  2  0
 14 15  1  0
 15 16  2  0
 16 17  1  0
 17 18  2  0
  8 19  1  0
 19 20  1  0
 20 21  2  0
 21 22  1  0
 22 23  2  0
 23 24  1  0
 24 25  2  0
 19 26  2  0
 26  5  1  0
 18 13  1  0
 25 20  1  0
  1 27  1  0
  1 28  1  0
  1 29  1  0
  6 30  1  0
  7 31  1  0
 11 32  1  0
 12 33  1  0
 12 34  1  0
 14 35  1  0
 15 36  1  0
 16 37  1  0
 17 38  1  0
 18 39  1  0
 21 40  1  0
 22 41  1  0
 23 42  1  0
 24 43  1  0
 25 44  1  0
 26 45  1  0
M  END
$$$$
[H]OC(=C([H])C(C(=O)N([H])c1c([H])c2c(c([H])c1Br)-c1nc(C([H])([H])N3C([H])([H])C([H])([H])N(c4c([H])c([H])c([H])c(OC([H])(F)F)c4[H])C([H])([H])C3([H])[H])c([H])c([H])c1C([H])([H])N([H])C2=O)(C([H])([H])[H])C([H])([H])[H])C(C([H])([H])[H])(C([H])([H])[H])C([H])([H])[H]
     RDKit          3D

 87 91  0  0  0  0  0  0  0  0999 V2000
   10.1688    0.8967   -2.4808 F   0  0  0  0  0  0  0  0  0  0  0  0
    9.9569   -0.4743   -2.2607 C   0  0  0  0  0  0  0  0  0  0  0  0
   10.7645   -1.1537   -3.1760 F   0  0  0  0  0  0  0  0  0  0  0  0
   10.3193   -0.8145   -0.9745 O   0  0  0  0  0  0  0  0  0  0  0  0
    9.4921   -1.3506   -0.0226 C   0  0  0  0  0  0  0  0  0  0  0  0
   10.1049   -1.6052    1.2133 C   0  0  0  0  0  0  0  0  0  0  0  0
    9.3395   -2.1423    2.2185 C   0  0  0  0  0  0  0  0  0  0  0  0
    8.0043   -2.4344    2.0482 C   0  0  0  0  0  0  0  0  0  0  0  0
    7.4012   -2.1848    0.8349 C   0  0  0  0  0  0  0  0  0  0  0  0
    8.1641   -1.6450   -0.1791 C   0  0  0  0  0  0  0  0  0  0  0  0
    6.0295   -2.4861    0.6937 N   0  0  0  0  0  0  0  0  0  0  0  0
    5.3063   -2.4757   -0.5537 C   0  0  0  0  0  0  0  0  0  0  0  0
    4.1528   -1.4910   -0.5139 C   0  0  0  0  0  0  0  0  0  0  0  0
    3.4718   -1.4893    0.7349 N   0  0  0  0  0  0  0  0  0  0  0  0
    3.4463   -0.2617    1.4538 C   0  0  0  0  0  0  0  0  0  0  0  0
    2.8059    0.8644    0.7480 C   0  0  0  0  0  0  0  0  0  0  0  0
    3.6245    1.8220    0.1528 C   0  0  0  0  0  0  0  0  0  0  0  0
    3.1139    2.9050   -0.5301 C   0  0  0  0  0  0  0  0  0  0  0  0
    1.7411    3.0459   -0.6278 C   0  0  0  0  0  0  0  0  0  0  0  0
    1.4100    4.2513   -1.3877 C   0  0  0  0  0  0  0  0  0  0  0  0
    0.2349    4.1702   -2.1887 N   0  0  0  0  0  0  0  0  0  0  0  0
   -1.0411    3.6112   -1.8963 C   0  0  0  0  0  0  0  0  0  0  0  0
   -2.0056    3.9280   -2.6258 O   0  0  0  0  0  0  0  0  0  0  0  0
   -1.3532    2.6862   -0.8110 C   0  0  0  0  0  0  0  0  0  0  0  0
   -2.7224    2.5047   -0.6332 C   0  0  0  0  0  0  0  0  0  0  0  0
   -3.2782    1.6902    0.3177 C   0  0  0  0  0  0  0  0  0  0  0  0
   -4.6456    1.4877    0.5219 N   0  0  0  0  0  0  0  0  0  0  0  0
   -5.7245    2.0346   -0.1657 C   0  0  0  0  0  0  0  0  0  0  0  0
   -5.5559    2.8284   -1.1156 O   0  0  0  0  0  0  0  0  0  0  0  0
   -7.1465    1.6993    0.1981 C   0  0  0  0  0  0  0  0  0  0  0  0
   -8.1167    2.4287   -0.6809 C   0  0  0  0  0  0  0  0  0  0  0  0
   -7.3384    2.1769    1.6152 C   0  0  0  0  0  0  0  0  0  0  0  0
   -7.4357    0.2655    0.1295 C   0  0  0  0  0  0  0  0  0  0  0  0
   -6.9039   -0.5649   -0.7474 C   0  0  0  0  0  0  0  0  0  0  0  0
   -6.0105   -0.0536   -1.6690 O   0  0  0  0  0  0  0  0  0  0  0  0
   -7.2377   -1.9920   -0.7597 C   0  0  0  0  0  0  0  0  0  0  0  0
   -5.9858   -2.8330   -0.4931 C   0  0  0  0  0  0  0  0  0  0  0  0
   -8.2360   -2.3584    0.3259 C   0  0  0  0  0  0  0  0  0  0  0  0
   -7.8216   -2.3620   -2.0920 C   0  0  0  0  0  0  0  0  0  0  0  0
   -2.3340    1.0240    1.1335 C   0  0  0  0  0  0  0  0  0  0  0  0
   -2.9531   -0.1391    2.4934 Br  0  0  0  0  0  0  0  0  0  0  0  0
   -0.9819    1.1917    0.9717 C   0  0  0  0  0  0  0  0  0  0  0  0
   -0.4772    2.0275   -0.0057 C   0  0  0  0  0  0  0  0  0  0  0  0
    0.9763    2.0773   -0.0254 C   0  0  0  0  0  0  0  0  0  0  0  0
    1.4857    1.0262    0.6377 N   0  0  0  0  0  0  0  0  0  0  0  0
    3.7433   -2.6405    1.5587 C   0  0  0  0  0  0  0  0  0  0  0  0
    5.2117   -2.8336    1.8665 C   0  0  0  0  0  0  0  0  0  0  0  0
    8.9020   -0.6579   -2.5011 H   0  0  0  0  0  0  0  0  0  0  0  0
   11.1340   -1.3891    1.3696 H   0  0  0  0  0  0  0  0  0  0  0  0
    9.7715   -2.3586    3.2021 H   0  0  0  0  0  0  0  0  0  0  0  0
    7.4490   -2.8637    2.8873 H   0  0  0  0  0  0  0  0  0  0  0  0
    7.7232   -1.4345   -1.1443 H   0  0  0  0  0  0  0  0  0  0  0  0
    4.8344   -3.5004   -0.6342 H   0  0  0  0  0  0  0  0  0  0  0  0
    5.9764   -2.3679   -1.3936 H   0  0  0  0  0  0  0  0  0  0  0  0
    4.6118   -0.4953   -0.6772 H   0  0  0  0  0  0  0  0  0  0  0  0
    3.4700   -1.6523   -1.3695 H   0  0  0  0  0  0  0  0  0  0  0  0
    4.4937   -0.0113    1.7656 H   0  0  0  0  0  0  0  0  0  0  0  0
    2.8848   -0.4310    2.3961 H   0  0  0  0  0  0  0  0  0  0  0  0
    4.7164    1.7242    0.2219 H   0  0  0  0  0  0  0  0  0  0  0  0
    3.7552    3.6556   -0.9968 H   0  0  0  0  0  0  0  0  0  0  0  0
    2.2902    4.5602   -2.0177 H   0  0  0  0  0  0  0  0  0  0  0  0
    1.2992    5.0956   -0.6507 H   0  0  0  0  0  0  0  0  0  0  0  0
    0.3306    4.5955   -3.1586 H   0  0  0  0  0  0  0  0  0  0  0  0
   -3.3348    3.0627   -1.3111 H   0  0  0  0  0  0  0  0  0  0  0  0
   -4.8988    0.8206    1.3163 H   0  0  0  0  0  0  0  0  0  0  0  0
   -7.9457    2.1124   -1.7337 H   0  0  0  0  0  0  0  0  0  0  0  0
   -7.9906    3.5268   -0.6679 H   0  0  0  0  0  0  0  0  0  0  0  0
   -9.1355    2.1691   -0.3347 H   0  0  0  0  0  0  0  0  0  0  0  0
   -7.1763    3.2940    1.5977 H   0  0  0  0  0  0  0  0  0  0  0  0
   -8.3793    2.0203    1.9567 H   0  0  0  0  0  0  0  0  0  0  0  0
   -6.6063    1.6953    2.3121 H   0  0  0  0  0  0  0  0  0  0  0  0
   -8.1350   -0.1442    0.8472 H   0  0  0  0  0  0  0  0  0  0  0  0
   -5.9219   -0.5286   -2.5551 H   0  0  0  0  0  0  0  0  0  0  0  0
   -6.2582   -3.7329    0.0945 H   0  0  0  0  0  0  0  0  0  0  0  0
   -5.5078   -3.0718   -1.4541 H   0  0  0  0  0  0  0  0  0  0  0  0
   -5.2910   -2.1653    0.0714 H   0  0  0  0  0  0  0  0  0  0  0  0
   -7.8067   -2.1979    1.3309 H   0  0  0  0  0  0  0  0  0  0  0  0
   -9.1981   -1.8205    0.1939 H   0  0  0  0  0  0  0  0  0  0  0  0
   -8.4388   -3.4440    0.2179 H   0  0  0  0  0  0  0  0  0  0  0  0
   -8.8268   -2.8488   -1.9669 H   0  0  0  0  0  0  0  0  0  0  0  0
   -7.9364   -1.4500   -2.7183 H   0  0  0  0  0  0  0  0  0  0  0  0
   -7.1468   -3.0888   -2.5843 H   0  0  0  0  0  0  0  0  0  0  0  0
   -0.2730    0.6664    1.6158 H   0  0  0  0  0  0  0  0  0  0  0  0
    3.2230   -2.4906    2.5285 H   0  0  0  0  0  0  0  0  0  0  0  0
    3.2852   -3.5639    1.1082 H   0  0  0  0  0  0  0  0  0  0  0  0
    5.3624   -3.9050    2.0995 H   0  0  0  0  0  0  0  0  0  0  0  0
    5.5304   -2.2425    2.7354 H   0  0  0  0  0  0  0  0  0  0  0  0
  1  2  1  0
  2  3  1  0
  2  4  1  0
  4  5  1  0
  5  6  2  0
  6  7  1  0
  7  8  2  0
  8  9  1  0
  9 10  2  0
  9 11  1  0
 11 12  1  0
 12 13  1  0
 13 14  1  0
 14 15  1  0
 15 16  1  0
 16 17  2  0
 17 18  1  0
 18 19  2  0
 19 20  1  0
 20 21  1  0
 21 22  1  0
 22 23  2  0
 22 24  1  0
 24 25  2  0
 25 26  1  0
 26 27  1  0
 27 28  1  0
 28 29  2  0
 28 30  1  0
 30 31  1  0
 30 32  1  0
 30 33  1  0
 33 34  2  3
 34 35  1  0
 34 36  1  0
 36 37  1  0
 36 38  1  0
 36 39  1  0
 26 40  2  0
 40 41  1  0
 40 42  1  0
 42 43  2  0
 43 44  1  0
 44 45  2  0
 14 46  1  0
 46 47  1  0
 10  5  1  0
 47 11  1  0
 45 16  1  0
 44 19  1  0
 43 24  1  0
  2 48  1  0
  6 49  1  0
  7 50  1  0
  8 51  1  0
 10 52  1  0
 12 53  1  0
 12 54  1  0
 13 55  1  0
 13 56  1  0
 15 57  1  0
 15 58  1  0
 17 59  1  0
 18 60  1  0
 20 61  1  0
 20 62  1  0
 21 63  1  0
 25 64  1  0
 27 65  1  0
 31 66  1  0
 31 67  1  0
 31 68  1  0
 32 69  1  0
 32 70  1  0
 32 71  1  0
 33 72  1  0
 35 73  1  0
 37 74  1  0
 37 75  1  0
 37 76  1  0
 38 77  1  0
 38 78  1  0
 38 79  1  0
 39 80  1  0
 39 81  1  0
 39 82  1  0
 42 83  1  0
 46 84  1  0
 46 85  1  0
 47 86  1  0
 47 87  1  0
M  END
$$$$
[H]c1c([H])c([H])c(N2C([H])([H])C([H])([H])C([H])(C([H])([H])N([H])C(=O)Oc3c([H])c([H])c([H])c([H])c3-c3c([H])c([H])c(OC([H])([H])[H])c([H])c3[H])C([H])([H])C2([H])[H])c(F)c1[H]
     RDKit          3D

 59 62  0  0  0  0  0  0  0  0999 V2000
   -4.6878    3.0885   -2.9819 C   0  0  0  0  0  0  0  0  0  0  0  0
   -4.9005    1.7259   -2.6396 O   0  0  0  0  0  0  0  0  0  0  0  0
   -4.5573    1.3093   -1.3516 C   0  0  0  0  0  0  0  0  0  0  0  0
   -4.0283    2.1859   -0.4315 C   0  0  0  0  0  0  0  0  0  0  0  0
   -3.6809    1.7822    0.8598 C   0  0  0  0  0  0  0  0  0  0  0  0
   -3.8633    0.4651    1.2540 C   0  0  0  0  0  0  0  0  0  0  0  0
   -4.3920   -0.4146    0.3370 C   0  0  0  0  0  0  0  0  0  0  0  0
   -4.7380    0.0002   -0.9581 C   0  0  0  0  0  0  0  0  0  0  0  0
   -3.5081    0.0380    2.6000 C   0  0  0  0  0  0  0  0  0  0  0  0
   -3.9347    0.7976    3.6969 C   0  0  0  0  0  0  0  0  0  0  0  0
   -3.6228    0.4210    4.9861 C   0  0  0  0  0  0  0  0  0  0  0  0
   -2.8818   -0.7195    5.1743 C   0  0  0  0  0  0  0  0  0  0  0  0
   -2.4647   -1.4618    4.0963 C   0  0  0  0  0  0  0  0  0  0  0  0
   -2.7658   -1.1031    2.7928 C   0  0  0  0  0  0  0  0  0  0  0  0
   -2.3696   -1.8143    1.6751 O   0  0  0  0  0  0  0  0  0  0  0  0
   -1.1480   -1.5427    1.0063 C   0  0  0  0  0  0  0  0  0  0  0  0
   -0.4966   -0.6286    1.5181 O   0  0  0  0  0  0  0  0  0  0  0  0
   -0.7740   -2.2804   -0.1254 N   0  0  0  0  0  0  0  0  0  0  0  0
    0.3692   -2.1954   -0.9030 C   0  0  0  0  0  0  0  0  0  0  0  0
    1.7201   -2.5691   -0.4747 C   0  0  0  0  0  0  0  0  0  0  0  0
    2.3668   -1.8945    0.6620 C   0  0  0  0  0  0  0  0  0  0  0  0
    2.8474   -0.4933    0.3429 C   0  0  0  0  0  0  0  0  0  0  0  0
    3.8154   -0.5311   -0.7534 N   0  0  0  0  0  0  0  0  0  0  0  0
    3.9565   -1.8406   -1.4023 C   0  0  0  0  0  0  0  0  0  0  0  0
    2.6144   -2.4109   -1.7388 C   0  0  0  0  0  0  0  0  0  0  0  0
    4.5632    0.6032   -1.1611 C   0  0  0  0  0  0  0  0  0  0  0  0
    5.9614    0.5897   -1.1287 C   0  0  0  0  0  0  0  0  0  0  0  0
    6.6949    1.6849   -1.5239 C   0  0  0  0  0  0  0  0  0  0  0  0
    6.0643    2.8438   -1.9699 C   0  0  0  0  0  0  0  0  0  0  0  0
    4.6798    2.8777   -2.0097 C   0  0  0  0  0  0  0  0  0  0  0  0
    3.9608    1.7721   -1.6104 C   0  0  0  0  0  0  0  0  0  0  0  0
    2.6039    1.8475   -1.6653 F   0  0  0  0  0  0  0  0  0  0  0  0
   -3.5866    3.2877   -3.0028 H   0  0  0  0  0  0  0  0  0  0  0  0
   -5.1805    3.3571   -3.9319 H   0  0  0  0  0  0  0  0  0  0  0  0
   -5.1109    3.7722   -2.2150 H   0  0  0  0  0  0  0  0  0  0  0  0
   -3.8689    3.2172   -0.6924 H   0  0  0  0  0  0  0  0  0  0  0  0
   -3.2669    2.4636    1.5800 H   0  0  0  0  0  0  0  0  0  0  0  0
   -4.5453   -1.4491    0.6298 H   0  0  0  0  0  0  0  0  0  0  0  0
   -5.1503   -0.7106   -1.6521 H   0  0  0  0  0  0  0  0  0  0  0  0
   -4.5161    1.6925    3.5554 H   0  0  0  0  0  0  0  0  0  0  0  0
   -3.9771    1.0438    5.7916 H   0  0  0  0  0  0  0  0  0  0  0  0
   -2.6379   -1.0142    6.1759 H   0  0  0  0  0  0  0  0  0  0  0  0
   -1.8819   -2.3607    4.2195 H   0  0  0  0  0  0  0  0  0  0  0  0
   -1.4964   -3.0572   -0.4550 H   0  0  0  0  0  0  0  0  0  0  0  0
    0.4873   -1.0963   -1.2824 H   0  0  0  0  0  0  0  0  0  0  0  0
    0.1331   -2.7027   -1.9186 H   0  0  0  0  0  0  0  0  0  0  0  0
    1.7586   -3.7124   -0.3095 H   0  0  0  0  0  0  0  0  0  0  0  0
    3.3561   -2.4583    0.8500 H   0  0  0  0  0  0  0  0  0  0  0  0
    1.8063   -1.9031    1.5715 H   0  0  0  0  0  0  0  0  0  0  0  0
    2.0150    0.1866    0.0987 H   0  0  0  0  0  0  0  0  0  0  0  0
    3.3704   -0.1097    1.2285 H   0  0  0  0  0  0  0  0  0  0  0  0
    4.5146   -2.5611   -0.7910 H   0  0  0  0  0  0  0  0  0  0  0  0
    4.5035   -1.7255   -2.3643 H   0  0  0  0  0  0  0  0  0  0  0  0
    2.0734   -1.8032   -2.5051 H   0  0  0  0  0  0  0  0  0  0  0  0
    2.7519   -3.4024   -2.1986 H   0  0  0  0  0  0  0  0  0  0  0  0
    6.4758   -0.3109   -0.7820 H   0  0  0  0  0  0  0  0  0  0  0  0
    7.7831    1.7202   -1.5156 H   0  0  0  0  0  0  0  0  0  0  0  0
    6.6120    3.7165   -2.2849 H   0  0  0  0  0  0  0  0  0  0  0  0
    4.1740    3.7874   -2.3601 H   0  0  0  0  0  0  0  0  0  0  0  0
  1  2  1  0
  2  3  1  0
  3  4  2  0
  4  5  1  0
  5  6  2  0
  6  7  1  0
  7  8  2  0
  6  9  1  0
  9 10  2  0
 10 11  1  0
 11 12  2  0
 12 13  1  0
 13 14  2  0
 14 15  1  0
 15 16  1  0
 16 17  2  0
 16 18  1  0
 18 19  1  0
 19 20  1  0
 20 21  1  0
 21 22  1  0
 22 23  1  0
 23 24  1  0
 24 25  1  0
 23 26  1  0
 26 27  2  0
 27 28  1  0
 28 29  2  0
 29 30  1  0
 30 31  2  0
 31 32  1  0
  8  3  1  0
 14  9  1  0
 25 20  1  0
 31 26  1  0
  1 33  1  0
  1 34  1  0
  1 35  1  0
  4 36  1  0
  5 37  1  0
  7 38  1  0
  8 39  1  0
 10 40  1  0
 11 41  1  0
 12 42  1  0
 13 43  1  0
 18 44  1  0
 19 45  1  0
 19 46  1  0
 20 47  1  0
 21 48  1  0
 21 49  1  0
 22 50  1  0
 22 51  1  0
 24 52  1  0
 24 53  1  0
 25 54  1  0
 25 55  1  0
 27 56  1  0
 28 57  1  0
 29 58  1  0
 30 59  1  0
M  END
$$$$
