[H]OC([H])([H])C([H])([H])N(C([H])([H])C(=O)N([H])c1c([H])c([H])c([H])c(N([H])c2nc([H])c3c([H])c([H])n(-c4c([H])nc([H])c(F)c4[H])c3n2)c1[H])C([H])([H])C([H])([H])[H]
     RDKit          3D

 57 60  0  0  0  0  0  0  0  0999 V2000
   -6.4900    2.9814   -0.5547 C   0  0  0  0  0  0  0  0  0  0  0  0
   -6.1152    1.7773    0.2654 C   0  0  0  0  0  0  0  0  0  0  0  0
   -5.8235    0.6177   -0.4832 N   0  0  0  0  0  0  0  0  0  0  0  0
   -6.8866   -0.0126   -1.1775 C   0  0  0  0  0  0  0  0  0  0  0  0
   -7.9054   -0.6469   -0.2562 C   0  0  0  0  0  0  0  0  0  0  0  0
   -8.8854   -1.2244   -1.0767 O   0  0  0  0  0  0  0  0  0  0  0  0
   -4.8372   -0.2695    0.0058 C   0  0  0  0  0  0  0  0  0  0  0  0
   -3.4451    0.3063   -0.0388 C   0  0  0  0  0  0  0  0  0  0  0  0
   -3.3167    1.4628   -0.4912 O   0  0  0  0  0  0  0  0  0  0  0  0
   -2.3984   -0.4849    0.4251 N   0  0  0  0  0  0  0  0  0  0  0  0
   -1.0185   -0.1680    0.4833 C   0  0  0  0  0  0  0  0  0  0  0  0
   -0.4844    0.9813   -0.0208 C   0  0  0  0  0  0  0  0  0  0  0  0
    0.8902    1.2561    0.0716 C   0  0  0  0  0  0  0  0  0  0  0  0
    1.6784    0.3097    0.6959 C   0  0  0  0  0  0  0  0  0  0  0  0
    1.1981   -0.8623    1.2196 C   0  0  0  0  0  0  0  0  0  0  0  0
    1.9837   -1.8410    1.8365 N   0  0  0  0  0  0  0  0  0  0  0  0
    3.3648   -1.9969    1.7254 C   0  0  0  0  0  0  0  0  0  0  0  0
    3.9929   -3.0170    2.4197 N   0  0  0  0  0  0  0  0  0  0  0  0
    5.3064   -3.2406    2.3524 C   0  0  0  0  0  0  0  0  0  0  0  0
    6.1053   -2.4388    1.5655 C   0  0  0  0  0  0  0  0  0  0  0  0
    7.4539   -2.3884    1.2743 C   0  0  0  0  0  0  0  0  0  0  0  0
    7.6331   -1.3352    0.4031 C   0  0  0  0  0  0  0  0  0  0  0  0
    6.4699   -0.7450    0.1502 N   0  0  0  0  0  0  0  0  0  0  0  0
    6.1748    0.3728   -0.6834 C   0  0  0  0  0  0  0  0  0  0  0  0
    5.5582    1.5214   -0.2209 C   0  0  0  0  0  0  0  0  0  0  0  0
    5.2767    2.5775   -0.9965 N   0  0  0  0  0  0  0  0  0  0  0  0
    5.5949    2.5694   -2.3211 C   0  0  0  0  0  0  0  0  0  0  0  0
    6.2113    1.4469   -2.8327 C   0  0  0  0  0  0  0  0  0  0  0  0
    6.5345    1.4227   -4.1461 F   0  0  0  0  0  0  0  0  0  0  0  0
    6.5016    0.3596   -2.0351 C   0  0  0  0  0  0  0  0  0  0  0  0
    5.5159   -1.4131    0.8593 C   0  0  0  0  0  0  0  0  0  0  0  0
    4.1962   -1.2657    0.9884 N   0  0  0  0  0  0  0  0  0  0  0  0
   -0.1881   -1.1047    1.1092 C   0  0  0  0  0  0  0  0  0  0  0  0
   -5.7721    3.8367   -0.4008 H   0  0  0  0  0  0  0  0  0  0  0  0
   -6.5233    2.7920   -1.6353 H   0  0  0  0  0  0  0  0  0  0  0  0
   -7.4883    3.3591   -0.2530 H   0  0  0  0  0  0  0  0  0  0  0  0
   -6.9369    1.5903    1.0217 H   0  0  0  0  0  0  0  0  0  0  0  0
   -5.2446    2.0537    0.8907 H   0  0  0  0  0  0  0  0  0  0  0  0
   -6.4415   -0.8641   -1.7645 H   0  0  0  0  0  0  0  0  0  0  0  0
   -7.3868    0.6193   -1.9423 H   0  0  0  0  0  0  0  0  0  0  0  0
   -8.3681    0.0579    0.4444 H   0  0  0  0  0  0  0  0  0  0  0  0
   -7.4496   -1.4807    0.3159 H   0  0  0  0  0  0  0  0  0  0  0  0
   -9.5557   -0.5438   -1.3882 H   0  0  0  0  0  0  0  0  0  0  0  0
   -4.8460   -1.1918   -0.5982 H   0  0  0  0  0  0  0  0  0  0  0  0
   -5.1118   -0.5647    1.0455 H   0  0  0  0  0  0  0  0  0  0  0  0
   -2.6940   -1.4605    0.7803 H   0  0  0  0  0  0  0  0  0  0  0  0
   -1.1104    1.7170   -0.5148 H   0  0  0  0  0  0  0  0  0  0  0  0
    1.2721    2.1718   -0.3370 H   0  0  0  0  0  0  0  0  0  0  0  0
    2.7194    0.5577    0.7659 H   0  0  0  0  0  0  0  0  0  0  0  0
    1.4821   -2.5470    2.4636 H   0  0  0  0  0  0  0  0  0  0  0  0
    5.7974   -4.0427    2.8985 H   0  0  0  0  0  0  0  0  0  0  0  0
    8.1856   -3.0542    1.6676 H   0  0  0  0  0  0  0  0  0  0  0  0
    8.5720   -0.9920   -0.0447 H   0  0  0  0  0  0  0  0  0  0  0  0
    5.2772    1.5897    0.8344 H   0  0  0  0  0  0  0  0  0  0  0  0
    5.3767    3.4128   -2.9679 H   0  0  0  0  0  0  0  0  0  0  0  0
    6.9764   -0.4939   -2.4522 H   0  0  0  0  0  0  0  0  0  0  0  0
   -0.5763   -2.0303    1.5215 H   0  0  0  0  0  0  0  0  0  0  0  0
  1  2  1  0
  2  3  1  0
  3  4  1  0
  4  5  1  0
  5  6  1  0
  3  7  1  0
  7  8  1  0
  8  9  2  0
  8 10  1  0
 10 11  1  0
 11 12  2  0
 12 13  1  0
 13 14  2  0
 14 15  1  0
 15 16  1  0
 16 17  1  0
 17 18  2  0
 18 19  1  0
 19 20  2  0
 20 21  1  0
 21 22  2  0
 22 23  1  0
 23 24  1  0
 24 25  2  0
 25 26  1  0
 26 27  2  0
 27 28  1  0
 28 29  1  0
 28 30  2  0
 23 31  1  0
 31 32  2  0
 15 33  2  0
 33 11  1  0
 32 17  1  0
 31 20  1  0
 30 24  1  0
  1 34  1  0
  1 35  1  0
  1 36  1  0
  2 37  1  0
  2 38  1  0
  4 39  1  0
  4 40  1  0
  5 41  1  0
  5 42  1  0
  6 43  1  0
  7 44  1  0
  7 45  1  0
 10 46  1  0
 12 47  1  0
 13 48  1  0
 14 49  1  0
 16 50  1  0
 19 51  1  0
 21 52  1  0
 22 53  1  0
 25 54  1  0
 27 55  1  0
 30 56  1  0
 33 57  1  0
M  END
$$$$
[H]c1nc2c(c([H])c1-c1c([H])c([H])c(S(=O)(=O)C([H])([H])[H])c([H])c1[H])c(-c1c([H])c([H])c([H])c([H])c1[H])c([H])n2[H]
     RDKit          3D

 41 44  0  0  0  0  0  0  0  0999 V2000
    6.6128    1.6365    0.3494 C   0  0  0  0  0  0  0  0  0  0  0  0
    5.4437    1.6869   -0.9790 S   0  0  0  0  0  0  0  0  0  0  0  0
    6.0866    1.0147   -2.1691 O   0  0  0  0  0  0  0  0  0  0  0  0
    5.1736    3.1352   -1.3343 O   0  0  0  0  0  0  0  0  0  0  0  0
    3.9770    0.8389   -0.6199 C   0  0  0  0  0  0  0  0  0  0  0  0
    3.8890   -0.5006   -0.9352 C   0  0  0  0  0  0  0  0  0  0  0  0
    2.7367   -1.2461   -0.6743 C   0  0  0  0  0  0  0  0  0  0  0  0
    1.6557   -0.6343   -0.0870 C   0  0  0  0  0  0  0  0  0  0  0  0
    1.7488    0.7256    0.2316 C   0  0  0  0  0  0  0  0  0  0  0  0
    2.8919    1.4536   -0.0302 C   0  0  0  0  0  0  0  0  0  0  0  0
    0.4602   -1.4040    0.1831 C   0  0  0  0  0  0  0  0  0  0  0  0
    0.5378   -2.7407    0.4911 C   0  0  0  0  0  0  0  0  0  0  0  0
   -0.5937   -3.4369    0.7383 N   0  0  0  0  0  0  0  0  0  0  0  0
   -1.8163   -2.8882    0.7001 C   0  0  0  0  0  0  0  0  0  0  0  0
   -3.0493   -3.4111    0.9145 N   0  0  0  0  0  0  0  0  0  0  0  0
   -3.9437   -2.4244    0.7496 C   0  0  0  0  0  0  0  0  0  0  0  0
   -3.2933   -1.2405    0.4234 C   0  0  0  0  0  0  0  0  0  0  0  0
   -3.8921    0.0482    0.1639 C   0  0  0  0  0  0  0  0  0  0  0  0
   -4.8703    0.5347    0.9974 C   0  0  0  0  0  0  0  0  0  0  0  0
   -5.4418    1.7658    0.7473 C   0  0  0  0  0  0  0  0  0  0  0  0
   -5.0572    2.5337   -0.3267 C   0  0  0  0  0  0  0  0  0  0  0  0
   -4.0735    2.0190   -1.1452 C   0  0  0  0  0  0  0  0  0  0  0  0
   -3.4807    0.7854   -0.9199 C   0  0  0  0  0  0  0  0  0  0  0  0
   -1.9510   -1.5521    0.3966 C   0  0  0  0  0  0  0  0  0  0  0  0
   -0.8124   -0.8255    0.1418 C   0  0  0  0  0  0  0  0  0  0  0  0
    7.3932    2.3958    0.1190 H   0  0  0  0  0  0  0  0  0  0  0  0
    7.1397    0.6490    0.3936 H   0  0  0  0  0  0  0  0  0  0  0  0
    6.1659    1.9219    1.3213 H   0  0  0  0  0  0  0  0  0  0  0  0
    4.7465   -0.9954   -1.4035 H   0  0  0  0  0  0  0  0  0  0  0  0
    2.7632   -2.2914   -0.9572 H   0  0  0  0  0  0  0  0  0  0  0  0
    0.8994    1.2079    0.6938 H   0  0  0  0  0  0  0  0  0  0  0  0
    2.9992    2.5055    0.2023 H   0  0  0  0  0  0  0  0  0  0  0  0
    1.5125   -3.2419    0.5362 H   0  0  0  0  0  0  0  0  0  0  0  0
   -3.2498   -4.3905    1.1590 H   0  0  0  0  0  0  0  0  0  0  0  0
   -5.0180   -2.5047    0.8483 H   0  0  0  0  0  0  0  0  0  0  0  0
   -5.2204   -0.0344    1.8733 H   0  0  0  0  0  0  0  0  0  0  0  0
   -6.2104    2.1093    1.4331 H   0  0  0  0  0  0  0  0  0  0  0  0
   -5.5131    3.5113   -0.5220 H   0  0  0  0  0  0  0  0  0  0  0  0
   -3.7661    2.6236   -1.9966 H   0  0  0  0  0  0  0  0  0  0  0  0
   -2.7105    0.4444   -1.6107 H   0  0  0  0  0  0  0  0  0  0  0  0
   -0.8698    0.2157   -0.0971 H   0  0  0  0  0  0  0  0  0  0  0  0
  1  2  1  0
  2  3  2  0
  2  4  2  0
  2  5  1  0
  5  6  2  0
  6  7  1  0
  7  8  2  0
  8  9  1  0
  9 10  2  0
  8 11  1  0
 11 12  2  0
 12 13  1  0
 13 14  2  0
 14 15  1  0
 15 16  1  0
 16 17  2  0
 17 18  1  0
 18 19  2  0
 19 20  1  0
 20 21  2  0
 21 22  1  0
 22 23  2  0
 17 24  1  0
 24 25  2  0
 10  5  1  0
 25 11  1  0
 24 14  1  0
 23 18  1  0
  1 26  1  0
  1 27  1  0
  1 28  1  0
  6 29  1  0
  7 30  1  0
  9 31  1  0
 10 32  1  0
 12 33  1  0
 15 34  1  0
 16 35  1  0
 19 36  1  0
 20 37  1  0
 21 38  1  0
 22 39  1  0
 23 40  1  0
 25 41  1  0
M  END
$$$$
[H]c1c([H])c([H])c2c(c1[H])c1c3c(c4c5c([H])c([H])c([H])c([H])c5n5c4c1n2[C@@]1(C([H])([H])[H])O[C@]5([H])C([H])([H])[C@@]([H])(N([H])C([H])([H])[H])[C@@]1([H])OC([H])([H])[H])C(=O)N([H])C3([H])[H]
     RDKit          3D

 61 68  0  0  0  0  0  0  0  0999 V2000
   -3.3415   -2.0929    0.8927 C   0  0  0  0  0  0  0  0  0  0  0  0
   -2.7520   -0.8244    0.5060 N   0  0  0  0  0  0  0  0  0  0  0  0
   -2.5947   -0.7699   -0.9652 C   0  0  2  0  0  0  0  0  0  0  0  0
   -1.6635   -1.8336   -1.3456 C   0  0  0  0  0  0  0  0  0  0  0  0
   -0.4098   -1.3263   -1.9401 C   0  0  1  0  0  0  0  0  0  0  0  0
   -0.2904   -0.0961   -2.3609 O   0  0  0  0  0  0  0  0  0  0  0  0
   -0.9141    0.9817   -1.7381 C   0  0  1  0  0  0  0  0  0  0  0  0
   -0.8729    2.0231   -2.8643 C   0  0  0  0  0  0  0  0  0  0  0  0
   -2.2914    0.6326   -1.4119 C   0  0  2  0  0  0  0  0  0  0  0  0
   -2.9229    1.4324   -0.4622 O   0  0  0  0  0  0  0  0  0  0  0  0
   -4.0664    2.0564   -0.9455 C   0  0  0  0  0  0  0  0  0  0  0  0
   -0.0747    1.3904   -0.5981 N   0  0  0  0  0  0  0  0  0  0  0  0
    0.0066    2.5943   -0.0347 C   0  0  0  0  0  0  0  0  0  0  0  0
   -0.6403    3.7755   -0.2701 C   0  0  0  0  0  0  0  0  0  0  0  0
   -0.3753    4.9057    0.4704 C   0  0  0  0  0  0  0  0  0  0  0  0
    0.5715    4.8915    1.4994 C   0  0  0  0  0  0  0  0  0  0  0  0
    1.2169    3.7192    1.7374 C   0  0  0  0  0  0  0  0  0  0  0  0
    0.9447    2.6014    0.9941 C   0  0  0  0  0  0  0  0  0  0  0  0
    1.4533    1.3308    1.0530 C   0  0  0  0  0  0  0  0  0  0  0  0
    2.4134    0.7192    1.8621 C   0  0  0  0  0  0  0  0  0  0  0  0
    3.2252    1.2814    2.9656 C   0  0  0  0  0  0  0  0  0  0  0  0
    4.0513    0.2282    3.4563 N   0  0  0  0  0  0  0  0  0  0  0  0
    3.7725   -0.9500    2.6928 C   0  0  0  0  0  0  0  0  0  0  0  0
    4.3602   -2.0093    2.9202 O   0  0  0  0  0  0  0  0  0  0  0  0
    2.7553   -0.6238    1.7110 C   0  0  0  0  0  0  0  0  0  0  0  0
    2.1006   -1.3257    0.7242 C   0  0  0  0  0  0  0  0  0  0  0  0
    2.1422   -2.6347    0.2794 C   0  0  0  0  0  0  0  0  0  0  0  0
    2.8759   -3.7217    0.6638 C   0  0  0  0  0  0  0  0  0  0  0  0
    2.6892   -4.9254    0.0128 C   0  0  0  0  0  0  0  0  0  0  0  0
    1.7808   -5.0386   -1.0084 C   0  0  0  0  0  0  0  0  0  0  0  0
    1.0343   -3.9515   -1.4066 C   0  0  0  0  0  0  0  0  0  0  0  0
    1.2263   -2.7646   -0.7562 C   0  0  0  0  0  0  0  0  0  0  0  0
    0.6469   -1.5975   -0.9447 N   0  0  0  0  0  0  0  0  0  0  0  0
    1.1358   -0.7009   -0.0851 C   0  0  0  0  0  0  0  0  0  0  0  0
    0.8119    0.6350    0.0794 C   0  0  0  0  0  0  0  0  0  0  0  0
   -3.9345   -1.8764    1.8249 H   0  0  0  0  0  0  0  0  0  0  0  0
   -2.5804   -2.8202    1.1896 H   0  0  0  0  0  0  0  0  0  0  0  0
   -4.0376   -2.4413    0.1071 H   0  0  0  0  0  0  0  0  0  0  0  0
   -1.8252   -0.7857    0.9817 H   0  0  0  0  0  0  0  0  0  0  0  0
   -3.6418   -1.0758   -1.3069 H   0  0  0  0  0  0  0  0  0  0  0  0
   -1.4743   -2.5407   -0.4944 H   0  0  0  0  0  0  0  0  0  0  0  0
   -2.1827   -2.5069   -2.1019 H   0  0  0  0  0  0  0  0  0  0  0  0
   -0.1764   -2.0147   -2.8352 H   0  0  0  0  0  0  0  0  0  0  0  0
   -1.8561    2.5173   -2.9808 H   0  0  0  0  0  0  0  0  0  0  0  0
   -0.0367    2.7359   -2.7018 H   0  0  0  0  0  0  0  0  0  0  0  0
   -0.6761    1.5932   -3.8662 H   0  0  0  0  0  0  0  0  0  0  0  0
   -2.9127    0.7625   -2.3525 H   0  0  0  0  0  0  0  0  0  0  0  0
   -4.5472    2.6842   -0.1440 H   0  0  0  0  0  0  0  0  0  0  0  0
   -3.8494    2.7776   -1.7563 H   0  0  0  0  0  0  0  0  0  0  0  0
   -4.7942    1.3294   -1.3803 H   0  0  0  0  0  0  0  0  0  0  0  0
   -1.3647    3.8112   -1.0348 H   0  0  0  0  0  0  0  0  0  0  0  0
   -0.8845    5.8355    0.2847 H   0  0  0  0  0  0  0  0  0  0  0  0
    0.7949    5.7654    2.0918 H   0  0  0  0  0  0  0  0  0  0  0  0
    1.9682    3.6487    2.5304 H   0  0  0  0  0  0  0  0  0  0  0  0
    3.8868    2.0907    2.5395 H   0  0  0  0  0  0  0  0  0  0  0  0
    2.5967    1.6993    3.7873 H   0  0  0  0  0  0  0  0  0  0  0  0
    4.7363    0.3270    4.2421 H   0  0  0  0  0  0  0  0  0  0  0  0
    3.5871   -3.7061    1.4353 H   0  0  0  0  0  0  0  0  0  0  0  0
    3.2659   -5.8106    0.3031 H   0  0  0  0  0  0  0  0  0  0  0  0
    1.6292   -5.9934   -1.5280 H   0  0  0  0  0  0  0  0  0  0  0  0
    0.3048   -4.0175   -2.2172 H   0  0  0  0  0  0  0  0  0  0  0  0
  1  2  1  0
  2  3  1  0
  3  4  1  0
  4  5  1  0
  5  6  1  0
  6  7  1  0
  7  8  1  6
  7  9  1  0
  9 10  1  0
 10 11  1  0
  7 12  1  0
 12 13  1  0
 13 14  2  0
 14 15  1  0
 15 16  2  0
 16 17  1  0
 17 18  2  0
 18 19  1  0
 19 20  2  0
 20 21  1  0
 21 22  1  0
 22 23  1  0
 23 24  2  0
 23 25  1  0
 25 26  2  0
 26 27  1  0
 27 28  2  0
 28 29  1  0
 29 30  2  0
 30 31  1  0
 31 32  2  0
 32 33  1  0
 33 34  1  0
 34 35  2  0
  9  3  1  0
 35 12  1  0
 33  5  1  0
 18 13  1  0
 35 19  1  0
 25 20  1  0
 34 26  1  0
 32 27  1  0
  1 36  1  0
  1 37  1  0
  1 38  1  0
  2 39  1  0
  3 40  1  6
  4 41  1  0
  4 42  1  0
  5 43  1  6
  8 44  1  0
  8 45  1  0
  8 46  1  0
  9 47  1  6
 11 48  1  0
 11 49  1  0
 11 50  1  0
 14 51  1  0
 15 52  1  0
 16 53  1  0
 17 54  1  0
 21 55  1  0
 21 56  1  0
 22 57  1  0
 28 58  1  0
 29 59  1  0
 30 60  1  0
 31 61  1  0
M  END
$$$$
[H]c1c([H])c([H])c2c(c1[H])c1c3c(c4c5c([H])c([H])c([H])c([H])c5n5c4c1n2[C@@]1(C([H])([H])[H])O[C@]5([H])C([H])([H])[C@@]([H])(N([H])C([H])([H])[H])[C@@]1([H])OC([H])([H])[H])C(=O)N([H])C3([H])[H]
     RDKit          3D

 61 68  0  0  0  0  0  0  0  0999 V2000
   -3.3415   -2.0929    0.8927 C   0  0  0  0  0  0  0  0  0  0  0  0
   -2.7520   -0.8244    0.5060 N   0  0  0  0  0  0  0  0  0  0  0  0
   -2.5947   -0.7699   -0.9652 C   0  0  2  0  0  0  0  0  0  0  0  0
   -1.6635   -1.8336   -1.3456 C   0  0  0  0  0  0  0  0  0  0  0  0
   -0.4098   -1.3263   -1.9401 C   0  0  1  0  0  0  0  0  0  0  0  0
   -0.2904   -0.0961   -2.3609 O   0  0  0  0  0  0  0  0  0  0  0  0
   -0.9141    0.9817   -1.7381 C   0  0  1  0  0  0  0  0  0  0  0  0
   -0.8729    2.0231   -2.8643 C   0  0  0  0  0  0  0  0  0  0  0  0
   -2.2914    0.6326   -1.4119 C   0  0  2  0  0  0  0  0  0  0  0  0
   -2.9229    1.4324   -0.4622 O   0  0  0  0  0  0  0  0  0  0  0  0
   -4.0664    2.0564   -0.9455 C   0  0  0  0  0  0  0  0  0  0  0  0
   -0.0747    1.3904   -0.5981 N   0  0  0  0  0  0  0  0  0  0  0  0
    0.0066    2.5943   -0.0347 C   0  0  0  0  0  0  0  0  0  0  0  0
   -0.6403    3.7755   -0.2701 C   0  0  0  0  0  0  0  0  0  0  0  0
   -0.3753    4.9057    0.4704 C   0  0  0  0  0  0  0  0  0  0  0  0
    0.5715    4.8915    1.4994 C   0  0  0  0  0  0  0  0  0  0  0  0
    1.2169    3.7192    1.7374 C   0  0  0  0  0  0  0  0  0  0  0  0
    0.9447    2.6014    0.9941 C   0  0  0  0  0  0  0  0  0  0  0  0
    1.4533    1.3308    1.0530 C   0  0  0  0  0  0  0  0  0  0  0  0
    2.4134    0.7192    1.8621 C   0  0  0  0  0  0  0  0  0  0  0  0
    3.2252    1.2814    2.9656 C   0  0  0  0  0  0  0  0  0  0  0  0
    4.0513    0.2282    3.4563 N   0  0  0  0  0  0  0  0  0  0  0  0
    3.7725   -0.9500    2.6928 C   0  0  0  0  0  0  0  0  0  0  0  0
    4.3602   -2.0093    2.9202 O   0  0  0  0  0  0  0  0  0  0  0  0
    2.7553   -0.6238    1.7110 C   0  0  0  0  0  0  0  0  0  0  0  0
    2.1006   -1.3257    0.7242 C   0  0  0  0  0  0  0  0  0  0  0  0
    2.1422   -2.6347    0.2794 C   0  0  0  0  0  0  0  0  0  0  0  0
    2.8759   -3.7217    0.6638 C   0  0  0  0  0  0  0  0  0  0  0  0
    2.6892   -4.9254    0.0128 C   0  0  0  0  0  0  0  0  0  0  0  0
    1.7808   -5.0386   -1.0084 C   0  0  0  0  0  0  0  0  0  0  0  0
    1.0343   -3.9515   -1.4066 C   0  0  0  0  0  0  0  0  0  0  0  0
    1.2263   -2.7646   -0.7562 C   0  0  0  0  0  0  0  0  0  0  0  0
    0.6469   -1.5975   -0.9447 N   0  0  0  0  0  0  0  0  0  0  0  0
    1.1358   -0.7009   -0.0851 C   0  0  0  0  0  0  0  0  0  0  0  0
    0.8119    0.6350    0.0794 C   0  0  0  0  0  0  0  0  0  0  0  0
   -3.9345   -1.8764    1.8249 H   0  0  0  0  0  0  0  0  0  0  0  0
   -2.5804   -2.8202    1.1896 H   0  0  0  0  0  0  0  0  0  0  0  0
   -4.0376   -2.4413    0.1071 H   0  0  0  0  0  0  0  0  0  0  0  0
   -1.8252   -0.7857    0.9817 H   0  0  0  0  0  0  0  0  0  0  0  0
   -3.6418   -1.0758   -1.3069 H   0  0  0  0  0  0  0  0  0  0  0  0
   -1.4743   -2.5407   -0.4944 H   0  0  0  0  0  0  0  0  0  0  0  0
   -2.1827   -2.5069   -2.1019 H   0  0  0  0  0  0  0  0  0  0  0  0
   -0.1764   -2.0147   -2.8352 H   0  0  0  0  0  0  0  0  0  0  0  0
   -1.8561    2.5173   -2.9808 H   0  0  0  0  0  0  0  0  0  0  0  0
   -0.0367    2.7359   -2.7018 H   0  0  0  0  0  0  0  0  0  0  0  0
   -0.6761    1.5932   -3.8662 H   0  0  0  0  0  0  0  0  0  0  0  0
   -2.9127    0.7625   -2.3525 H   0  0  0  0  0  0  0  0  0  0  0  0
   -4.5472    2.6842   -0.1440 H   0  0  0  0  0  0  0  0  0  0  0  0
   -3.8494    2.7776   -1.7563 H   0  0  0  0  0  0  0  0  0  0  0  0
   -4.7942    1.3294   -1.3803 H   0  0  0  0  0  0  0  0  0  0  0  0
   -1.3647    3.8112   -1.0348 H   0  0  0  0  0  0  0  0  0  0  0  0
   -0.8845    5.8355    0.2847 H   0  0  0  0  0  0  0  0  0  0  0  0
    0.7949    5.7654    2.0918 H   0  0  0  0  0  0  0  0  0  0  0  0
    1.9682    3.6487    2.5304 H   0  0  0  0  0  0  0  0  0  0  0  0
    3.8868    2.0907    2.5395 H   0  0  0  0  0  0  0  0  0  0  0  0
    2.5967    1.6993    3.7873 H   0  0  0  0  0  0  0  0  0  0  0  0
    4.7363    0.3270    4.2421 H   0  0  0  0  0  0  0  0  0  0  0  0
    3.5871   -3.7061    1.4353 H   0  0  0  0  0  0  0  0  0  0  0  0
    3.2659   -5.8106    0.3031 H   0  0  0  0  0  0  0  0  0  0  0  0
    1.6292   -5.9934   -1.5280 H   0  0  0  0  0  0  0  0  0  0  0  0
    0.3048   -4.0175   -2.2172 H   0  0  0  0  0  0  0  0  0  0  0  0
  1  2  1  0
  2  3  1  0
  3  4  1  0
  4  5  1  0
  5  6  1  0
  6  7  1  0
  7  8  1  6
  7  9  1  0
  9 10  1  0
 10 11  1  0
  7 12  1  0
 12 13  1  0
 13 14  2  0
 14 15  1  0
 15 16  2  0
 16 17  1  0
 17 18  2  0
 18 19  1  0
 19 20  2  0
 20 21  1  0
 21 22  1  0
 22 23  1  0
 23 24  2  0
 23 25  1  0
 25 26  2  0
 26 27  1  0
 27 28  2  0
 28 29  1  0
 29 30  2  0
 30 31  1  0
 31 32  2  0
 32 33  1  0
 33 34  1  0
 34 35  2  0
  9  3  1  0
 35 12  1  0
 33  5  1  0
 18 13  1  0
 35 19  1  0
 25 20  1  0
 34 26  1  0
 32 27  1  0
  1 36  1  0
  1 37  1  0
  1 38  1  0
  2 39  1  0
  3 40  1  6
  4 41  1  0
  4 42  1  0
  5 43  1  6
  8 44  1  0
  8 45  1  0
  8 46  1  0
  9 47  1  6
 11 48  1  0
 11 49  1  0
 11 50  1  0
 14 51  1  0
 15 52  1  0
 16 53  1  0
 17 54  1  0
 21 55  1  0
 21 56  1  0
 22 57  1  0
 28 58  1  0
 29 59  1  0
 30 60  1  0
 31 61  1  0
M  END
$$$$
[H]c1c([H])c(N([H])C(=O)N([H])c2c([H])c([H])c(-c3nc4c([H])c(C([H])([H])N5C([H])([H])C([H])([H])N(C([H])([H])[H])C([H])([H])C5([H])[H])c([H])c([H])c4n3[H])c([H])c2[H])c([H])c([H])c1OC([H])([H])C([H])([H])N1C([H])([H])C([H])([H])C([H])([H])C1([H])[H]
     RDKit          3D

 80 85  0  0  0  0  0  0  0  0999 V2000
  -11.5458   -3.5808   -0.6661 C   0  0  0  0  0  0  0  0  0  0  0  0
  -11.5927   -2.1850   -0.2636 N   0  0  0  0  0  0  0  0  0  0  0  0
  -11.9003   -1.3198   -1.3875 C   0  0  0  0  0  0  0  0  0  0  0  0
  -10.6742   -0.9896   -2.1968 C   0  0  0  0  0  0  0  0  0  0  0  0
   -9.6139   -0.4356   -1.4138 N   0  0  0  0  0  0  0  0  0  0  0  0
   -9.3135    0.9255   -1.8095 C   0  0  0  0  0  0  0  0  0  0  0  0
   -8.2032    1.4125   -0.9470 C   0  0  0  0  0  0  0  0  0  0  0  0
   -8.3785    2.2458    0.1229 C   0  0  0  0  0  0  0  0  0  0  0  0
   -7.3071    2.6602    0.8902 C   0  0  0  0  0  0  0  0  0  0  0  0
   -6.0280    2.2162    0.5611 C   0  0  0  0  0  0  0  0  0  0  0  0
   -4.8157    2.4331    1.0964 N   0  0  0  0  0  0  0  0  0  0  0  0
   -3.8728    1.7750    0.4162 C   0  0  0  0  0  0  0  0  0  0  0  0
   -4.5157    1.1318   -0.5684 N   0  0  0  0  0  0  0  0  0  0  0  0
   -5.8339    1.3779   -0.5116 C   0  0  0  0  0  0  0  0  0  0  0  0
   -6.9320    0.9877   -1.2524 C   0  0  0  0  0  0  0  0  0  0  0  0
   -2.4364    1.7428    0.6634 C   0  0  0  0  0  0  0  0  0  0  0  0
   -1.8499    2.4426    1.6931 C   0  0  0  0  0  0  0  0  0  0  0  0
   -0.4943    2.3920    1.9009 C   0  0  0  0  0  0  0  0  0  0  0  0
    0.3806    1.6417    1.1001 C   0  0  0  0  0  0  0  0  0  0  0  0
    1.7595    1.6807    1.3860 N   0  0  0  0  0  0  0  0  0  0  0  0
    2.7463    0.7569    0.9823 C   0  0  0  0  0  0  0  0  0  0  0  0
    2.4154   -0.2358    0.2990 O   0  0  0  0  0  0  0  0  0  0  0  0
    4.0911    0.9392    1.3375 N   0  0  0  0  0  0  0  0  0  0  0  0
    5.2051    0.1339    1.0413 C   0  0  0  0  0  0  0  0  0  0  0  0
    6.4786    0.7244    1.1153 C   0  0  0  0  0  0  0  0  0  0  0  0
    7.5617   -0.0849    0.8402 C   0  0  0  0  0  0  0  0  0  0  0  0
    7.5085   -1.4028    0.5026 C   0  0  0  0  0  0  0  0  0  0  0  0
    8.5864   -2.1936    0.2249 O   0  0  0  0  0  0  0  0  0  0  0  0
    9.8999   -1.7794    0.1937 C   0  0  0  0  0  0  0  0  0  0  0  0
   10.2642   -0.8015   -0.8947 C   0  0  0  0  0  0  0  0  0  0  0  0
   11.6322   -0.3959   -0.8780 N   0  0  0  0  0  0  0  0  0  0  0  0
   12.5813   -1.4073   -1.2059 C   0  0  0  0  0  0  0  0  0  0  0  0
   13.8695   -1.0559   -0.4892 C   0  0  0  0  0  0  0  0  0  0  0  0
   13.5902    0.2959    0.1324 C   0  0  0  0  0  0  0  0  0  0  0  0
   12.0784    0.3285    0.2579 C   0  0  0  0  0  0  0  0  0  0  0  0
    6.2109   -1.9531    0.4421 C   0  0  0  0  0  0  0  0  0  0  0  0
    5.0939   -1.1925    0.7075 C   0  0  0  0  0  0  0  0  0  0  0  0
   -0.2084    0.9482    0.0773 C   0  0  0  0  0  0  0  0  0  0  0  0
   -1.5963    0.9999   -0.1349 C   0  0  0  0  0  0  0  0  0  0  0  0
   -9.8667   -0.4389    0.0114 C   0  0  0  0  0  0  0  0  0  0  0  0
  -10.4205   -1.7778    0.4480 C   0  0  0  0  0  0  0  0  0  0  0  0
  -10.5537   -4.0344   -0.4537 H   0  0  0  0  0  0  0  0  0  0  0  0
  -11.7721   -3.7297   -1.7331 H   0  0  0  0  0  0  0  0  0  0  0  0
  -12.2825   -4.1315   -0.0511 H   0  0  0  0  0  0  0  0  0  0  0  0
  -12.3832   -0.4051   -1.0385 H   0  0  0  0  0  0  0  0  0  0  0  0
  -12.6174   -1.8778   -2.0272 H   0  0  0  0  0  0  0  0  0  0  0  0
  -10.9742   -0.2566   -2.9737 H   0  0  0  0  0  0  0  0  0  0  0  0
  -10.3096   -1.9203   -2.6943 H   0  0  0  0  0  0  0  0  0  0  0  0
  -10.2195    1.5481   -1.6520 H   0  0  0  0  0  0  0  0  0  0  0  0
   -9.0332    1.0078   -2.8755 H   0  0  0  0  0  0  0  0  0  0  0  0
   -9.3963    2.5789    0.3577 H   0  0  0  0  0  0  0  0  0  0  0  0
   -7.4396    3.3239    1.7442 H   0  0  0  0  0  0  0  0  0  0  0  0
   -4.6640    3.0414    1.9339 H   0  0  0  0  0  0  0  0  0  0  0  0
   -6.7294    0.3191   -2.0983 H   0  0  0  0  0  0  0  0  0  0  0  0
   -2.4766    3.0423    2.3478 H   0  0  0  0  0  0  0  0  0  0  0  0
   -0.0180    2.9482    2.7229 H   0  0  0  0  0  0  0  0  0  0  0  0
    2.1368    2.4981    1.9754 H   0  0  0  0  0  0  0  0  0  0  0  0
    4.2820    1.8230    1.9214 H   0  0  0  0  0  0  0  0  0  0  0  0
    6.5826    1.7729    1.3790 H   0  0  0  0  0  0  0  0  0  0  0  0
    8.5488    0.3960    0.9393 H   0  0  0  0  0  0  0  0  0  0  0  0
   10.6316   -2.6425    0.2114 H   0  0  0  0  0  0  0  0  0  0  0  0
   10.1351   -1.2542    1.1725 H   0  0  0  0  0  0  0  0  0  0  0  0
    9.6162    0.0754   -0.9707 H   0  0  0  0  0  0  0  0  0  0  0  0
   10.1352   -1.3173   -1.9135 H   0  0  0  0  0  0  0  0  0  0  0  0
   12.7210   -1.3730   -2.3256 H   0  0  0  0  0  0  0  0  0  0  0  0
   12.2603   -2.4416   -0.9910 H   0  0  0  0  0  0  0  0  0  0  0  0
   14.1332   -1.7912    0.3064 H   0  0  0  0  0  0  0  0  0  0  0  0
   14.6724   -0.9750   -1.2515 H   0  0  0  0  0  0  0  0  0  0  0  0
   13.9310    1.1296   -0.5426 H   0  0  0  0  0  0  0  0  0  0  0  0
   14.0757    0.4352    1.1064 H   0  0  0  0  0  0  0  0  0  0  0  0
   11.7431   -0.0405    1.2416 H   0  0  0  0  0  0  0  0  0  0  0  0
   11.7079    1.3923    0.1825 H   0  0  0  0  0  0  0  0  0  0  0  0
    6.1535   -3.0083    0.1737 H   0  0  0  0  0  0  0  0  0  0  0  0
    4.1279   -1.7172    0.6466 H   0  0  0  0  0  0  0  0  0  0  0  0
    0.4032    0.3581   -0.5901 H   0  0  0  0  0  0  0  0  0  0  0  0
   -2.0203    0.4355   -0.9551 H   0  0  0  0  0  0  0  0  0  0  0  0
  -10.5297    0.4057    0.2278 H   0  0  0  0  0  0  0  0  0  0  0  0
   -8.8742   -0.3450    0.5115 H   0  0  0  0  0  0  0  0  0  0  0  0
  -10.6691   -1.7119    1.5289 H   0  0  0  0  0  0  0  0  0  0  0  0
   -9.5887   -2.5202    0.3121 H   0  0  0  0  0  0  0  0  0  0  0  0
  1  2  1  0
  2  3  1  0
  3  4  1  0
  4  5  1  0
  5  6  1  0
  6  7  1  0
  7  8  2  0
  8  9  1  0
  9 10  2  0
 10 11  1  0
 11 12  1  0
 12 13  2  0
 13 14  1  0
 14 15  2  0
 12 16  1  0
 16 17  2  0
 17 18  1  0
 18 19  2  0
 19 20  1  0
 20 21  1  0
 21 22  2  0
 21 23  1  0
 23 24  1  0
 24 25  2  0
 25 26  1  0
 26 27  2  0
 27 28  1  0
 28 29  1  0
 29 30  1  0
 30 31  1  0
 31 32  1  0
 32 33  1  0
 33 34  1  0
 34 35  1  0
 27 36  1  0
 36 37  2  0
 19 38  1  0
 38 39  2  0
  5 40  1  0
 40 41  1  0
 41  2  1  0
 15  7  1  0
 39 16  1  0
 14 10  1  0
 37 24  1  0
 35 31  1  0
  1 42  1  0
  1 43  1  0
  1 44  1  0
  3 45  1  0
  3 46  1  0
  4 47  1  0
  4 48  1  0
  6 49  1  0
  6 50  1  0
  8 51  1  0
  9 52  1  0
 11 53  1  0
 15 54  1  0
 17 55  1  0
 18 56  1  0
 20 57  1  0
 23 58  1  0
 25 59  1  0
 26 60  1  0
 29 61  1  0
 29 62  1  0
 30 63  1  0
 30 64  1  0
 32 65  1  0
 32 66  1  0
 33 67  1  0
 33 68  1  0
 34 69  1  0
 34 70  1  0
 35 71  1  0
 35 72  1  0
 36 73  1  0
 37 74  1  0
 38 75  1  0
 39 76  1  0
 40 77  1  0
 40 78  1  0
 41 79  1  0
 41 80  1  0
M  END
$$$$
[H]C1=C(c2c([H])nn3c([H])c(-c4c([H])c([H])c(C([H])([H])N5C([H])([H])C([H])([H])N(C([H])([H])[H])C([H])([H])C5([H])[H])c([H])c4[H])c([H])nc23)C([H])([H])N([H])C1([H])[H]
     RDKit          3D

 54 58  0  0  0  0  0  0  0  0999 V2000
   -7.8377   -1.0741    0.8099 C   0  0  0  0  0  0  0  0  0  0  0  0
   -6.8016   -1.3579   -0.1452 N   0  0  0  0  0  0  0  0  0  0  0  0
   -5.6486   -1.9844    0.3975 C   0  0  0  0  0  0  0  0  0  0  0  0
   -4.5767   -1.0509    0.8706 C   0  0  0  0  0  0  0  0  0  0  0  0
   -4.7885    0.2722    0.4368 N   0  0  0  0  0  0  0  0  0  0  0  0
   -3.9920    1.3015    0.9612 C   0  0  0  0  0  0  0  0  0  0  0  0
   -2.5326    1.1622    0.7264 C   0  0  0  0  0  0  0  0  0  0  0  0
   -1.7148    0.4675    1.5976 C   0  0  0  0  0  0  0  0  0  0  0  0
   -0.3578    0.3348    1.3875 C   0  0  0  0  0  0  0  0  0  0  0  0
    0.2583    0.8994    0.2783 C   0  0  0  0  0  0  0  0  0  0  0  0
   -0.5555    1.5926   -0.5918 C   0  0  0  0  0  0  0  0  0  0  0  0
   -1.9132    1.7204   -0.3736 C   0  0  0  0  0  0  0  0  0  0  0  0
    1.6951    0.7542    0.0643 C   0  0  0  0  0  0  0  0  0  0  0  0
    2.3871   -0.3651    0.4730 C   0  0  0  0  0  0  0  0  0  0  0  0
    3.7084   -0.4540    0.2563 N   0  0  0  0  0  0  0  0  0  0  0  0
    4.4043    0.5218   -0.3555 C   0  0  0  0  0  0  0  0  0  0  0  0
    5.7444    0.6259   -0.6687 C   0  0  0  0  0  0  0  0  0  0  0  0
    5.8658    1.8519   -1.2887 C   0  0  0  0  0  0  0  0  0  0  0  0
    4.6560    2.4209   -1.3285 N   0  0  0  0  0  0  0  0  0  0  0  0
    3.7574    1.6287   -0.7671 N   0  0  0  0  0  0  0  0  0  0  0  0
    2.4178    1.7339   -0.5548 C   0  0  0  0  0  0  0  0  0  0  0  0
    6.8258   -0.3321   -0.4155 C   0  0  0  0  0  0  0  0  0  0  0  0
    6.7471   -1.5127    0.1694 C   0  0  0  0  0  0  0  0  0  0  0  0
    8.0867   -2.1456    0.2154 C   0  0  0  0  0  0  0  0  0  0  0  0
    8.9838   -1.0371    0.0433 N   0  0  0  0  0  0  0  0  0  0  0  0
    8.2484   -0.0977   -0.7985 C   0  0  0  0  0  0  0  0  0  0  0  0
   -5.3276    0.4742   -0.8563 C   0  0  0  0  0  0  0  0  0  0  0  0
   -6.5717   -0.3356   -1.1047 C   0  0  0  0  0  0  0  0  0  0  0  0
   -7.9317    0.0303    0.8848 H   0  0  0  0  0  0  0  0  0  0  0  0
   -7.6280   -1.5097    1.8102 H   0  0  0  0  0  0  0  0  0  0  0  0
   -8.7930   -1.4320    0.3732 H   0  0  0  0  0  0  0  0  0  0  0  0
   -5.2058   -2.6373   -0.3989 H   0  0  0  0  0  0  0  0  0  0  0  0
   -5.9798   -2.6817    1.1994 H   0  0  0  0  0  0  0  0  0  0  0  0
   -4.5868   -1.0731    1.9809 H   0  0  0  0  0  0  0  0  0  0  0  0
   -3.5606   -1.3884    0.5700 H   0  0  0  0  0  0  0  0  0  0  0  0
   -4.3741    2.2758    0.5355 H   0  0  0  0  0  0  0  0  0  0  0  0
   -4.2123    1.3975    2.0657 H   0  0  0  0  0  0  0  0  0  0  0  0
   -2.1825    0.0158    2.4771 H   0  0  0  0  0  0  0  0  0  0  0  0
    0.2951   -0.2137    2.0734 H   0  0  0  0  0  0  0  0  0  0  0  0
   -0.0589    2.0298   -1.4572 H   0  0  0  0  0  0  0  0  0  0  0  0
   -2.4775    2.2707   -1.0897 H   0  0  0  0  0  0  0  0  0  0  0  0
    1.8996   -1.1871    0.9692 H   0  0  0  0  0  0  0  0  0  0  0  0
    6.7619    2.3238   -1.6937 H   0  0  0  0  0  0  0  0  0  0  0  0
    1.9502    2.6244   -0.8968 H   0  0  0  0  0  0  0  0  0  0  0  0
    5.8066   -1.9311    0.5535 H   0  0  0  0  0  0  0  0  0  0  0  0
    8.1849   -2.8146   -0.6643 H   0  0  0  0  0  0  0  0  0  0  0  0
    8.2552   -2.6973    1.1629 H   0  0  0  0  0  0  0  0  0  0  0  0
    9.8549   -1.3361   -0.4513 H   0  0  0  0  0  0  0  0  0  0  0  0
    8.5722    0.9330   -0.5803 H   0  0  0  0  0  0  0  0  0  0  0  0
    8.4261   -0.3706   -1.8421 H   0  0  0  0  0  0  0  0  0  0  0  0
   -5.5195    1.5595   -0.9932 H   0  0  0  0  0  0  0  0  0  0  0  0
   -4.6123    0.1996   -1.6852 H   0  0  0  0  0  0  0  0  0  0  0  0
   -6.6108   -0.7813   -2.1205 H   0  0  0  0  0  0  0  0  0  0  0  0
   -7.4412    0.3785   -1.0598 H   0  0  0  0  0  0  0  0  0  0  0  0
  1  2  1  0
  2  3  1  0
  3  4  1  0
  4  5  1  0
  5  6  1  0
  6  7  1  0
  7  8  2  0
  8  9  1  0
  9 10  2  0
 10 11  1  0
 11 12  2  0
 10 13  1  0
 13 14  1  0
 14 15  2  0
 15 16  1  0
 16 17  2  0
 17 18  1  0
 18 19  2  0
 19 20  1  0
 20 21  1  0
 17 22  1  0
 22 23  2  0
 23 24  1  0
 24 25  1  0
 25 26  1  0
  5 27  1  0
 27 28  1  0
 28  2  1  0
 12  7  1  0
 21 13  2  0
 26 22  1  0
 20 16  1  0
  1 29  1  0
  1 30  1  0
  1 31  1  0
  3 32  1  0
  3 33  1  0
  4 34  1  0
  4 35  1  0
  6 36  1  0
  6 37  1  0
  8 38  1  0
  9 39  1  0
 11 40  1  0
 12 41  1  0
 14 42  1  0
 18 43  1  0
 21 44  1  0
 23 45  1  0
 24 46  1  0
 24 47  1  0
 25 48  1  0
 26 49  1  0
 26 50  1  0
 27 51  1  0
 27 52  1  0
 28 53  1  0
 28 54  1  0
M  END
$$$$
[H]C([H])=C([H])C(=O)N([H])c1c([H])c([H])c(N([H])C(=O)c2c([H])c([H])c(C([H])([H])N3C([H])([H])C([H])([H])C(F)(F)C([H])([H])C3([H])[H])c([H])c2[H])c([H])c1Cl
     RDKit          3D

 52 54  0  0  0  0  0  0  0  0999 V2000
   -8.3345    2.1548    0.1507 F   0  0  0  0  0  0  0  0  0  0  0  0
   -7.3465    1.2924   -0.2983 C   0  0  0  0  0  0  0  0  0  0  0  0
   -7.2392    1.4513   -1.6648 F   0  0  0  0  0  0  0  0  0  0  0  0
   -6.0446    1.6735    0.4054 C   0  0  0  0  0  0  0  0  0  0  0  0
   -4.9795    0.7963   -0.1896 C   0  0  0  0  0  0  0  0  0  0  0  0
   -5.2578   -0.5781   -0.1140 N   0  0  0  0  0  0  0  0  0  0  0  0
   -4.5863   -1.4260   -1.0312 C   0  0  0  0  0  0  0  0  0  0  0  0
   -3.0984   -1.2983   -0.8214 C   0  0  0  0  0  0  0  0  0  0  0  0
   -2.3683   -0.3669   -1.5120 C   0  0  0  0  0  0  0  0  0  0  0  0
   -0.9984   -0.2624   -1.3066 C   0  0  0  0  0  0  0  0  0  0  0  0
   -0.3515   -1.0810   -0.4165 C   0  0  0  0  0  0  0  0  0  0  0  0
   -1.0990   -2.0271    0.2834 C   0  0  0  0  0  0  0  0  0  0  0  0
   -2.4529   -2.1155    0.0668 C   0  0  0  0  0  0  0  0  0  0  0  0
    1.1083   -0.9890   -0.1694 C   0  0  0  0  0  0  0  0  0  0  0  0
    1.6214   -1.9526    0.4348 O   0  0  0  0  0  0  0  0  0  0  0  0
    1.8360    0.1118   -0.5935 N   0  0  0  0  0  0  0  0  0  0  0  0
    3.2217    0.3030   -0.4029 C   0  0  0  0  0  0  0  0  0  0  0  0
    3.9351   -0.3190    0.5544 C   0  0  0  0  0  0  0  0  0  0  0  0
    5.3210   -0.1284    0.7045 C   0  0  0  0  0  0  0  0  0  0  0  0
    5.9860    0.7094   -0.1342 C   0  0  0  0  0  0  0  0  0  0  0  0
    7.3614    0.9387   -0.0341 N   0  0  0  0  0  0  0  0  0  0  0  0
    8.2733    0.3965    0.8793 C   0  0  0  0  0  0  0  0  0  0  0  0
    7.9747   -0.4055    1.7756 O   0  0  0  0  0  0  0  0  0  0  0  0
    9.7156    0.7902    0.7972 C   0  0  0  0  0  0  0  0  0  0  0  0
   10.5669    0.2858    1.6480 C   0  0  0  0  0  0  0  0  0  0  0  0
    5.2326    1.3539   -1.1287 C   0  0  0  0  0  0  0  0  0  0  0  0
    6.0834    2.4480   -2.2280 Cl  0  0  0  0  0  0  0  0  0  0  0  0
    3.9079    1.1717   -1.2728 C   0  0  0  0  0  0  0  0  0  0  0  0
   -6.5148   -0.9893    0.3488 C   0  0  0  0  0  0  0  0  0  0  0  0
   -7.6711   -0.1046    0.0739 C   0  0  0  0  0  0  0  0  0  0  0  0
   -5.8693    2.7305    0.2020 H   0  0  0  0  0  0  0  0  0  0  0  0
   -6.1890    1.4295    1.4692 H   0  0  0  0  0  0  0  0  0  0  0  0
   -4.0312    1.0309    0.3054 H   0  0  0  0  0  0  0  0  0  0  0  0
   -4.9120    1.0846   -1.2800 H   0  0  0  0  0  0  0  0  0  0  0  0
   -4.7569   -1.1728   -2.1004 H   0  0  0  0  0  0  0  0  0  0  0  0
   -4.8352   -2.4815   -0.7940 H   0  0  0  0  0  0  0  0  0  0  0  0
   -2.8520    0.3007   -2.2281 H   0  0  0  0  0  0  0  0  0  0  0  0
   -0.4576    0.4885   -1.8795 H   0  0  0  0  0  0  0  0  0  0  0  0
   -0.5831   -2.6762    0.9898 H   0  0  0  0  0  0  0  0  0  0  0  0
   -3.0158   -2.8575    0.6209 H   0  0  0  0  0  0  0  0  0  0  0  0
    1.3073    0.8908   -1.1059 H   0  0  0  0  0  0  0  0  0  0  0  0
    3.4682   -0.9996    1.2884 H   0  0  0  0  0  0  0  0  0  0  0  0
    5.7962   -0.6869    1.5171 H   0  0  0  0  0  0  0  0  0  0  0  0
    7.7793    1.6222   -0.7529 H   0  0  0  0  0  0  0  0  0  0  0  0
   10.0512    1.4799    0.0483 H   0  0  0  0  0  0  0  0  0  0  0  0
   10.2368   -0.4090    2.4047 H   0  0  0  0  0  0  0  0  0  0  0  0
   11.6072    0.5382    1.6273 H   0  0  0  0  0  0  0  0  0  0  0  0
    3.3033    1.6696   -2.0475 H   0  0  0  0  0  0  0  0  0  0  0  0
   -6.4330   -1.2155    1.4530 H   0  0  0  0  0  0  0  0  0  0  0  0
   -6.7508   -1.9978   -0.1043 H   0  0  0  0  0  0  0  0  0  0  0  0
   -8.3202   -0.0720    0.9913 H   0  0  0  0  0  0  0  0  0  0  0  0
   -8.3459   -0.5301   -0.7247 H   0  0  0  0  0  0  0  0  0  0  0  0
  1  2  1  0
  2  3  1  0
  2  4  1  0
  4  5  1  0
  5  6  1  0
  6  7  1  0
  7  8  1  0
  8  9  2  0
  9 10  1  0
 10 11  2  0
 11 12  1  0
 12 13  2  0
 11 14  1  0
 14 15  2  0
 14 16  1  0
 16 17  1  0
 17 18  2  0
 18 19  1  0
 19 20  2  0
 20 21  1  0
 21 22  1  0
 22 23  2  0
 22 24  1  0
 24 25  2  3
 20 26  1  0
 26 27  1  0
 26 28  2  0
  6 29  1  0
 29 30  1  0
 30  2  1  0
 13  8  1  0
 28 17  1  0
  4 31  1  0
  4 32  1  0
  5 33  1  0
  5 34  1  0
  7 35  1  0
  7 36  1  0
  9 37  1  0
 10 38  1  0
 12 39  1  0
 13 40  1  0
 16 41  1  0
 18 42  1  0
 19 43  1  0
 21 44  1  0
 24 45  1  0
 25 46  1  0
 25 47  1  0
 28 48  1  0
 29 49  1  0
 29 50  1  0
 30 51  1  0
 30 52  1  0
M  END
$$$$
[H]c1c([H])c([H])c(N([H])S(=O)(=O)C([H])([H])[H])c(-c2c([H])c3c([H])nc(N([H])c4c([H])c([H])c(N5C([H])([H])C([H])([H])N(C([H])([H])[H])C([H])([H])C5([H])[H])c([H])c4[H])nc3n(C([H])([H])[H])c2=O)c1[H]
     RDKit          3D

 66 70  0  0  0  0  0  0  0  0999 V2000
   -9.8002    0.0819    0.5033 C   0  0  0  0  0  0  0  0  0  0  0  0
   -8.9731   -0.9019    1.1665 N   0  0  0  0  0  0  0  0  0  0  0  0
   -7.9447   -0.2769    1.9751 C   0  0  0  0  0  0  0  0  0  0  0  0
   -6.8507    0.3203    1.1128 C   0  0  0  0  0  0  0  0  0  0  0  0
   -6.2048   -0.7939    0.4181 N   0  0  0  0  0  0  0  0  0  0  0  0
   -6.9278   -2.0209    0.4199 C   0  0  0  0  0  0  0  0  0  0  0  0
   -8.4122   -1.8158    0.1929 C   0  0  0  0  0  0  0  0  0  0  0  0
   -4.9419   -0.6586   -0.1848 C   0  0  0  0  0  0  0  0  0  0  0  0
   -4.5837   -1.4876   -1.2246 C   0  0  0  0  0  0  0  0  0  0  0  0
   -3.3346   -1.3674   -1.8198 C   0  0  0  0  0  0  0  0  0  0  0  0
   -2.3957   -0.4212   -1.4060 C   0  0  0  0  0  0  0  0  0  0  0  0
   -1.1514   -0.3289   -2.0787 N   0  0  0  0  0  0  0  0  0  0  0  0
    0.0613    0.0225   -1.4508 C   0  0  0  0  0  0  0  0  0  0  0  0
    0.1620    0.2752   -0.1391 N   0  0  0  0  0  0  0  0  0  0  0  0
    1.2914    0.6176    0.4820 C   0  0  0  0  0  0  0  0  0  0  0  0
    2.4485    0.7202   -0.3004 C   0  0  0  0  0  0  0  0  0  0  0  0
    3.6325    1.0798    0.2932 C   0  0  0  0  0  0  0  0  0  0  0  0
    4.7660    1.1860   -0.5135 C   0  0  0  0  0  0  0  0  0  0  0  0
    6.0388    1.6101    0.0373 C   0  0  0  0  0  0  0  0  0  0  0  0
    6.2620    2.9839    0.1590 C   0  0  0  0  0  0  0  0  0  0  0  0
    7.4312    3.4620    0.7317 C   0  0  0  0  0  0  0  0  0  0  0  0
    8.3608    2.5538    1.1751 C   0  0  0  0  0  0  0  0  0  0  0  0
    8.1320    1.1865    1.0490 C   0  0  0  0  0  0  0  0  0  0  0  0
    6.9713    0.6806    0.4780 C   0  0  0  0  0  0  0  0  0  0  0  0
    6.7793   -0.7034    0.2968 N   0  0  0  0  0  0  0  0  0  0  0  0
    7.2895   -1.8718    1.4159 S   0  0  0  0  0  0  0  0  0  0  0  0
    6.4990   -1.7025    3.0088 C   0  0  0  0  0  0  0  0  0  0  0  0
    8.7896   -1.7977    1.6741 O   0  0  0  0  0  0  0  0  0  0  0  0
    6.9743   -3.2777    0.9040 O   0  0  0  0  0  0  0  0  0  0  0  0
    4.6766    0.9324   -1.8607 C   0  0  0  0  0  0  0  0  0  0  0  0
    5.6620    1.0068   -2.6635 O   0  0  0  0  0  0  0  0  0  0  0  0
    3.4950    0.5802   -2.4085 N   0  0  0  0  0  0  0  0  0  0  0  0
    3.3825    0.3098   -3.8387 C   0  0  0  0  0  0  0  0  0  0  0  0
    2.3833    0.4698   -1.6544 C   0  0  0  0  0  0  0  0  0  0  0  0
    1.1963    0.1255   -2.2078 N   0  0  0  0  0  0  0  0  0  0  0  0
   -2.7870    0.3919   -0.3631 C   0  0  0  0  0  0  0  0  0  0  0  0
   -4.0329    0.2883    0.2477 C   0  0  0  0  0  0  0  0  0  0  0  0
  -10.1765    0.8337    1.2449 H   0  0  0  0  0  0  0  0  0  0  0  0
   -9.2664    0.6153   -0.2960 H   0  0  0  0  0  0  0  0  0  0  0  0
  -10.6994   -0.4696    0.1266 H   0  0  0  0  0  0  0  0  0  0  0  0
   -8.4086    0.5732    2.5182 H   0  0  0  0  0  0  0  0  0  0  0  0
   -7.4882   -0.9789    2.6802 H   0  0  0  0  0  0  0  0  0  0  0  0
   -7.3201    1.0264    0.4344 H   0  0  0  0  0  0  0  0  0  0  0  0
   -6.1359    0.8277    1.7543 H   0  0  0  0  0  0  0  0  0  0  0  0
   -6.5639   -2.6961   -0.3487 H   0  0  0  0  0  0  0  0  0  0  0  0
   -6.8183   -2.5754    1.3877 H   0  0  0  0  0  0  0  0  0  0  0  0
   -8.9087   -2.7929    0.3120 H   0  0  0  0  0  0  0  0  0  0  0  0
   -8.5533   -1.4666   -0.8432 H   0  0  0  0  0  0  0  0  0  0  0  0
   -5.2264   -2.2475   -1.6327 H   0  0  0  0  0  0  0  0  0  0  0  0
   -3.0487   -2.0133   -2.6357 H   0  0  0  0  0  0  0  0  0  0  0  0
   -1.1565   -0.5424   -3.1236 H   0  0  0  0  0  0  0  0  0  0  0  0
    1.3239    0.8121    1.5428 H   0  0  0  0  0  0  0  0  0  0  0  0
    3.7429    1.2857    1.3421 H   0  0  0  0  0  0  0  0  0  0  0  0
    5.5067    3.6720   -0.1995 H   0  0  0  0  0  0  0  0  0  0  0  0
    7.5634    4.5258    0.8084 H   0  0  0  0  0  0  0  0  0  0  0  0
    9.2719    2.9518    1.6202 H   0  0  0  0  0  0  0  0  0  0  0  0
    8.9146    0.5437    1.4159 H   0  0  0  0  0  0  0  0  0  0  0  0
    6.2945   -1.0189   -0.5867 H   0  0  0  0  0  0  0  0  0  0  0  0
    5.4854   -2.1803    2.9637 H   0  0  0  0  0  0  0  0  0  0  0  0
    7.1078   -2.3037    3.7084 H   0  0  0  0  0  0  0  0  0  0  0  0
    6.4664   -0.6476    3.3524 H   0  0  0  0  0  0  0  0  0  0  0  0
    2.3246    0.3898   -4.1712 H   0  0  0  0  0  0  0  0  0  0  0  0
    3.8153   -0.7002   -3.9996 H   0  0  0  0  0  0  0  0  0  0  0  0
    4.0236    1.0193   -4.3952 H   0  0  0  0  0  0  0  0  0  0  0  0
   -2.1082    1.1654   -0.0017 H   0  0  0  0  0  0  0  0  0  0  0  0
   -4.3070    0.9330    1.0562 H   0  0  0  0  0  0  0  0  0  0  0  0
  1  2  1  0
  2  3  1  0
  3  4  1  0
  4  5  1  0
  5  6  1  0
  6  7  1  0
  5  8  1  0
  8  9  2  0
  9 10  1  0
 10 11  2  0
 11 12  1  0
 12 13  1  0
 13 14  2  0
 14 15  1  0
 15 16  2  0
 16 17  1  0
 17 18  2  0
 18 19  1  0
 19 20  2  0
 20 21  1  0
 21 22  2  0
 22 23  1  0
 23 24  2  0
 24 25  1  0
 25 26  1  0
 26 27  1  0
 26 28  2  0
 26 29  2  0
 18 30  1  0
 30 31  2  0
 30 32  1  0
 32 33  1  0
 32 34  1  0
 34 35  2  0
 11 36  1  0
 36 37  2  0
  7  2  1  0
 37  8  1  0
 35 13  1  0
 34 16  1  0
 24 19  1  0
  1 38  1  0
  1 39  1  0
  1 40  1  0
  3 41  1  0
  3 42  1  0
  4 43  1  0
  4 44  1  0
  6 45  1  0
  6 46  1  0
  7 47  1  0
  7 48  1  0
  9 49  1  0
 10 50  1  0
 12 51  1  0
 15 52  1  0
 17 53  1  0
 20 54  1  0
 21 55  1  0
 22 56  1  0
 23 57  1  0
 25 58  1  0
 27 59  1  0
 27 60  1  0
 27 61  1  0
 33 62  1  0
 33 63  1  0
 33 64  1  0
 36 65  1  0
 37 66  1  0
M  END
$$$$
[H]c1nc(N([H])c2c([H])c([H])c(C(=O)OC([H])([H])[H])c([H])c2[H])nc(Sc2c([H])c([H])c([H])c([H])c2[H])c1-c1c([H])c([H])c2c(c1[H])C([H])([H])C(=O)N2[H]
     RDKit          3D

 54 58  0  0  0  0  0  0  0  0999 V2000
   10.0036   -0.5277   -0.7972 C   0  0  0  0  0  0  0  0  0  0  0  0
    8.7096   -0.0607   -0.4478 O   0  0  0  0  0  0  0  0  0  0  0  0
    7.6257   -0.9157   -0.3073 C   0  0  0  0  0  0  0  0  0  0  0  0
    7.8164   -2.1372   -0.4995 O   0  0  0  0  0  0  0  0  0  0  0  0
    6.2941   -0.4237    0.0537 C   0  0  0  0  0  0  0  0  0  0  0  0
    6.0429    0.9085    0.2731 C   0  0  0  0  0  0  0  0  0  0  0  0
    4.7804    1.3453    0.6113 C   0  0  0  0  0  0  0  0  0  0  0  0
    3.7047    0.4573    0.7455 C   0  0  0  0  0  0  0  0  0  0  0  0
    2.4663    0.9796    1.1166 N   0  0  0  0  0  0  0  0  0  0  0  0
    1.2152    0.4053    0.8704 C   0  0  0  0  0  0  0  0  0  0  0  0
    1.0359   -0.7250    0.2263 N   0  0  0  0  0  0  0  0  0  0  0  0
   -0.1747   -1.2603    0.0003 C   0  0  0  0  0  0  0  0  0  0  0  0
   -1.3063   -0.6202    0.4516 C   0  0  0  0  0  0  0  0  0  0  0  0
   -1.1363    0.5675    1.1294 C   0  0  0  0  0  0  0  0  0  0  0  0
   -2.5658    1.4459    1.7315 S   0  0  0  0  0  0  0  0  0  0  0  0
   -3.1026    2.5572    0.4432 C   0  0  0  0  0  0  0  0  0  0  0  0
   -4.0138    2.2072   -0.5249 C   0  0  0  0  0  0  0  0  0  0  0  0
   -4.4192    3.0940   -1.5239 C   0  0  0  0  0  0  0  0  0  0  0  0
   -3.8634    4.3551   -1.5046 C   0  0  0  0  0  0  0  0  0  0  0  0
   -2.9460    4.7441   -0.5499 C   0  0  0  0  0  0  0  0  0  0  0  0
   -2.5796    3.8294    0.4147 C   0  0  0  0  0  0  0  0  0  0  0  0
    0.1076    1.0469    1.3208 N   0  0  0  0  0  0  0  0  0  0  0  0
   -2.5939   -1.2438    0.1870 C   0  0  0  0  0  0  0  0  0  0  0  0
   -2.8076   -1.6865   -1.1215 C   0  0  0  0  0  0  0  0  0  0  0  0
   -3.9695   -2.2872   -1.4808 C   0  0  0  0  0  0  0  0  0  0  0  0
   -4.9602   -2.4628   -0.5287 C   0  0  0  0  0  0  0  0  0  0  0  0
   -6.2412   -3.0595   -0.6796 N   0  0  0  0  0  0  0  0  0  0  0  0
   -6.8757   -2.9993    0.5761 C   0  0  0  0  0  0  0  0  0  0  0  0
   -8.0450   -3.4379    0.8361 O   0  0  0  0  0  0  0  0  0  0  0  0
   -5.9746   -2.3506    1.5376 C   0  0  0  0  0  0  0  0  0  0  0  0
   -4.7644   -2.0334    0.7590 C   0  0  0  0  0  0  0  0  0  0  0  0
   -3.5643   -1.4134    1.1294 C   0  0  0  0  0  0  0  0  0  0  0  0
    3.9647   -0.8520    0.5277 C   0  0  0  0  0  0  0  0  0  0  0  0
    5.2585   -1.2969    0.1811 C   0  0  0  0  0  0  0  0  0  0  0  0
   10.6144    0.4034   -0.9802 H   0  0  0  0  0  0  0  0  0  0  0  0
    9.9452   -1.0369   -1.7693 H   0  0  0  0  0  0  0  0  0  0  0  0
   10.4740   -1.1097   -0.0044 H   0  0  0  0  0  0  0  0  0  0  0  0
    6.8697    1.6036    0.1714 H   0  0  0  0  0  0  0  0  0  0  0  0
    4.6485    2.4180    0.7721 H   0  0  0  0  0  0  0  0  0  0  0  0
    2.5083    1.9277    1.6533 H   0  0  0  0  0  0  0  0  0  0  0  0
   -0.2734   -2.1890   -0.5324 H   0  0  0  0  0  0  0  0  0  0  0  0
   -4.4280    1.2187   -0.5126 H   0  0  0  0  0  0  0  0  0  0  0  0
   -5.1486    2.7924   -2.2872 H   0  0  0  0  0  0  0  0  0  0  0  0
   -4.1574    5.0773   -2.2722 H   0  0  0  0  0  0  0  0  0  0  0  0
   -2.4981    5.7335   -0.5196 H   0  0  0  0  0  0  0  0  0  0  0  0
   -1.8649    4.1200    1.1653 H   0  0  0  0  0  0  0  0  0  0  0  0
   -2.0379   -1.5512   -1.8658 H   0  0  0  0  0  0  0  0  0  0  0  0
   -4.1288   -2.6276   -2.4952 H   0  0  0  0  0  0  0  0  0  0  0  0
   -6.6449   -3.4734   -1.5719 H   0  0  0  0  0  0  0  0  0  0  0  0
   -5.7632   -2.9967    2.4160 H   0  0  0  0  0  0  0  0  0  0  0  0
   -6.4524   -1.3842    1.8664 H   0  0  0  0  0  0  0  0  0  0  0  0
   -3.4124   -1.0825    2.1344 H   0  0  0  0  0  0  0  0  0  0  0  0
    3.2059   -1.6321    0.6228 H   0  0  0  0  0  0  0  0  0  0  0  0
    5.4227   -2.3611    0.0141 H   0  0  0  0  0  0  0  0  0  0  0  0
  1  2  1  0
  2  3  1  0
  3  4  2  0
  3  5  1  0
  5  6  2  0
  6  7  1  0
  7  8  2  0
  8  9  1  0
  9 10  1  0
 10 11  2  0
 11 12  1  0
 12 13  2  0
 13 14  1  0
 14 15  1  0
 15 16  1  0
 16 17  2  0
 17 18  1  0
 18 19  2  0
 19 20  1  0
 20 21  2  0
 14 22  2  0
 13 23  1  0
 23 24  2  0
 24 25  1  0
 25 26  2  0
 26 27  1  0
 27 28  1  0
 28 29  2  0
 28 30  1  0
 30 31  1  0
 31 32  2  0
  8 33  1  0
 33 34  2  0
 34  5  1  0
 22 10  1  0
 32 23  1  0
 21 16  1  0
 31 26  1  0
  1 35  1  0
  1 36  1  0
  1 37  1  0
  6 38  1  0
  7 39  1  0
  9 40  1  0
 12 41  1  0
 17 42  1  0
 18 43  1  0
 19 44  1  0
 20 45  1  0
 21 46  1  0
 24 47  1  0
 25 48  1  0
 27 49  1  0
 30 50  1  0
 30 51  1  0
 32 52  1  0
 33 53  1  0
 34 54  1  0
M  END
$$$$
[H]/C(=C(/[H])c1c([H])c([H])c(N([H])/C(=C2\C(=O)N([H])c3c([H])c(C(=O)OC([H])([H])[H])c([H])c([H])c32)c2nc([H])c([H])s2)c([H])c1N1C([H])([H])C([H])([H])N(C([H])([H])[H])C([H])([H])C1([H])[H])c1c([H])oc([H])c1[H]
     RDKit          3D

 70 75  0  0  0  0  0  0  0  0999 V2000
   10.7173    0.5175   -1.6485 C   0  0  0  0  0  0  0  0  0  0  0  0
    9.3220    0.5301   -1.3212 O   0  0  0  0  0  0  0  0  0  0  0  0
    8.7658   -0.4024   -0.5012 C   0  0  0  0  0  0  0  0  0  0  0  0
    9.5534   -1.2960   -0.0324 O   0  0  0  0  0  0  0  0  0  0  0  0
    7.3699   -0.5015   -0.0919 C   0  0  0  0  0  0  0  0  0  0  0  0
    6.4120    0.3807   -0.5102 C   0  0  0  0  0  0  0  0  0  0  0  0
    5.0692    0.2909   -0.1067 C   0  0  0  0  0  0  0  0  0  0  0  0
    4.6579   -0.7058    0.7424 C   0  0  0  0  0  0  0  0  0  0  0  0
    3.3627   -1.0496    1.3263 C   0  0  0  0  0  0  0  0  0  0  0  0
    2.1989   -0.4219    1.1931 C   0  0  0  0  0  0  0  0  0  0  0  0
    1.0920   -0.9690    1.8709 N   0  0  0  0  0  0  0  0  0  0  0  0
   -0.2057   -1.0658    1.3460 C   0  0  0  0  0  0  0  0  0  0  0  0
   -0.7128   -2.3643    1.2389 C   0  0  0  0  0  0  0  0  0  0  0  0
   -2.0106   -2.5064    0.8073 C   0  0  0  0  0  0  0  0  0  0  0  0
   -2.8308   -1.4678    0.4788 C   0  0  0  0  0  0  0  0  0  0  0  0
   -4.1966   -1.6379    0.0451 C   0  0  0  0  0  0  0  0  0  0  0  0
   -4.8279   -2.8036   -0.0310 C   0  0  0  0  0  0  0  0  0  0  0  0
   -6.2269   -2.8597   -0.4865 C   0  0  0  0  0  0  0  0  0  0  0  0
   -6.9456   -4.0412   -0.5758 C   0  0  0  0  0  0  0  0  0  0  0  0
   -8.1969   -3.6859   -1.0275 C   0  0  0  0  0  0  0  0  0  0  0  0
   -8.2117   -2.3987   -1.1907 O   0  0  0  0  0  0  0  0  0  0  0  0
   -7.0552   -1.8486   -0.8811 C   0  0  0  0  0  0  0  0  0  0  0  0
   -2.3059   -0.2007    0.5930 C   0  0  0  0  0  0  0  0  0  0  0  0
   -0.9960   -0.0049    1.0253 C   0  0  0  0  0  0  0  0  0  0  0  0
   -3.0471    0.9976    0.3429 N   0  0  0  0  0  0  0  0  0  0  0  0
   -4.0330    1.4075    1.3208 C   0  0  0  0  0  0  0  0  0  0  0  0
   -4.5514    2.8035    1.0855 C   0  0  0  0  0  0  0  0  0  0  0  0
   -4.9530    3.0403   -0.2615 N   0  0  0  0  0  0  0  0  0  0  0  0
   -4.8212    4.4789   -0.4950 C   0  0  0  0  0  0  0  0  0  0  0  0
   -4.1989    2.3568   -1.2573 C   0  0  0  0  0  0  0  0  0  0  0  0
   -2.8746    1.8213   -0.8313 C   0  0  0  0  0  0  0  0  0  0  0  0
    2.0534    0.8199    0.4363 C   0  0  0  0  0  0  0  0  0  0  0  0
    1.6044    1.0268   -0.7986 N   0  0  0  0  0  0  0  0  0  0  0  0
    1.4776    2.2277   -1.2452 C   0  0  0  0  0  0  0  0  0  0  0  0
    1.8134    3.2691   -0.4245 C   0  0  0  0  0  0  0  0  0  0  0  0
    2.3085    2.4510    0.9881 S   0  0  0  0  0  0  0  0  0  0  0  0
    3.6212   -2.2437    2.1448 C   0  0  0  0  0  0  0  0  0  0  0  0
    2.7784   -2.8684    2.8158 O   0  0  0  0  0  0  0  0  0  0  0  0
    4.9985   -2.5635    2.0365 N   0  0  0  0  0  0  0  0  0  0  0  0
    5.6308   -1.6242    1.1817 C   0  0  0  0  0  0  0  0  0  0  0  0
    6.9371   -1.4936    0.7562 C   0  0  0  0  0  0  0  0  0  0  0  0
   11.1500   -0.4833   -1.4404 H   0  0  0  0  0  0  0  0  0  0  0  0
   11.2552    1.3457   -1.1544 H   0  0  0  0  0  0  0  0  0  0  0  0
   10.7925    0.6664   -2.7393 H   0  0  0  0  0  0  0  0  0  0  0  0
    6.6619    1.2032   -1.1889 H   0  0  0  0  0  0  0  0  0  0  0  0
    4.3888    1.0013   -0.4909 H   0  0  0  0  0  0  0  0  0  0  0  0
    1.2016   -1.3116    2.8686 H   0  0  0  0  0  0  0  0  0  0  0  0
   -0.0935   -3.2321    1.4908 H   0  0  0  0  0  0  0  0  0  0  0  0
   -2.3606   -3.5486    0.7388 H   0  0  0  0  0  0  0  0  0  0  0  0
   -4.7901   -0.7828   -0.2626 H   0  0  0  0  0  0  0  0  0  0  0  0
   -4.3017   -3.7021    0.2463 H   0  0  0  0  0  0  0  0  0  0  0  0
   -6.5874   -5.0518   -0.3344 H   0  0  0  0  0  0  0  0  0  0  0  0
   -8.9911   -4.4023   -1.1979 H   0  0  0  0  0  0  0  0  0  0  0  0
   -6.7923   -0.8005   -0.9242 H   0  0  0  0  0  0  0  0  0  0  0  0
   -0.6111    1.0061    1.1243 H   0  0  0  0  0  0  0  0  0  0  0  0
   -3.4459    1.4813    2.2923 H   0  0  0  0  0  0  0  0  0  0  0  0
   -4.8222    0.6961    1.5330 H   0  0  0  0  0  0  0  0  0  0  0  0
   -3.8567    3.5962    1.4556 H   0  0  0  0  0  0  0  0  0  0  0  0
   -5.4602    2.9148    1.7378 H   0  0  0  0  0  0  0  0  0  0  0  0
   -4.8122    4.7324   -1.5547 H   0  0  0  0  0  0  0  0  0  0  0  0
   -5.6863    4.9425    0.0502 H   0  0  0  0  0  0  0  0  0  0  0  0
   -3.9148    4.8010    0.0584 H   0  0  0  0  0  0  0  0  0  0  0  0
   -4.0359    3.0147   -2.1620 H   0  0  0  0  0  0  0  0  0  0  0  0
   -4.8236    1.4923   -1.6167 H   0  0  0  0  0  0  0  0  0  0  0  0
   -2.1350    2.6178   -0.6960 H   0  0  0  0  0  0  0  0  0  0  0  0
   -2.5068    1.1836   -1.6835 H   0  0  0  0  0  0  0  0  0  0  0  0
    1.1066    2.4443   -2.2705 H   0  0  0  0  0  0  0  0  0  0  0  0
    1.7660    4.3522   -0.6485 H   0  0  0  0  0  0  0  0  0  0  0  0
    5.5022   -3.3549    2.4972 H   0  0  0  0  0  0  0  0  0  0  0  0
    7.6600   -2.2161    1.1135 H   0  0  0  0  0  0  0  0  0  0  0  0
  1  2  1  0
  2  3  1  0
  3  4  2  0
  3  5  1  0
  5  6  2  0
  6  7  1  0
  7  8  2  0
  8  9  1  0
  9 10  2  0
 10 11  1  0
 11 12  1  0
 12 13  2  0
 13 14  1  0
 14 15  2  0
 15 16  1  0
 16 17  2  0
 17 18  1  0
 18 19  1  0
 19 20  2  0
 20 21  1  0
 21 22  1  0
 15 23  1  0
 23 24  2  0
 23 25  1  0
 25 26  1  0
 26 27  1  0
 27 28  1  0
 28 29  1  0
 28 30  1  0
 30 31  1  0
 10 32  1  0
 32 33  2  0
 33 34  1  0
 34 35  2  0
 35 36  1  0
  9 37  1  0
 37 38  2  0
 37 39  1  0
 39 40  1  0
 40 41  2  0
 41  5  1  0
 40  8  1  0
 24 12  1  0
 31 25  1  0
 36 32  1  0
 22 18  2  0
  1 42  1  0
  1 43  1  0
  1 44  1  0
  6 45  1  0
  7 46  1  0
 11 47  1  0
 13 48  1  0
 14 49  1  0
 16 50  1  0
 17 51  1  0
 19 52  1  0
 20 53  1  0
 22 54  1  0
 24 55  1  0
 26 56  1  0
 26 57  1  0
 27 58  1  0
 27 59  1  0
 29 60  1  0
 29 61  1  0
 29 62  1  0
 30 63  1  0
 30 64  1  0
 31 65  1  0
 31 66  1  0
 34 67  1  0
 35 68  1  0
 39 69  1  0
 41 70  1  0
M  END
$$$$
[H]Oc1c([H])c([H])c(-c2c([H])c([H])c(C([H])([H])[H])c(C(c3c([H])n([H])c4nc([H])c(-c5c([H])c([H])c6c([H])c(C(=O)N([H])C([H])([H])[H])c([H])c([H])c6c5[H])c([H])c34)(C([H])([H])[H])C([H])([H])[H])c2[H])c(C([H])([H])C([H])([H])[H])c1[H]
     RDKit          3D

 77 82  0  0  0  0  0  0  0  0999 V2000
   -5.4831   -3.3949   -0.7492 C   0  0  0  0  0  0  0  0  0  0  0  0
   -5.0830   -2.3585   -1.7817 C   0  0  0  0  0  0  0  0  0  0  0  0
   -6.0537   -1.2399   -1.8366 C   0  0  0  0  0  0  0  0  0  0  0  0
   -6.9806   -1.1620   -2.8851 C   0  0  0  0  0  0  0  0  0  0  0  0
   -7.9255   -0.1712   -2.9874 C   0  0  0  0  0  0  0  0  0  0  0  0
   -8.8074   -0.1836   -4.0766 O   0  0  0  0  0  0  0  0  0  0  0  0
   -7.9818    0.8077   -2.0177 C   0  0  0  0  0  0  0  0  0  0  0  0
   -7.0740    0.7433   -0.9794 C   0  0  0  0  0  0  0  0  0  0  0  0
   -6.1185   -0.2608   -0.8793 C   0  0  0  0  0  0  0  0  0  0  0  0
   -5.1817   -0.2210    0.2485 C   0  0  0  0  0  0  0  0  0  0  0  0
   -5.6632   -0.2867    1.5388 C   0  0  0  0  0  0  0  0  0  0  0  0
   -4.8032   -0.2234    2.5954 C   0  0  0  0  0  0  0  0  0  0  0  0
   -3.4083   -0.0908    2.4566 C   0  0  0  0  0  0  0  0  0  0  0  0
   -2.5721   -0.1013    3.6710 C   0  0  0  0  0  0  0  0  0  0  0  0
   -2.9379   -0.0231    1.1645 C   0  0  0  0  0  0  0  0  0  0  0  0
   -3.8312   -0.0901    0.0840 C   0  0  0  0  0  0  0  0  0  0  0  0
   -1.4859    0.1842    0.9132 C   0  0  0  0  0  0  0  0  0  0  0  0
   -1.3130    0.2986   -0.6195 C   0  0  0  0  0  0  0  0  0  0  0  0
   -0.6780   -0.9970    1.3267 C   0  0  0  0  0  0  0  0  0  0  0  0
   -1.0530    1.4927    1.4215 C   0  0  0  0  0  0  0  0  0  0  0  0
   -1.8750    2.4911    1.8931 C   0  0  0  0  0  0  0  0  0  0  0  0
   -1.1335    3.5838    2.1817 N   0  0  0  0  0  0  0  0  0  0  0  0
    0.1605    3.3305    1.9107 C   0  0  0  0  0  0  0  0  0  0  0  0
    1.2883    4.1030    2.0314 N   0  0  0  0  0  0  0  0  0  0  0  0
    2.5039    3.6011    1.6831 C   0  0  0  0  0  0  0  0  0  0  0  0
    2.6085    2.3199    1.2094 C   0  0  0  0  0  0  0  0  0  0  0  0
    1.4462    1.5538    1.0959 C   0  0  0  0  0  0  0  0  0  0  0  0
    0.2181    2.0443    1.4418 C   0  0  0  0  0  0  0  0  0  0  0  0
    3.8759    1.7346    0.8257 C   0  0  0  0  0  0  0  0  0  0  0  0
    5.0801    2.0639    1.4391 C   0  0  0  0  0  0  0  0  0  0  0  0
    6.2726    1.4888    1.0513 C   0  0  0  0  0  0  0  0  0  0  0  0
    6.2956    0.5651    0.0359 C   0  0  0  0  0  0  0  0  0  0  0  0
    7.4839   -0.0437   -0.3902 C   0  0  0  0  0  0  0  0  0  0  0  0
    7.5319   -0.9615   -1.3942 C   0  0  0  0  0  0  0  0  0  0  0  0
    6.3511   -1.2991   -2.0120 C   0  0  0  0  0  0  0  0  0  0  0  0
    5.1756   -0.7171   -1.6128 C   0  0  0  0  0  0  0  0  0  0  0  0
    5.1417    0.2082   -0.5975 C   0  0  0  0  0  0  0  0  0  0  0  0
    3.9428    0.8013   -0.1912 C   0  0  0  0  0  0  0  0  0  0  0  0
    8.7896   -1.5563   -1.7893 C   0  0  0  0  0  0  0  0  0  0  0  0
    8.7472   -2.3728   -2.7620 O   0  0  0  0  0  0  0  0  0  0  0  0
   10.0322   -1.2991   -1.1834 N   0  0  0  0  0  0  0  0  0  0  0  0
   11.2206   -1.9535   -1.6652 C   0  0  0  0  0  0  0  0  0  0  0  0
   -6.4718   -3.1797   -0.3363 H   0  0  0  0  0  0  0  0  0  0  0  0
   -4.6756   -3.4043    0.0327 H   0  0  0  0  0  0  0  0  0  0  0  0
   -5.5065   -4.4287   -1.1502 H   0  0  0  0  0  0  0  0  0  0  0  0
   -5.1790   -2.9072   -2.7691 H   0  0  0  0  0  0  0  0  0  0  0  0
   -4.0275   -2.0710   -1.7473 H   0  0  0  0  0  0  0  0  0  0  0  0
   -6.9246   -1.9518   -3.6544 H   0  0  0  0  0  0  0  0  0  0  0  0
   -9.6830   -0.7004   -3.9453 H   0  0  0  0  0  0  0  0  0  0  0  0
   -8.7254    1.5964   -2.0879 H   0  0  0  0  0  0  0  0  0  0  0  0
   -7.1289    1.5279   -0.2144 H   0  0  0  0  0  0  0  0  0  0  0  0
   -6.7339   -0.3896    1.7099 H   0  0  0  0  0  0  0  0  0  0  0  0
   -5.1644   -0.2738    3.6391 H   0  0  0  0  0  0  0  0  0  0  0  0
   -2.9197    0.7879    4.2860 H   0  0  0  0  0  0  0  0  0  0  0  0
   -2.8774   -0.9622    4.3555 H   0  0  0  0  0  0  0  0  0  0  0  0
   -1.5142   -0.0175    3.5724 H   0  0  0  0  0  0  0  0  0  0  0  0
   -3.4401   -0.0176   -0.9267 H   0  0  0  0  0  0  0  0  0  0  0  0
   -1.8746    1.1825   -0.9689 H   0  0  0  0  0  0  0  0  0  0  0  0
   -0.2509    0.5212   -0.8628 H   0  0  0  0  0  0  0  0  0  0  0  0
   -1.5719   -0.6239   -1.1337 H   0  0  0  0  0  0  0  0  0  0  0  0
    0.1086   -0.8189    2.0668 H   0  0  0  0  0  0  0  0  0  0  0  0
   -1.4071   -1.7724    1.7194 H   0  0  0  0  0  0  0  0  0  0  0  0
   -0.2268   -1.5114    0.4485 H   0  0  0  0  0  0  0  0  0  0  0  0
   -2.9697    2.4737    2.0256 H   0  0  0  0  0  0  0  0  0  0  0  0
   -1.4826    4.5044    2.5602 H   0  0  0  0  0  0  0  0  0  0  0  0
    3.4157    4.1817    1.7649 H   0  0  0  0  0  0  0  0  0  0  0  0
    1.4891    0.5377    0.7263 H   0  0  0  0  0  0  0  0  0  0  0  0
    5.0374    2.7964    2.2388 H   0  0  0  0  0  0  0  0  0  0  0  0
    7.2096    1.7455    1.5289 H   0  0  0  0  0  0  0  0  0  0  0  0
    8.3766    0.2536    0.1233 H   0  0  0  0  0  0  0  0  0  0  0  0
    6.3883   -2.0393   -2.8220 H   0  0  0  0  0  0  0  0  0  0  0  0
    4.2527   -0.9807   -2.0957 H   0  0  0  0  0  0  0  0  0  0  0  0
    3.0460    0.5161   -0.6924 H   0  0  0  0  0  0  0  0  0  0  0  0
   10.1176   -0.6231   -0.3649 H   0  0  0  0  0  0  0  0  0  0  0  0
   11.6561   -2.6503   -0.9133 H   0  0  0  0  0  0  0  0  0  0  0  0
   10.9675   -2.5264   -2.5694 H   0  0  0  0  0  0  0  0  0  0  0  0
   11.9675   -1.1836   -1.9933 H   0  0  0  0  0  0  0  0  0  0  0  0
  1  2  1  0
  2  3  1  0
  3  4  2  0
  4  5  1  0
  5  6  1  0
  5  7  2  0
  7  8  1  0
  8  9  2  0
  9 10  1  0
 10 11  2  0
 11 12  1  0
 12 13  2  0
 13 14  1  0
 13 15  1  0
 15 16  2  0
 15 17  1  0
 17 18  1  0
 17 19  1  0
 17 20  1  0
 20 21  2  0
 21 22  1  0
 22 23  1  0
 23 24  2  0
 24 25  1  0
 25 26  2  0
 26 27  1  0
 27 28  2  0
 26 29  1  0
 29 30  2  0
 30 31  1  0
 31 32  2  0
 32 33  1  0
 33 34  2  0
 34 35  1  0
 35 36  2  0
 36 37  1  0
 37 38  2  0
 34 39  1  0
 39 40  2  0
 39 41  1  0
 41 42  1  0
  9  3  1  0
 16 10  1  0
 28 20  1  0
 38 29  1  0
 28 23  1  0
 37 32  1  0
  1 43  1  0
  1 44  1  0
  1 45  1  0
  2 46  1  0
  2 47  1  0
  4 48  1  0
  6 49  1  0
  7 50  1  0
  8 51  1  0
 11 52  1  0
 12 53  1  0
 14 54  1  0
 14 55  1  0
 14 56  1  0
 16 57  1  0
 18 58  1  0
 18 59  1  0
 18 60  1  0
 19 61  1  0
 19 62  1  0
 19 63  1  0
 21 64  1  0
 22 65  1  0
 25 66  1  0
 27 67  1  0
 30 68  1  0
 31 69  1  0
 33 70  1  0
 35 71  1  0
 36 72  1  0
 38 73  1  0
 41 74  1  0
 42 75  1  0
 42 76  1  0
 42 77  1  0
M  END
$$$$
[H]OC([H])(C([H])([H])N([H])c1nc([H])c([H])c2c(OC([H])([H])[H])c(N([H])c3nc([H])c4c([H])nn(C5([H])C([H])([H])C([H])([H])C([H])([H])C5([H])[H])c4n3)c([H])c([H])c12)C([H])([H])N1C([H])([H])C([H])([H])OC([H])([H])C1([H])[H]
     RDKit          3D

 72 77  0  0  0  0  0  0  0  0999 V2000
    2.3356   -3.5654    1.3050 C   0  0  0  0  0  0  0  0  0  0  0  0
    1.8163   -2.9995    0.1318 O   0  0  0  0  0  0  0  0  0  0  0  0
    0.9824   -1.8972    0.1175 C   0  0  0  0  0  0  0  0  0  0  0  0
    1.5572   -0.6005    0.0317 C   0  0  0  0  0  0  0  0  0  0  0  0
    2.9489   -0.4973   -0.0277 N   0  0  0  0  0  0  0  0  0  0  0  0
    3.6954    0.6899   -0.1618 C   0  0  0  0  0  0  0  0  0  0  0  0
    3.2148    1.9269   -0.2602 N   0  0  0  0  0  0  0  0  0  0  0  0
    3.9696    3.0251   -0.3885 C   0  0  0  0  0  0  0  0  0  0  0  0
    5.3598    2.9083   -0.4257 C   0  0  0  0  0  0  0  0  0  0  0  0
    6.4079    3.7638   -0.5419 C   0  0  0  0  0  0  0  0  0  0  0  0
    7.5310    3.0409   -0.5133 N   0  0  0  0  0  0  0  0  0  0  0  0
    7.2509    1.7663   -0.3845 N   0  0  0  0  0  0  0  0  0  0  0  0
    8.1391    0.6284   -0.3043 C   0  0  0  0  0  0  0  0  0  0  0  0
    9.5753    0.9950   -0.4522 C   0  0  0  0  0  0  0  0  0  0  0  0
   10.2860   -0.1447    0.2433 C   0  0  0  0  0  0  0  0  0  0  0  0
    9.3894   -0.2952    1.4813 C   0  0  0  0  0  0  0  0  0  0  0  0
    7.9742   -0.1752    0.9286 C   0  0  0  0  0  0  0  0  0  0  0  0
    5.8910    1.6462   -0.3264 C   0  0  0  0  0  0  0  0  0  0  0  0
    5.0689    0.6145   -0.2021 N   0  0  0  0  0  0  0  0  0  0  0  0
    0.6450    0.4077    0.0253 C   0  0  0  0  0  0  0  0  0  0  0  0
   -0.7438    0.2324    0.0949 C   0  0  0  0  0  0  0  0  0  0  0  0
   -1.2553   -1.0418    0.1767 C   0  0  0  0  0  0  0  0  0  0  0  0
   -2.6138   -1.2371    0.2446 C   0  0  0  0  0  0  0  0  0  0  0  0
   -3.5616   -0.1847    0.2418 N   0  0  0  0  0  0  0  0  0  0  0  0
   -4.9798   -0.5290    0.3142 C   0  0  0  0  0  0  0  0  0  0  0  0
   -5.7835    0.7546    0.3157 C   0  0  0  0  0  0  0  0  0  0  0  0
   -5.5281    1.4722   -0.8325 O   0  0  0  0  0  0  0  0  0  0  0  0
   -7.2460    0.5151    0.4660 C   0  0  0  0  0  0  0  0  0  0  0  0
   -7.8827   -0.2092   -0.5803 N   0  0  0  0  0  0  0  0  0  0  0  0
   -9.2654   -0.4578   -0.1550 C   0  0  0  0  0  0  0  0  0  0  0  0
  -10.2438    0.5292   -0.6874 C   0  0  0  0  0  0  0  0  0  0  0  0
   -9.7385    1.8015   -0.8313 O   0  0  0  0  0  0  0  0  0  0  0  0
   -8.6674    1.8428   -1.7269 C   0  0  0  0  0  0  0  0  0  0  0  0
   -7.9997    0.5054   -1.8377 C   0  0  0  0  0  0  0  0  0  0  0  0
   -3.0502   -2.5309    0.3221 N   0  0  0  0  0  0  0  0  0  0  0  0
   -2.2434   -3.5889    0.3355 C   0  0  0  0  0  0  0  0  0  0  0  0
   -0.8830   -3.3858    0.2675 C   0  0  0  0  0  0  0  0  0  0  0  0
   -0.3633   -2.1065    0.1867 C   0  0  0  0  0  0  0  0  0  0  0  0
    2.9942   -4.4265    1.0153 H   0  0  0  0  0  0  0  0  0  0  0  0
    2.9703   -2.8525    1.8858 H   0  0  0  0  0  0  0  0  0  0  0  0
    1.5446   -3.9472    1.9850 H   0  0  0  0  0  0  0  0  0  0  0  0
    3.5316   -1.3894    0.0341 H   0  0  0  0  0  0  0  0  0  0  0  0
    3.5782    4.0207   -0.4670 H   0  0  0  0  0  0  0  0  0  0  0  0
    6.2908    4.8479   -0.6388 H   0  0  0  0  0  0  0  0  0  0  0  0
    7.8693   -0.0334   -1.1805 H   0  0  0  0  0  0  0  0  0  0  0  0
    9.8729    0.9323   -1.5353 H   0  0  0  0  0  0  0  0  0  0  0  0
    9.8277    1.9880   -0.0285 H   0  0  0  0  0  0  0  0  0  0  0  0
   11.3128    0.0877    0.5296 H   0  0  0  0  0  0  0  0  0  0  0  0
   10.1826   -1.0445   -0.4034 H   0  0  0  0  0  0  0  0  0  0  0  0
    9.6058   -1.3060    1.8799 H   0  0  0  0  0  0  0  0  0  0  0  0
    9.6258    0.5091    2.1892 H   0  0  0  0  0  0  0  0  0  0  0  0
    7.2752    0.2301    1.6651 H   0  0  0  0  0  0  0  0  0  0  0  0
    7.6354   -1.2253    0.7176 H   0  0  0  0  0  0  0  0  0  0  0  0
    0.9525    1.4221   -0.0323 H   0  0  0  0  0  0  0  0  0  0  0  0
   -1.3919    1.1100    0.0832 H   0  0  0  0  0  0  0  0  0  0  0  0
   -3.2645    0.7956    0.1910 H   0  0  0  0  0  0  0  0  0  0  0  0
   -5.1553   -1.0736    1.2835 H   0  0  0  0  0  0  0  0  0  0  0  0
   -5.2913   -1.2125   -0.4900 H   0  0  0  0  0  0  0  0  0  0  0  0
   -5.4121    1.3198    1.2212 H   0  0  0  0  0  0  0  0  0  0  0  0
   -4.8948    0.9766   -1.3990 H   0  0  0  0  0  0  0  0  0  0  0  0
   -7.3918   -0.0482    1.4175 H   0  0  0  0  0  0  0  0  0  0  0  0
   -7.7130    1.5154    0.6562 H   0  0  0  0  0  0  0  0  0  0  0  0
   -9.5947   -1.4709   -0.5005 H   0  0  0  0  0  0  0  0  0  0  0  0
   -9.3055   -0.4741    0.9459 H   0  0  0  0  0  0  0  0  0  0  0  0
  -11.1215    0.5877   -0.0055 H   0  0  0  0  0  0  0  0  0  0  0  0
  -10.6135    0.2147   -1.7030 H   0  0  0  0  0  0  0  0  0  0  0  0
   -8.0150    2.6877   -1.4975 H   0  0  0  0  0  0  0  0  0  0  0  0
   -9.1517    2.0721   -2.7256 H   0  0  0  0  0  0  0  0  0  0  0  0
   -7.0901    0.5324   -2.4385 H   0  0  0  0  0  0  0  0  0  0  0  0
   -8.7192   -0.1306   -2.4474 H   0  0  0  0  0  0  0  0  0  0  0  0
   -2.6897   -4.5848    0.4000 H   0  0  0  0  0  0  0  0  0  0  0  0
   -0.2436   -4.2495    0.2797 H   0  0  0  0  0  0  0  0  0  0  0  0
  1  2  1  0
  2  3  1  0
  3  4  2  0
  4  5  1  0
  5  6  1  0
  6  7  2  0
  7  8  1  0
  8  9  2  0
  9 10  1  0
 10 11  2  0
 11 12  1  0
 12 13  1  0
 13 14  1  0
 14 15  1  0
 15 16  1  0
 16 17  1  0
 12 18  1  0
 18 19  2  0
  4 20  1  0
 20 21  2  0
 21 22  1  0
 22 23  2  0
 23 24  1  0
 24 25  1  0
 25 26  1  0
 26 27  1  0
 26 28  1  0
 28 29  1  0
 29 30  1  0
 30 31  1  0
 31 32  1  0
 32 33  1  0
 33 34  1  0
 23 35  1  0
 35 36  2  0
 36 37  1  0
 37 38  2  0
 38  3  1  0
 19  6  1  0
 38 22  1  0
 18  9  1  0
 34 29  1  0
 17 13  1  0
  1 39  1  0
  1 40  1  0
  1 41  1  0
  5 42  1  0
  8 43  1  0
 10 44  1  0
 13 45  1  0
 14 46  1  0
 14 47  1  0
 15 48  1  0
 15 49  1  0
 16 50  1  0
 16 51  1  0
 17 52  1  0
 17 53  1  0
 20 54  1  0
 21 55  1  0
 24 56  1  0
 25 57  1  0
 25 58  1  0
 26 59  1  0
 27 60  1  0
 28 61  1  0
 28 62  1  0
 30 63  1  0
 30 64  1  0
 31 65  1  0
 31 66  1  0
 33 67  1  0
 33 68  1  0
 34 69  1  0
 34 70  1  0
 36 71  1  0
 37 72  1  0
M  END
$$$$
[H]c1oc2c([H])c([H])c(C(=O)N([H])C([H])([H])C3(C#N)C([H])([H])C3([H])[H])c([H])c2c1-c1c([H])c([H])c(C([H])([H])N2C([H])([H])C([H])([H])N(C(=O)C([H])([H])[H])C([H])([H])C2([H])[H])c([H])c1[H]
     RDKit          3D

 62 66  0  0  0  0  0  0  0  0999 V2000
    8.0894    1.0696    2.4727 C   0  0  0  0  0  0  0  0  0  0  0  0
    6.8578    1.5725    1.8212 C   0  0  0  0  0  0  0  0  0  0  0  0
    6.2988    2.6306    2.2392 O   0  0  0  0  0  0  0  0  0  0  0  0
    6.2829    0.8892    0.7275 N   0  0  0  0  0  0  0  0  0  0  0  0
    5.0796    1.3562    0.0681 C   0  0  0  0  0  0  0  0  0  0  0  0
    4.1142    0.2212    0.0278 C   0  0  0  0  0  0  0  0  0  0  0  0
    4.6250   -1.0006   -0.4642 N   0  0  0  0  0  0  0  0  0  0  0  0
    3.8429   -2.1535   -0.1805 C   0  0  0  0  0  0  0  0  0  0  0  0
    2.4800   -1.9909   -0.7934 C   0  0  0  0  0  0  0  0  0  0  0  0
    2.4248   -1.5248   -2.1117 C   0  0  0  0  0  0  0  0  0  0  0  0
    1.1799   -1.3772   -2.6714 C   0  0  0  0  0  0  0  0  0  0  0  0
    0.0278   -1.6710   -1.9781 C   0  0  0  0  0  0  0  0  0  0  0  0
    0.0742   -2.1299   -0.6811 C   0  0  0  0  0  0  0  0  0  0  0  0
    1.3237   -2.2839   -0.1027 C   0  0  0  0  0  0  0  0  0  0  0  0
   -1.2499   -1.4777   -2.6819 C   0  0  0  0  0  0  0  0  0  0  0  0
   -1.5707   -1.8776   -3.9615 C   0  0  0  0  0  0  0  0  0  0  0  0
   -2.7881   -1.5316   -4.2294 O   0  0  0  0  0  0  0  0  0  0  0  0
   -3.3417   -0.9078   -3.2032 C   0  0  0  0  0  0  0  0  0  0  0  0
   -4.5878   -0.3595   -3.0003 C   0  0  0  0  0  0  0  0  0  0  0  0
   -4.8670    0.2457   -1.7681 C   0  0  0  0  0  0  0  0  0  0  0  0
   -3.9248    0.2984   -0.7711 C   0  0  0  0  0  0  0  0  0  0  0  0
   -2.6619   -0.2617   -0.9878 C   0  0  0  0  0  0  0  0  0  0  0  0
   -2.3984   -0.8506   -2.1947 C   0  0  0  0  0  0  0  0  0  0  0  0
   -4.1545    0.9041    0.5270 C   0  0  0  0  0  0  0  0  0  0  0  0
   -3.1672    1.1011    1.3102 O   0  0  0  0  0  0  0  0  0  0  0  0
   -5.4660    1.2677    0.9090 N   0  0  0  0  0  0  0  0  0  0  0  0
   -5.6911    1.8818    2.2253 C   0  0  0  0  0  0  0  0  0  0  0  0
   -7.1715    2.1622    2.3540 C   0  0  0  0  0  0  0  0  0  0  0  0
   -8.0426    0.9553    2.2560 C   0  0  0  0  0  0  0  0  0  0  0  0
   -7.9463    1.7176    3.5181 C   0  0  0  0  0  0  0  0  0  0  0  0
   -7.6518    3.3484    1.6064 C   0  0  0  0  0  0  0  0  0  0  0  0
   -8.0365    4.2547    1.0265 N   0  0  0  0  0  0  0  0  0  0  0  0
    6.0140   -1.1638   -0.5960 C   0  0  0  0  0  0  0  0  0  0  0  0
    6.8951   -0.3093    0.2376 C   0  0  0  0  0  0  0  0  0  0  0  0
    8.9012    0.9201    1.7255 H   0  0  0  0  0  0  0  0  0  0  0  0
    8.3883    1.7790    3.2714 H   0  0  0  0  0  0  0  0  0  0  0  0
    7.9168    0.0924    2.9456 H   0  0  0  0  0  0  0  0  0  0  0  0
    5.2795    1.6688   -0.9859 H   0  0  0  0  0  0  0  0  0  0  0  0
    4.6172    2.1911    0.6371 H   0  0  0  0  0  0  0  0  0  0  0  0
    3.2608    0.5449   -0.6378 H   0  0  0  0  0  0  0  0  0  0  0  0
    3.6163    0.0712    1.0302 H   0  0  0  0  0  0  0  0  0  0  0  0
    4.3088   -3.1055   -0.4218 H   0  0  0  0  0  0  0  0  0  0  0  0
    3.6509   -2.1722    0.9324 H   0  0  0  0  0  0  0  0  0  0  0  0
    3.3496   -1.2989   -2.6409 H   0  0  0  0  0  0  0  0  0  0  0  0
    1.1616   -1.0115   -3.7036 H   0  0  0  0  0  0  0  0  0  0  0  0
   -0.8389   -2.3673   -0.1243 H   0  0  0  0  0  0  0  0  0  0  0  0
    1.3758   -2.6471    0.9255 H   0  0  0  0  0  0  0  0  0  0  0  0
   -0.8677   -2.4085   -4.6217 H   0  0  0  0  0  0  0  0  0  0  0  0
   -5.3525   -0.3823   -3.7603 H   0  0  0  0  0  0  0  0  0  0  0  0
   -5.8370    0.6860   -1.5877 H   0  0  0  0  0  0  0  0  0  0  0  0
   -1.9000   -0.2296   -0.2129 H   0  0  0  0  0  0  0  0  0  0  0  0
   -6.2643    1.1045    0.2775 H   0  0  0  0  0  0  0  0  0  0  0  0
   -5.3515    1.1685    2.9988 H   0  0  0  0  0  0  0  0  0  0  0  0
   -5.1432    2.8298    2.3325 H   0  0  0  0  0  0  0  0  0  0  0  0
   -8.9466    1.0231    1.6222 H   0  0  0  0  0  0  0  0  0  0  0  0
   -7.5983   -0.0700    2.2654 H   0  0  0  0  0  0  0  0  0  0  0  0
   -7.4688    1.2924    4.4139 H   0  0  0  0  0  0  0  0  0  0  0  0
   -8.8561    2.3214    3.7784 H   0  0  0  0  0  0  0  0  0  0  0  0
    6.2672   -1.0714   -1.6934 H   0  0  0  0  0  0  0  0  0  0  0  0
    6.2835   -2.2368   -0.3635 H   0  0  0  0  0  0  0  0  0  0  0  0
    7.3958   -0.8893    1.0604 H   0  0  0  0  0  0  0  0  0  0  0  0
    7.7592    0.0215   -0.4128 H   0  0  0  0  0  0  0  0  0  0  0  0
  1  2  1  0
  2  3  2  0
  2  4  1  0
  4  5  1  0
  5  6  1  0
  6  7  1  0
  7  8  1  0
  8  9  1  0
  9 10  2  0
 10 11  1  0
 11 12  2  0
 12 13  1  0
 13 14  2  0
 12 15  1  0
 15 16  2  0
 16 17  1  0
 17 18  1  0
 18 19  2  0
 19 20  1  0
 20 21  2  0
 21 22  1  0
 22 23  2  0
 21 24  1  0
 24 25  2  0
 24 26  1  0
 26 27  1  0
 27 28  1  0
 28 29  1  0
 29 30  1  0
 28 31  1  0
 31 32  3  0
  7 33  1  0
 33 34  1  0
 34  4  1  0
 14  9  1  0
 23 15  1  0
 30 28  1  0
 23 18  1  0
  1 35  1  0
  1 36  1  0
  1 37  1  0
  5 38  1  0
  5 39  1  0
  6 40  1  0
  6 41  1  0
  8 42  1  0
  8 43  1  0
 10 44  1  0
 11 45  1  0
 13 46  1  0
 14 47  1  0
 16 48  1  0
 19 49  1  0
 20 50  1  0
 22 51  1  0
 26 52  1  0
 27 53  1  0
 27 54  1  0
 29 55  1  0
 29 56  1  0
 30 57  1  0
 30 58  1  0
 33 59  1  0
 33 60  1  0
 34 61  1  0
 34 62  1  0
M  END
$$$$
[H]c1nc2c([H])c(OC([H])([H])C([H])([H])C([H])([H])N3C([H])([H])C([H])([H])N(C([H])([H])[H])C([H])([H])C3([H])[H])c(OC([H])([H])[H])c([H])c2c(N([H])[C@@]2([H])C([H])([H])[C@@]([H])(C([H])([H])C([H])([H])[H])C2(C([H])([H])[H])C([H])([H])[H])c1C#N
     RDKit          3D

 73 76  0  0  0  0  0  0  0  0999 V2000
   -8.0888    0.6050    2.0201 C   0  0  0  0  0  0  0  0  0  0  0  0
   -7.6147   -0.6625    1.2986 C   0  0  0  0  0  0  0  0  0  0  0  0
   -6.1251   -0.7106    1.3754 C   0  0  2  0  0  0  0  0  0  0  0  0
   -5.4359    0.5076    0.7164 C   0  0  0  0  0  0  0  0  0  0  0  0
   -4.3417   -0.4510    0.3433 C   0  0  2  0  0  0  0  0  0  0  0  0
   -3.5802   -0.2448   -0.8289 N   0  0  0  0  0  0  0  0  0  0  0  0
   -2.7307    0.8415   -1.0742 C   0  0  0  0  0  0  0  0  0  0  0  0
   -3.1700    1.9270   -1.7798 C   0  0  0  0  0  0  0  0  0  0  0  0
   -2.2751    2.9853   -1.9714 C   0  0  0  0  0  0  0  0  0  0  0  0
   -1.0355    2.9236   -1.4765 N   0  0  0  0  0  0  0  0  0  0  0  0
   -0.6043    1.8401   -0.7760 C   0  0  0  0  0  0  0  0  0  0  0  0
    0.6923    1.8231   -0.2844 C   0  0  0  0  0  0  0  0  0  0  0  0
    1.1967    0.7649    0.4278 C   0  0  0  0  0  0  0  0  0  0  0  0
    2.4572    0.6924    0.9289 O   0  0  0  0  0  0  0  0  0  0  0  0
    3.5476    1.5006    0.8946 C   0  0  0  0  0  0  0  0  0  0  0  0
    4.1802    1.7795   -0.4356 C   0  0  0  0  0  0  0  0  0  0  0  0
    4.6658    0.5467   -1.1309 C   0  0  0  0  0  0  0  0  0  0  0  0
    5.6573   -0.2054   -0.4508 N   0  0  0  0  0  0  0  0  0  0  0  0
    6.0572   -1.4044   -1.1430 C   0  0  0  0  0  0  0  0  0  0  0  0
    7.4810   -1.2815   -1.5800 C   0  0  0  0  0  0  0  0  0  0  0  0
    8.4011   -1.1916   -0.4605 N   0  0  0  0  0  0  0  0  0  0  0  0
    8.6166   -2.5434    0.0777 C   0  0  0  0  0  0  0  0  0  0  0  0
    7.8611   -0.3598    0.5992 C   0  0  0  0  0  0  0  0  0  0  0  0
    6.7507    0.5351    0.0874 C   0  0  0  0  0  0  0  0  0  0  0  0
    0.3060   -0.3173    0.6338 C   0  0  0  0  0  0  0  0  0  0  0  0
    0.8260   -1.3820    1.3561 O   0  0  0  0  0  0  0  0  0  0  0  0
   -0.0103   -2.4940    1.5974 C   0  0  0  0  0  0  0  0  0  0  0  0
   -0.9735   -0.3157    0.1567 C   0  0  0  0  0  0  0  0  0  0  0  0
   -1.4358    0.7702   -0.5544 C   0  0  0  0  0  0  0  0  0  0  0  0
   -4.4852    2.0344   -2.3516 C   0  0  0  0  0  0  0  0  0  0  0  0
   -5.5361    2.1008   -2.7983 N   0  0  0  0  0  0  0  0  0  0  0  0
   -5.4372   -1.5240    0.2699 C   0  0  0  0  0  0  0  0  0  0  0  0
   -4.9682   -2.8847    0.7092 C   0  0  0  0  0  0  0  0  0  0  0  0
   -6.1464   -1.5505   -1.0418 C   0  0  0  0  0  0  0  0  0  0  0  0
   -7.6075    0.6723    3.0289 H   0  0  0  0  0  0  0  0  0  0  0  0
   -9.1932    0.5843    2.1632 H   0  0  0  0  0  0  0  0  0  0  0  0
   -7.7564    1.5124    1.4655 H   0  0  0  0  0  0  0  0  0  0  0  0
   -8.0610   -1.5008    1.8686 H   0  0  0  0  0  0  0  0  0  0  0  0
   -7.9873   -0.5848    0.2767 H   0  0  0  0  0  0  0  0  0  0  0  0
   -5.6880   -0.9013    2.3547 H   0  0  0  0  0  0  0  0  0  0  0  0
   -6.1280    0.8408   -0.0755 H   0  0  0  0  0  0  0  0  0  0  0  0
   -5.1490    1.2779    1.4609 H   0  0  0  0  0  0  0  0  0  0  0  0
   -3.7454   -0.6684    1.2741 H   0  0  0  0  0  0  0  0  0  0  0  0
   -3.6462   -0.9695   -1.6044 H   0  0  0  0  0  0  0  0  0  0  0  0
   -2.6150    3.8456   -2.5270 H   0  0  0  0  0  0  0  0  0  0  0  0
    1.3196    2.6852   -0.4572 H   0  0  0  0  0  0  0  0  0  0  0  0
    3.2210    2.5230    1.2810 H   0  0  0  0  0  0  0  0  0  0  0  0
    4.3021    1.1777    1.6568 H   0  0  0  0  0  0  0  0  0  0  0  0
    3.4431    2.2452   -1.1000 H   0  0  0  0  0  0  0  0  0  0  0  0
    4.9957    2.5542   -0.3503 H   0  0  0  0  0  0  0  0  0  0  0  0
    5.0596    0.8440   -2.1251 H   0  0  0  0  0  0  0  0  0  0  0  0
    3.7808   -0.0936   -1.3267 H   0  0  0  0  0  0  0  0  0  0  0  0
    5.4320   -1.4706   -2.0604 H   0  0  0  0  0  0  0  0  0  0  0  0
    5.8842   -2.3261   -0.5640 H   0  0  0  0  0  0  0  0  0  0  0  0
    7.7532   -2.2212   -2.1253 H   0  0  0  0  0  0  0  0  0  0  0  0
    7.6263   -0.4073   -2.2187 H   0  0  0  0  0  0  0  0  0  0  0  0
    8.0144   -3.2641   -0.4858 H   0  0  0  0  0  0  0  0  0  0  0  0
    8.3080   -2.6027    1.1379 H   0  0  0  0  0  0  0  0  0  0  0  0
    9.6799   -2.8068   -0.0831 H   0  0  0  0  0  0  0  0  0  0  0  0
    8.6893    0.3161    0.9137 H   0  0  0  0  0  0  0  0  0  0  0  0
    7.4867   -1.0018    1.4147 H   0  0  0  0  0  0  0  0  0  0  0  0
    7.2075    1.1108   -0.7716 H   0  0  0  0  0  0  0  0  0  0  0  0
    6.5376    1.2618    0.8590 H   0  0  0  0  0  0  0  0  0  0  0  0
    0.5652   -3.3478    2.0381 H   0  0  0  0  0  0  0  0  0  0  0  0
   -0.4230   -2.8070    0.6075 H   0  0  0  0  0  0  0  0  0  0  0  0
   -0.8458   -2.2294    2.2829 H   0  0  0  0  0  0  0  0  0  0  0  0
   -1.6100   -1.1615    0.3372 H   0  0  0  0  0  0  0  0  0  0  0  0
   -5.8122   -3.5847    0.5632 H   0  0  0  0  0  0  0  0  0  0  0  0
   -4.1794   -3.2041   -0.0201 H   0  0  0  0  0  0  0  0  0  0  0  0
   -4.5989   -2.9049    1.7436 H   0  0  0  0  0  0  0  0  0  0  0  0
   -6.2431   -0.5750   -1.5241 H   0  0  0  0  0  0  0  0  0  0  0  0
   -7.1586   -2.0226   -0.9590 H   0  0  0  0  0  0  0  0  0  0  0  0
   -5.5607   -2.2496   -1.7046 H   0  0  0  0  0  0  0  0  0  0  0  0
  1  2  1  0
  2  3  1  0
  3  4  1  0
  4  5  1  0
  5  6  1  0
  6  7  1  0
  7  8  2  0
  8  9  1  0
  9 10  2  0
 10 11  1  0
 11 12  2  0
 12 13  1  0
 13 14  1  0
 14 15  1  0
 15 16  1  0
 16 17  1  0
 17 18  1  0
 18 19  1  0
 19 20  1  0
 20 21  1  0
 21 22  1  0
 21 23  1  0
 23 24  1  0
 13 25  2  0
 25 26  1  0
 26 27  1  0
 25 28  1  0
 28 29  2  0
  8 30  1  0
 30 31  3  0
  5 32  1  0
 32 33  1  0
 32 34  1  0
 32  3  1  0
 29  7  1  0
 29 11  1  0
 24 18  1  0
  1 35  1  0
  1 36  1  0
  1 37  1  0
  2 38  1  0
  2 39  1  0
  3 40  1  1
  4 41  1  0
  4 42  1  0
  5 43  1  1
  6 44  1  0
  9 45  1  0
 12 46  1  0
 15 47  1  0
 15 48  1  0
 16 49  1  0
 16 50  1  0
 17 51  1  0
 17 52  1  0
 19 53  1  0
 19 54  1  0
 20 55  1  0
 20 56  1  0
 22 57  1  0
 22 58  1  0
 22 59  1  0
 23 60  1  0
 23 61  1  0
 24 62  1  0
 24 63  1  0
 27 64  1  0
 27 65  1  0
 27 66  1  0
 28 67  1  0
 33 68  1  0
 33 69  1  0
 33 70  1  0
 34 71  1  0
 34 72  1  0
 34 73  1  0
M  END
$$$$
[H]c1nc([H])c(C([H])([H])N([H])c2c(-c3c([H])c([H])c(C([H])([H])N4C([H])([H])C([H])([H])N(C([H])([H])[H])C([H])([H])C4([H])[H])c([H])c3[H])c([H])nc3c([H])c([H])c(C(=O)N([H])[H])c([H])c23)c([H])c1[H]
     RDKit          3D

 65 69  0  0  0  0  0  0  0  0999 V2000
    7.7968    0.3191   -1.0478 C   0  0  0  0  0  0  0  0  0  0  0  0
    7.2543   -0.7144   -0.2186 N   0  0  0  0  0  0  0  0  0  0  0  0
    6.6471   -1.8024   -0.9635 C   0  0  0  0  0  0  0  0  0  0  0  0
    5.4695   -2.3884   -0.1777 C   0  0  0  0  0  0  0  0  0  0  0  0
    4.3292   -1.4850   -0.2109 N   0  0  0  0  0  0  0  0  0  0  0  0
    3.5338   -1.7673    0.9439 C   0  0  0  0  0  0  0  0  0  0  0  0
    2.2919   -0.9471    1.0232 C   0  0  0  0  0  0  0  0  0  0  0  0
    1.6005   -0.8774    2.2238 C   0  0  0  0  0  0  0  0  0  0  0  0
    0.4446   -0.1385    2.3395 C   0  0  0  0  0  0  0  0  0  0  0  0
   -0.0879    0.5755    1.2571 C   0  0  0  0  0  0  0  0  0  0  0  0
    0.5990    0.4987    0.0898 C   0  0  0  0  0  0  0  0  0  0  0  0
    1.7765   -0.2490   -0.0447 C   0  0  0  0  0  0  0  0  0  0  0  0
   -1.2721    1.3825    1.4040 C   0  0  0  0  0  0  0  0  0  0  0  0
   -1.1689    2.5075    2.2623 C   0  0  0  0  0  0  0  0  0  0  0  0
   -2.2536    3.2742    2.4259 N   0  0  0  0  0  0  0  0  0  0  0  0
   -3.4189    3.0121    1.8104 C   0  0  0  0  0  0  0  0  0  0  0  0
   -4.4783    3.8629    2.0558 C   0  0  0  0  0  0  0  0  0  0  0  0
   -5.6613    3.5640    1.4189 C   0  0  0  0  0  0  0  0  0  0  0  0
   -5.8273    2.4907    0.5777 C   0  0  0  0  0  0  0  0  0  0  0  0
   -4.7297    1.6637    0.3628 C   0  0  0  0  0  0  0  0  0  0  0  0
   -3.5315    1.9234    0.9754 C   0  0  0  0  0  0  0  0  0  0  0  0
   -2.4271    1.0881    0.7675 C   0  0  0  0  0  0  0  0  0  0  0  0
   -2.5996    0.0095   -0.0844 N   0  0  0  0  0  0  0  0  0  0  0  0
   -2.5321   -0.0660   -1.5059 C   0  0  0  0  0  0  0  0  0  0  0  0
   -2.7944   -1.4717   -1.9713 C   0  0  0  0  0  0  0  0  0  0  0  0
   -4.0519   -1.9483   -2.2627 C   0  0  0  0  0  0  0  0  0  0  0  0
   -4.2454   -3.2621   -2.6914 C   0  0  0  0  0  0  0  0  0  0  0  0
   -3.1543   -4.0899   -2.8227 C   0  0  0  0  0  0  0  0  0  0  0  0
   -1.9129   -3.6190   -2.5349 N   0  0  0  0  0  0  0  0  0  0  0  0
   -1.7295   -2.3320   -2.1157 C   0  0  0  0  0  0  0  0  0  0  0  0
   -7.1092    2.2167   -0.0741 C   0  0  0  0  0  0  0  0  0  0  0  0
   -8.1992    3.0719    0.2054 N   0  0  0  0  0  0  0  0  0  0  0  0
   -7.2285    1.2630   -0.8458 O   0  0  0  0  0  0  0  0  0  0  0  0
    4.8973   -0.1370   -0.0389 C   0  0  0  0  0  0  0  0  0  0  0  0
    6.2410   -0.2033    0.6691 C   0  0  0  0  0  0  0  0  0  0  0  0
    7.6803    1.3381   -0.5787 H   0  0  0  0  0  0  0  0  0  0  0  0
    7.3124    0.3833   -2.0373 H   0  0  0  0  0  0  0  0  0  0  0  0
    8.9090    0.1723   -1.1238 H   0  0  0  0  0  0  0  0  0  0  0  0
    6.3437   -1.5131   -1.9780 H   0  0  0  0  0  0  0  0  0  0  0  0
    7.3991   -2.6135   -1.0390 H   0  0  0  0  0  0  0  0  0  0  0  0
    5.7760   -2.5824    0.8480 H   0  0  0  0  0  0  0  0  0  0  0  0
    5.1941   -3.3253   -0.7183 H   0  0  0  0  0  0  0  0  0  0  0  0
    4.1746   -1.5263    1.8422 H   0  0  0  0  0  0  0  0  0  0  0  0
    3.2653   -2.8331    1.0515 H   0  0  0  0  0  0  0  0  0  0  0  0
    2.0080   -1.4289    3.0674 H   0  0  0  0  0  0  0  0  0  0  0  0
   -0.1024   -0.0772    3.2711 H   0  0  0  0  0  0  0  0  0  0  0  0
    0.2843    1.0204   -0.7978 H   0  0  0  0  0  0  0  0  0  0  0  0
    2.3024   -0.2924   -0.9862 H   0  0  0  0  0  0  0  0  0  0  0  0
   -0.2217    2.7062    2.7524 H   0  0  0  0  0  0  0  0  0  0  0  0
   -4.4084    4.7241    2.7087 H   0  0  0  0  0  0  0  0  0  0  0  0
   -6.5075    4.2349    1.6083 H   0  0  0  0  0  0  0  0  0  0  0  0
   -4.8313    0.8071   -0.2841 H   0  0  0  0  0  0  0  0  0  0  0  0
   -2.8210   -0.9226    0.4172 H   0  0  0  0  0  0  0  0  0  0  0  0
   -3.3269    0.5416   -2.0378 H   0  0  0  0  0  0  0  0  0  0  0  0
   -1.6034    0.2265   -1.9878 H   0  0  0  0  0  0  0  0  0  0  0  0
   -4.8903   -1.2784   -2.1511 H   0  0  0  0  0  0  0  0  0  0  0  0
   -5.2179   -3.6625   -2.9266 H   0  0  0  0  0  0  0  0  0  0  0  0
   -3.2558   -5.1226   -3.1537 H   0  0  0  0  0  0  0  0  0  0  0  0
   -0.7373   -1.9586   -1.8865 H   0  0  0  0  0  0  0  0  0  0  0  0
   -9.0993    2.7443    0.6064 H   0  0  0  0  0  0  0  0  0  0  0  0
   -8.1004    4.0851    0.0007 H   0  0  0  0  0  0  0  0  0  0  0  0
    4.2441    0.4595    0.6030 H   0  0  0  0  0  0  0  0  0  0  0  0
    5.0718    0.3505   -1.0032 H   0  0  0  0  0  0  0  0  0  0  0  0
    6.4878    0.8621    0.9270 H   0  0  0  0  0  0  0  0  0  0  0  0
    6.2028   -0.7436    1.6192 H   0  0  0  0  0  0  0  0  0  0  0  0
  1  2  1  0
  2  3  1  0
  3  4  1  0
  4  5  1  0
  5  6  1  0
  6  7  1  0
  7  8  2  0
  8  9  1  0
  9 10  2  0
 10 11  1  0
 11 12  2  0
 10 13  1  0
 13 14  2  0
 14 15  1  0
 15 16  2  0
 16 17  1  0
 17 18  2  0
 18 19  1  0
 19 20  2  0
 20 21  1  0
 21 22  2  0
 22 23  1  0
 23 24  1  0
 24 25  1  0
 25 26  2  0
 26 27  1  0
 27 28  2  0
 28 29  1  0
 29 30  2  0
 19 31  1  0
 31 32  1  0
 31 33  2  0
  5 34  1  0
 34 35  1  0
 35  2  1  0
 12  7  1  0
 22 13  1  0
 30 25  1  0
 21 16  1  0
  1 36  1  0
  1 37  1  0
  1 38  1  0
  3 39  1  0
  3 40  1  0
  4 41  1  0
  4 42  1  0
  6 43  1  0
  6 44  1  0
  8 45  1  0
  9 46  1  0
 11 47  1  0
 12 48  1  0
 14 49  1  0
 17 50  1  0
 18 51  1  0
 20 52  1  0
 23 53  1  0
 24 54  1  0
 24 55  1  0
 26 56  1  0
 27 57  1  0
 28 58  1  0
 30 59  1  0
 32 60  1  0
 32 61  1  0
 34 62  1  0
 34 63  1  0
 35 64  1  0
 35 65  1  0
M  END
$$$$
