[H]OC(=O)[C@@]([H])(N([H])C(=O)[C@@]([H])(N([H])C(=O)[C@@]([H])(N([H])C(=O)c1c([H])c([H])c([H])c(-c2c([H])c([H])c([H])c([H])c2[H])c1[H])[C@]([H])(O[H])C([H])([H])[H])C([H])([H])c1c([H])c([H])c([H])c([H])c1[H])C([H])([H])c1c([H])c([H])c(O[H])c([H])c1[H]
     RDKit          3D

 80 83  0  0  0  0  0  0  0  0999 V2000
    2.4146    1.7340    1.3248 C   0  0  0  0  0  0  0  0  0  0  0  0
    1.6188    0.4086    1.2776 C   0  0  1  0  0  0  0  0  0  0  0  0
    0.4317    0.6067    1.9070 O   0  0  0  0  0  0  0  0  0  0  0  0
    1.2561    0.2057   -0.3028 C   0  0  2  0  0  0  0  0  0  0  0  0
    2.4607   -0.1810   -0.7119 N   0  0  0  0  0  0  0  0  0  0  0  0
    2.9226   -1.0805   -1.5792 C   0  0  0  0  0  0  0  0  0  0  0  0
    2.7751   -1.6087   -2.7293 O   0  0  0  0  0  0  0  0  0  0  0  0
    3.8844   -2.0853   -0.8756 C   0  0  0  0  0  0  0  0  0  0  0  0
    3.5622   -3.4121   -0.9510 C   0  0  0  0  0  0  0  0  0  0  0  0
    4.5610   -4.4338   -0.5592 C   0  0  0  0  0  0  0  0  0  0  0  0
    5.8213   -3.8230   -0.1240 C   0  0  0  0  0  0  0  0  0  0  0  0
    6.0123   -2.5401   -0.0561 C   0  0  0  0  0  0  0  0  0  0  0  0
    4.9859   -1.6551   -0.4648 C   0  0  0  0  0  0  0  0  0  0  0  0
    7.3354   -1.9646    0.2295 C   0  0  0  0  0  0  0  0  0  0  0  0
    8.2731   -2.1248    1.1647 C   0  0  0  0  0  0  0  0  0  0  0  0
    9.5649   -1.4486    1.0491 C   0  0  0  0  0  0  0  0  0  0  0  0
    9.7726   -0.6392   -0.0727 C   0  0  0  0  0  0  0  0  0  0  0  0
    8.8028   -0.4944   -1.0121 C   0  0  0  0  0  0  0  0  0  0  0  0
    7.6690   -1.0643   -0.9019 C   0  0  0  0  0  0  0  0  0  0  0  0
    0.5911    1.3696   -0.7429 C   0  0  0  0  0  0  0  0  0  0  0  0
    1.0180    2.3940   -1.2571 O   0  0  0  0  0  0  0  0  0  0  0  0
   -0.8432    1.2396   -0.3876 N   0  0  0  0  0  0  0  0  0  0  0  0
   -1.7373    2.2991    0.0361 C   0  0  1  0  0  0  0  0  0  0  0  0
   -1.8492    3.2246   -1.0333 C   0  0  0  0  0  0  0  0  0  0  0  0
   -2.2251    4.6035   -0.5215 C   0  0  0  0  0  0  0  0  0  0  0  0
   -1.5093    5.0010    0.5854 C   0  0  0  0  0  0  0  0  0  0  0  0
   -1.7404    6.2360    1.0777 C   0  0  0  0  0  0  0  0  0  0  0  0
   -2.6647    7.0844    0.4912 C   0  0  0  0  0  0  0  0  0  0  0  0
   -3.3071    6.6092   -0.6892 C   0  0  0  0  0  0  0  0  0  0  0  0
   -3.0979    5.3645   -1.1499 C   0  0  0  0  0  0  0  0  0  0  0  0
   -2.7105    1.3083    0.6943 C   0  0  0  0  0  0  0  0  0  0  0  0
   -2.6388    1.1248    1.9498 O   0  0  0  0  0  0  0  0  0  0  0  0
   -3.5756    0.5271   -0.1034 N   0  0  0  0  0  0  0  0  0  0  0  0
   -4.2706   -0.6976    0.3255 C   0  0  1  0  0  0  0  0  0  0  0  0
   -4.9534   -1.0960   -0.9826 C   0  0  0  0  0  0  0  0  0  0  0  0
   -6.0510   -2.0460   -0.8199 C   0  0  0  0  0  0  0  0  0  0  0  0
   -6.9601   -1.6154    0.1580 C   0  0  0  0  0  0  0  0  0  0  0  0
   -8.0582   -2.2995    0.5084 C   0  0  0  0  0  0  0  0  0  0  0  0
   -8.1960   -3.4967   -0.1718 C   0  0  0  0  0  0  0  0  0  0  0  0
   -9.2689   -4.3812    0.1104 O   0  0  0  0  0  0  0  0  0  0  0  0
   -7.2958   -3.9919   -1.1080 C   0  0  0  0  0  0  0  0  0  0  0  0
   -6.2139   -3.2211   -1.4259 C   0  0  0  0  0  0  0  0  0  0  0  0
   -3.0541   -1.6783    0.5127 C   0  0  0  0  0  0  0  0  0  0  0  0
   -2.8182   -2.3017    1.6976 O   0  0  0  0  0  0  0  0  0  0  0  0
   -2.2824   -1.8898   -0.4987 O   0  0  0  0  0  0  0  0  0  0  0  0
    1.8509    2.6473    1.1492 H   0  0  0  0  0  0  0  0  0  0  0  0
    2.6997    1.7275    2.4685 H   0  0  0  0  0  0  0  0  0  0  0  0
    3.3687    1.6367    0.8237 H   0  0  0  0  0  0  0  0  0  0  0  0
    2.2522   -0.3864    1.4759 H   0  0  0  0  0  0  0  0  0  0  0  0
    0.6136    1.1322    2.7436 H   0  0  0  0  0  0  0  0  0  0  0  0
    0.5933   -0.7883   -0.1960 H   0  0  0  0  0  0  0  0  0  0  0  0
    3.3234    0.5192   -0.3954 H   0  0  0  0  0  0  0  0  0  0  0  0
    2.5088   -3.7286   -1.1932 H   0  0  0  0  0  0  0  0  0  0  0  0
    4.3128   -5.4275   -0.6094 H   0  0  0  0  0  0  0  0  0  0  0  0
    6.5059   -4.6469    0.1355 H   0  0  0  0  0  0  0  0  0  0  0  0
    5.2210   -0.6522   -0.1734 H   0  0  0  0  0  0  0  0  0  0  0  0
    8.0452   -2.6925    2.0689 H   0  0  0  0  0  0  0  0  0  0  0  0
   10.3184   -1.6212    1.7480 H   0  0  0  0  0  0  0  0  0  0  0  0
   10.8159   -0.2807   -0.2178 H   0  0  0  0  0  0  0  0  0  0  0  0
    9.0655    0.0693   -1.9806 H   0  0  0  0  0  0  0  0  0  0  0  0
    6.9070   -1.0045   -1.6403 H   0  0  0  0  0  0  0  0  0  0  0  0
   -1.2512    0.3655   -0.6180 H   0  0  0  0  0  0  0  0  0  0  0  0
   -1.2859    2.7889    0.9548 H   0  0  0  0  0  0  0  0  0  0  0  0
   -1.1985    3.1653   -1.8896 H   0  0  0  0  0  0  0  0  0  0  0  0
   -2.9053    2.9555   -1.5965 H   0  0  0  0  0  0  0  0  0  0  0  0
   -0.8163    4.3813    1.1460 H   0  0  0  0  0  0  0  0  0  0  0  0
   -1.2368    6.5581    2.0233 H   0  0  0  0  0  0  0  0  0  0  0  0
   -2.8111    8.0601    0.8658 H   0  0  0  0  0  0  0  0  0  0  0  0
   -3.9710    7.2950   -1.1737 H   0  0  0  0  0  0  0  0  0  0  0  0
   -3.6450    5.0771   -2.0849 H   0  0  0  0  0  0  0  0  0  0  0  0
   -3.8699    0.8951   -0.9807 H   0  0  0  0  0  0  0  0  0  0  0  0
   -4.8481   -0.8191    1.1896 H   0  0  0  0  0  0  0  0  0  0  0  0
   -5.2250   -0.3029   -1.7017 H   0  0  0  0  0  0  0  0  0  0  0  0
   -4.1822   -1.7389   -1.5835 H   0  0  0  0  0  0  0  0  0  0  0  0
   -6.8240   -0.5773    0.6369 H   0  0  0  0  0  0  0  0  0  0  0  0
   -8.7559   -1.9187    1.2253 H   0  0  0  0  0  0  0  0  0  0  0  0
   -8.9440   -5.1260    0.7948 H   0  0  0  0  0  0  0  0  0  0  0  0
   -7.4284   -5.0074   -1.5192 H   0  0  0  0  0  0  0  0  0  0  0  0
   -5.5137   -3.6990   -2.1341 H   0  0  0  0  0  0  0  0  0  0  0  0
   -2.1018   -2.9260    1.9469 H   0  0  0  0  0  0  0  0  0  0  0  0
  1  2  1  0
  2  3  1  0
  2  4  1  0
  4  5  1  0
  5  6  1  0
  6  7  2  0
  6  8  1  0
  8  9  2  0
  9 10  1  0
 10 11  2  0
 11 12  1  0
 12 13  2  0
 12 14  1  0
 14 15  2  0
 15 16  1  0
 16 17  2  0
 17 18  1  0
 18 19  2  0
  4 20  1  0
 20 21  2  0
 20 22  1  0
 22 23  1  0
 23 24  1  0
 24 25  1  0
 25 26  2  0
 26 27  1  0
 27 28  2  0
 28 29  1  0
 29 30  2  0
 23 31  1  0
 31 32  2  0
 31 33  1  0
 33 34  1  0
 34 35  1  0
 35 36  1  0
 36 37  2  0
 37 38  1  0
 38 39  2  0
 39 40  1  0
 39 41  1  0
 41 42  2  0
 34 43  1  0
 43 44  1  0
 43 45  2  0
 13  8  1  0
 19 14  1  0
 30 25  1  0
 42 36  1  0
  1 46  1  0
  1 47  1  0
  1 48  1  0
  2 49  1  1
  3 50  1  0
  4 51  1  1
  5 52  1  0
  9 53  1  0
 10 54  1  0
 11 55  1  0
 13 56  1  0
 15 57  1  0
 16 58  1  0
 17 59  1  0
 18 60  1  0
 19 61  1  0
 22 62  1  0
 23 63  1  1
 24 64  1  0
 24 65  1  0
 26 66  1  0
 27 67  1  0
 28 68  1  0
 29 69  1  0
 30 70  1  0
 33 71  1  0
 34 72  1  1
 35 73  1  0
 35 74  1  0
 37 75  1  0
 38 76  1  0
 40 77  1  0
 41 78  1  0
 42 79  1  0
 44 80  1  0
M  END
$$$$
[H]C#C[C@]1(O[H])C([H])([H])C([H])([H])[C@]2([H])[C@]1(C([H])([H])[H])C([H])([H])C([H])([H])[C@]1([H])[C@]3(C([H])([H])[H])C(=C([H])C(=O)C([H])([H])C3([H])[H])C([H])([H])C([H])([H])[C@@]21[H]
     RDKit          3D

 51 54  0  0  0  0  0  0  0  0999 V2000
    1.7493   -1.1265    1.6536 C   0  0  0  0  0  0  0  0  0  0  0  0
    2.1216   -0.0430    0.6736 C   0  0  2  0  0  0  0  0  0  0  0  0
    1.5590    1.2708    1.0868 C   0  0  0  0  0  0  0  0  0  0  0  0
    0.0714    1.2108    1.1615 C   0  0  0  0  0  0  0  0  0  0  0  0
   -0.6048    0.5500    0.0237 C   0  0  1  0  0  0  0  0  0  0  0  0
    0.1105   -0.7046   -0.4686 C   0  0  1  0  0  0  0  0  0  0  0  0
   -0.6300   -1.1902   -1.6834 C   0  0  0  0  0  0  0  0  0  0  0  0
   -1.9229   -1.8329   -1.1650 C   0  0  0  0  0  0  0  0  0  0  0  0
   -2.6812   -0.7168   -0.5104 C   0  0  0  0  0  0  0  0  0  0  0  0
   -4.0053   -0.6894   -0.7194 C   0  0  0  0  0  0  0  0  0  0  0  0
   -4.8523    0.3426   -0.1393 C   0  0  0  0  0  0  0  0  0  0  0  0
   -6.1042    0.2470   -0.1595 O   0  0  0  0  0  0  0  0  0  0  0  0
   -4.2299    1.5290    0.4874 C   0  0  0  0  0  0  0  0  0  0  0  0
   -2.7863    1.6262    0.0430 C   0  0  0  0  0  0  0  0  0  0  0  0
   -2.0471    0.3125    0.3232 C   0  0  2  0  0  0  0  0  0  0  0  0
   -2.2726    0.0127    1.7943 C   0  0  0  0  0  0  0  0  0  0  0  0
    1.5159   -0.3239   -0.7108 C   0  0  2  0  0  0  0  0  0  0  0  0
    2.4222   -1.3609   -1.2349 C   0  0  0  0  0  0  0  0  0  0  0  0
    3.7773   -0.6924   -0.9823 C   0  0  0  0  0  0  0  0  0  0  0  0
    3.5717   -0.0645    0.3799 C   0  0  2  0  0  0  0  0  0  0  0  0
    4.2070   -0.9294    1.3013 O   0  0  0  0  0  0  0  0  0  0  0  0
    4.2254    1.2351    0.4984 C   0  0  0  0  0  0  0  0  0  0  0  0
    4.7766    2.2855    0.5929 C   0  0  0  0  0  0  0  0  0  0  0  0
    0.8070   -0.9627    2.1721 H   0  0  0  0  0  0  0  0  0  0  0  0
    2.5478   -1.1364    2.4523 H   0  0  0  0  0  0  0  0  0  0  0  0
    1.7435   -2.1333    1.2280 H   0  0  0  0  0  0  0  0  0  0  0  0
    1.9225    2.0512    0.3653 H   0  0  0  0  0  0  0  0  0  0  0  0
    1.9425    1.5565    2.0942 H   0  0  0  0  0  0  0  0  0  0  0  0
   -0.2956    2.2797    1.1965 H   0  0  0  0  0  0  0  0  0  0  0  0
   -0.2221    0.7983    2.1654 H   0  0  0  0  0  0  0  0  0  0  0  0
   -0.5681    1.2609   -0.8535 H   0  0  0  0  0  0  0  0  0  0  0  0
   -0.0001   -1.4813    0.3146 H   0  0  0  0  0  0  0  0  0  0  0  0
   -0.9514   -0.2882   -2.2533 H   0  0  0  0  0  0  0  0  0  0  0  0
   -0.0490   -1.8921   -2.3002 H   0  0  0  0  0  0  0  0  0  0  0  0
   -1.6397   -2.5297   -0.3501 H   0  0  0  0  0  0  0  0  0  0  0  0
   -2.5054   -2.2869   -1.9641 H   0  0  0  0  0  0  0  0  0  0  0  0
   -4.4808   -1.4472   -1.3346 H   0  0  0  0  0  0  0  0  0  0  0  0
   -4.2968    1.5060    1.5953 H   0  0  0  0  0  0  0  0  0  0  0  0
   -4.7334    2.4499    0.1289 H   0  0  0  0  0  0  0  0  0  0  0  0
   -2.2840    2.4811    0.5330 H   0  0  0  0  0  0  0  0  0  0  0  0
   -2.8003    1.7395   -1.0570 H   0  0  0  0  0  0  0  0  0  0  0  0
   -1.5823   -0.7373    2.1945 H   0  0  0  0  0  0  0  0  0  0  0  0
   -2.2471    0.9860    2.3297 H   0  0  0  0  0  0  0  0  0  0  0  0
   -3.3006   -0.3990    1.9132 H   0  0  0  0  0  0  0  0  0  0  0  0
    1.5742    0.5835   -1.3255 H   0  0  0  0  0  0  0  0  0  0  0  0
    2.3387   -1.5444   -2.3263 H   0  0  0  0  0  0  0  0  0  0  0  0
    2.4351   -2.2992   -0.6838 H   0  0  0  0  0  0  0  0  0  0  0  0
    4.5959   -1.4085   -1.0210 H   0  0  0  0  0  0  0  0  0  0  0  0
    3.8705    0.1378   -1.7176 H   0  0  0  0  0  0  0  0  0  0  0  0
    4.9214   -1.4528    0.8583 H   0  0  0  0  0  0  0  0  0  0  0  0
    5.2863    3.2205    0.6846 H   0  0  0  0  0  0  0  0  0  0  0  0
  2  1  1  1
  2  3  1  0
  3  4  1  0
  4  5  1  0
  5  6  1  0
  6  7  1  0
  7  8  1  0
  8  9  1  0
  9 10  2  0
 10 11  1  0
 11 12  2  0
 11 13  1  0
 13 14  1  0
 14 15  1  0
 15 16  1  1
  6 17  1  0
 17 18  1  0
 18 19  1  0
 19 20  1  0
 20 21  1  0
 20 22  1  6
 22 23  3  0
 17  2  1  0
 20  2  1  0
 15  5  1  0
 15  9  1  0
  1 24  1  0
  1 25  1  0
  1 26  1  0
  3 27  1  0
  3 28  1  0
  4 29  1  0
  4 30  1  0
  5 31  1  6
  6 32  1  1
  7 33  1  0
  7 34  1  0
  8 35  1  0
  8 36  1  0
 10 37  1  0
 13 38  1  0
 13 39  1  0
 14 40  1  0
 14 41  1  0
 16 42  1  0
 16 43  1  0
 16 44  1  0
 17 45  1  6
 18 46  1  0
 18 47  1  0
 19 48  1  0
 19 49  1  0
 21 50  1  0
 23 51  1  0
M  END
$$$$
[H]c1nc(N([H])C([H])([H])c2c([H])nc([H])c([H])c2[H])c2sc3nc(N4C([H])([H])C([H])([H])OC([H])([H])C4([H])[H])c4c(c3c2n1)C([H])([H])C(C([H])([H])[H])(C([H])([H])[H])C([H])([H])C4([H])[H]
     RDKit          3D

 61 66  0  0  0  0  0  0  0  0999 V2000
   -2.1473    3.4539   -0.8862 C   0  0  0  0  0  0  0  0  0  0  0  0
   -1.9386    3.0499    0.5654 C   0  0  0  0  0  0  0  0  0  0  0  0
   -1.6470    4.2968    1.3769 C   0  0  0  0  0  0  0  0  0  0  0  0
   -3.1804    2.4174    1.0855 C   0  0  0  0  0  0  0  0  0  0  0  0
   -3.5381    1.1671    0.2966 C   0  0  0  0  0  0  0  0  0  0  0  0
   -2.3682    0.2199    0.2915 C   0  0  0  0  0  0  0  0  0  0  0  0
   -1.0908    0.7011    0.5075 C   0  0  0  0  0  0  0  0  0  0  0  0
   -0.7883    2.1327    0.7109 C   0  0  0  0  0  0  0  0  0  0  0  0
   -0.0040   -0.2158    0.5069 C   0  0  0  0  0  0  0  0  0  0  0  0
   -0.3570   -1.5062    0.2837 C   0  0  0  0  0  0  0  0  0  0  0  0
   -1.6315   -1.9428    0.0726 N   0  0  0  0  0  0  0  0  0  0  0  0
   -2.6889   -1.0954    0.0688 C   0  0  0  0  0  0  0  0  0  0  0  0
   -3.9843   -1.6257   -0.1438 N   0  0  0  0  0  0  0  0  0  0  0  0
   -5.0080   -1.7358    0.8640 C   0  0  0  0  0  0  0  0  0  0  0  0
   -5.4781   -3.1732    0.9641 C   0  0  0  0  0  0  0  0  0  0  0  0
   -5.4753   -3.8191   -0.2465 O   0  0  0  0  0  0  0  0  0  0  0  0
   -5.5449   -2.9635   -1.3423 C   0  0  0  0  0  0  0  0  0  0  0  0
   -4.3113   -2.0960   -1.4770 C   0  0  0  0  0  0  0  0  0  0  0  0
    1.1380   -2.3499    0.3498 S   0  0  0  0  0  0  0  0  0  0  0  0
    2.1657   -1.0280    0.6617 C   0  0  0  0  0  0  0  0  0  0  0  0
    3.5580   -0.9073    0.8559 C   0  0  0  0  0  0  0  0  0  0  0  0
    4.3091   -2.1124    0.7835 N   0  0  0  0  0  0  0  0  0  0  0  0
    5.7412   -2.0884    0.9643 C   0  0  0  0  0  0  0  0  0  0  0  0
    6.4614   -1.2874   -0.0587 C   0  0  0  0  0  0  0  0  0  0  0  0
    7.1739   -0.1638    0.3028 C   0  0  0  0  0  0  0  0  0  0  0  0
    7.8384    0.5721   -0.6512 C   0  0  0  0  0  0  0  0  0  0  0  0
    7.7959    0.1909   -1.9733 C   0  0  0  0  0  0  0  0  0  0  0  0
    7.1017   -0.9051   -2.3312 N   0  0  0  0  0  0  0  0  0  0  0  0
    6.4415   -1.6394   -1.3965 C   0  0  0  0  0  0  0  0  0  0  0  0
    4.1185    0.2874    1.0981 N   0  0  0  0  0  0  0  0  0  0  0  0
    3.2554    1.3231    1.1366 C   0  0  0  0  0  0  0  0  0  0  0  0
    1.9649    1.2339    0.9596 N   0  0  0  0  0  0  0  0  0  0  0  0
    1.3202    0.0369    0.7061 C   0  0  0  0  0  0  0  0  0  0  0  0
   -3.2324    3.5677   -1.0935 H   0  0  0  0  0  0  0  0  0  0  0  0
   -1.7067    2.6991   -1.5781 H   0  0  0  0  0  0  0  0  0  0  0  0
   -1.6212    4.4052   -1.0931 H   0  0  0  0  0  0  0  0  0  0  0  0
   -1.1326    4.0504    2.3343 H   0  0  0  0  0  0  0  0  0  0  0  0
   -2.5498    4.8694    1.6284 H   0  0  0  0  0  0  0  0  0  0  0  0
   -0.9203    4.9270    0.8000 H   0  0  0  0  0  0  0  0  0  0  0  0
   -4.0072    3.1402    0.9936 H   0  0  0  0  0  0  0  0  0  0  0  0
   -3.0442    2.2049    2.1655 H   0  0  0  0  0  0  0  0  0  0  0  0
   -3.8009    1.4740   -0.7178 H   0  0  0  0  0  0  0  0  0  0  0  0
   -4.4065    0.7361    0.8154 H   0  0  0  0  0  0  0  0  0  0  0  0
    0.0146    2.3875   -0.0638 H   0  0  0  0  0  0  0  0  0  0  0  0
   -0.3515    2.2313    1.7260 H   0  0  0  0  0  0  0  0  0  0  0  0
   -4.6505   -1.4444    1.8718 H   0  0  0  0  0  0  0  0  0  0  0  0
   -5.8996   -1.1218    0.5444 H   0  0  0  0  0  0  0  0  0  0  0  0
   -6.5133   -3.1582    1.3557 H   0  0  0  0  0  0  0  0  0  0  0  0
   -4.7765   -3.6924    1.6798 H   0  0  0  0  0  0  0  0  0  0  0  0
   -6.4002   -2.3007   -1.2026 H   0  0  0  0  0  0  0  0  0  0  0  0
   -5.6337   -3.5917   -2.2523 H   0  0  0  0  0  0  0  0  0  0  0  0
   -3.4666   -2.7562   -1.8047 H   0  0  0  0  0  0  0  0  0  0  0  0
   -4.5260   -1.2960   -2.1828 H   0  0  0  0  0  0  0  0  0  0  0  0
    3.8056   -3.0164    0.5971 H   0  0  0  0  0  0  0  0  0  0  0  0
    6.1180   -3.1309    0.8550 H   0  0  0  0  0  0  0  0  0  0  0  0
    5.9949   -1.7823    1.9900 H   0  0  0  0  0  0  0  0  0  0  0  0
    7.2122    0.1452    1.3520 H   0  0  0  0  0  0  0  0  0  0  0  0
    8.4007    1.4631   -0.3478 H   0  0  0  0  0  0  0  0  0  0  0  0
    8.3256    0.7764   -2.7389 H   0  0  0  0  0  0  0  0  0  0  0  0
    5.8817   -2.5272   -1.7021 H   0  0  0  0  0  0  0  0  0  0  0  0
    3.6849    2.3130    1.3331 H   0  0  0  0  0  0  0  0  0  0  0  0
  1  2  1  0
  2  3  1  0
  2  4  1  0
  4  5  1  0
  5  6  1  0
  6  7  2  0
  7  8  1  0
  7  9  1  0
  9 10  2  0
 10 11  1  0
 11 12  2  0
 12 13  1  0
 13 14  1  0
 14 15  1  0
 15 16  1  0
 16 17  1  0
 17 18  1  0
 10 19  1  0
 19 20  1  0
 20 21  2  0
 21 22  1  0
 22 23  1  0
 23 24  1  0
 24 25  2  0
 25 26  1  0
 26 27  2  0
 27 28  1  0
 28 29  2  0
 21 30  1  0
 30 31  2  0
 31 32  1  0
 32 33  2  0
  8  2  1  0
 33  9  1  0
 12  6  1  0
 18 13  1  0
 33 20  1  0
 29 24  1  0
  1 34  1  0
  1 35  1  0
  1 36  1  0
  3 37  1  0
  3 38  1  0
  3 39  1  0
  4 40  1  0
  4 41  1  0
  5 42  1  0
  5 43  1  0
  8 44  1  0
  8 45  1  0
 14 46  1  0
 14 47  1  0
 15 48  1  0
 15 49  1  0
 17 50  1  0
 17 51  1  0
 18 52  1  0
 18 53  1  0
 22 54  1  0
 23 55  1  0
 23 56  1  0
 25 57  1  0
 26 58  1  0
 27 59  1  0
 29 60  1  0
 31 61  1  0
M  END
$$$$
[H]c1nc([H])c(-c2c(OC([H])([H])C3([H])C([H])([H])OC([H])([H])C3([H])[H])nc3sc(N([H])C(=O)N([H])C([H])([H])C([H])([H])[H])nc3c2[H])c([H])c1OC([H])([H])[H]
     RDKit          3D

 53 56  0  0  0  0  0  0  0  0999 V2000
    8.0702    0.0009    0.2591 C   0  0  0  0  0  0  0  0  0  0  0  0
    8.0154   -0.8135   -1.0244 C   0  0  0  0  0  0  0  0  0  0  0  0
    6.9903   -1.8236   -0.8775 N   0  0  0  0  0  0  0  0  0  0  0  0
    5.6366   -1.4699   -0.6343 C   0  0  0  0  0  0  0  0  0  0  0  0
    5.3626   -0.2420   -0.5510 O   0  0  0  0  0  0  0  0  0  0  0  0
    4.6245   -2.4401   -0.4887 N   0  0  0  0  0  0  0  0  0  0  0  0
    3.2578   -2.0914   -0.2435 C   0  0  0  0  0  0  0  0  0  0  0  0
    2.7632   -0.8764   -0.1220 N   0  0  0  0  0  0  0  0  0  0  0  0
    1.4944   -0.7048    0.1009 C   0  0  0  0  0  0  0  0  0  0  0  0
    0.8143    0.5231    0.2549 C   0  0  0  0  0  0  0  0  0  0  0  0
   -0.5150    0.5283    0.4832 C   0  0  0  0  0  0  0  0  0  0  0  0
   -1.1888    1.8349    0.6529 C   0  0  0  0  0  0  0  0  0  0  0  0
   -1.9891    2.0342    1.7291 C   0  0  0  0  0  0  0  0  0  0  0  0
   -2.6176    3.2236    1.8847 N   0  0  0  0  0  0  0  0  0  0  0  0
   -2.4396    4.1895    0.9716 C   0  0  0  0  0  0  0  0  0  0  0  0
   -1.6368    4.0357   -0.1381 C   0  0  0  0  0  0  0  0  0  0  0  0
   -1.4818    5.0788   -1.0678 O   0  0  0  0  0  0  0  0  0  0  0  0
   -2.1740    6.2816   -0.8252 C   0  0  0  0  0  0  0  0  0  0  0  0
   -1.0025    2.8368   -0.2964 C   0  0  0  0  0  0  0  0  0  0  0  0
   -1.3180   -0.6237    0.5857 C   0  0  0  0  0  0  0  0  0  0  0  0
   -2.5926   -0.4782    0.8086 O   0  0  0  0  0  0  0  0  0  0  0  0
   -3.8142   -0.9374    1.0007 C   0  0  0  0  0  0  0  0  0  0  0  0
   -4.3627   -1.7283   -0.1695 C   0  0  0  0  0  0  0  0  0  0  0  0
   -5.7973   -2.1830    0.1345 C   0  0  0  0  0  0  0  0  0  0  0  0
   -5.8056   -3.4552   -0.7234 C   0  0  0  0  0  0  0  0  0  0  0  0
   -4.5619   -4.0151   -0.5578 O   0  0  0  0  0  0  0  0  0  0  0  0
   -3.6497   -3.0280   -0.3008 C   0  0  0  0  0  0  0  0  0  0  0  0
   -0.6159   -1.7679    0.4308 N   0  0  0  0  0  0  0  0  0  0  0  0
    0.7091   -1.8219    0.2020 C   0  0  0  0  0  0  0  0  0  0  0  0
    1.8762   -3.0677   -0.0358 S   0  0  0  0  0  0  0  0  0  0  0  0
    7.5509   -0.5586    1.0685 H   0  0  0  0  0  0  0  0  0  0  0  0
    7.5651    0.9669    0.0495 H   0  0  0  0  0  0  0  0  0  0  0  0
    9.1366    0.1974    0.4829 H   0  0  0  0  0  0  0  0  0  0  0  0
    7.8143   -0.1461   -1.8932 H   0  0  0  0  0  0  0  0  0  0  0  0
    8.9985   -1.2836   -1.2065 H   0  0  0  0  0  0  0  0  0  0  0  0
    7.2609   -2.8269   -0.9534 H   0  0  0  0  0  0  0  0  0  0  0  0
    4.8764   -3.4487   -0.5617 H   0  0  0  0  0  0  0  0  0  0  0  0
    1.3567    1.4712    0.1905 H   0  0  0  0  0  0  0  0  0  0  0  0
   -2.1194    1.2434    2.4692 H   0  0  0  0  0  0  0  0  0  0  0  0
   -2.9506    5.1417    1.1078 H   0  0  0  0  0  0  0  0  0  0  0  0
   -1.8998    6.6905    0.1809 H   0  0  0  0  0  0  0  0  0  0  0  0
   -2.0151    7.0218   -1.6110 H   0  0  0  0  0  0  0  0  0  0  0  0
   -3.2553    6.0020   -0.7298 H   0  0  0  0  0  0  0  0  0  0  0  0
   -0.3620    2.6643   -1.1485 H   0  0  0  0  0  0  0  0  0  0  0  0
   -4.5631   -0.0672    1.0942 H   0  0  0  0  0  0  0  0  0  0  0  0
   -3.9688   -1.5431    1.9524 H   0  0  0  0  0  0  0  0  0  0  0  0
   -4.3954   -1.1085   -1.0641 H   0  0  0  0  0  0  0  0  0  0  0  0
   -5.9438   -2.3861    1.1924 H   0  0  0  0  0  0  0  0  0  0  0  0
   -6.5312   -1.4788   -0.3010 H   0  0  0  0  0  0  0  0  0  0  0  0
   -5.9421   -3.2011   -1.7796 H   0  0  0  0  0  0  0  0  0  0  0  0
   -6.6324   -4.1243   -0.4151 H   0  0  0  0  0  0  0  0  0  0  0  0
   -2.8910   -2.9231   -1.1124 H   0  0  0  0  0  0  0  0  0  0  0  0
   -3.1408   -3.3025    0.6495 H   0  0  0  0  0  0  0  0  0  0  0  0
  1  2  1  0
  2  3  1  0
  3  4  1  0
  4  5  2  0
  4  6  1  0
  6  7  1  0
  7  8  2  0
  8  9  1  0
  9 10  2  0
 10 11  1  0
 11 12  1  0
 12 13  2  0
 13 14  1  0
 14 15  2  0
 15 16  1  0
 16 17  1  0
 17 18  1  0
 16 19  2  0
 11 20  2  0
 20 21  1  0
 21 22  1  0
 22 23  1  0
 23 24  1  0
 24 25  1  0
 25 26  1  0
 26 27  1  0
 20 28  1  0
 28 29  2  0
 29 30  1  0
 30  7  1  0
 29  9  1  0
 19 12  1  0
 27 23  1  0
  1 31  1  0
  1 32  1  0
  1 33  1  0
  2 34  1  0
  2 35  1  0
  3 36  1  0
  6 37  1  0
 10 38  1  0
 13 39  1  0
 15 40  1  0
 18 41  1  0
 18 42  1  0
 18 43  1  0
 19 44  1  0
 22 45  1  0
 22 46  1  0
 23 47  1  0
 24 48  1  0
 24 49  1  0
 25 50  1  0
 25 51  1  0
 27 52  1  0
 27 53  1  0
M  END
$$$$
[H]c1c([H])c([H])c([C@@]2([H])C([H])([H])[C@]2([H])N([H])C(=O)N2C([H])([H])C([H])([H])C3(Oc4c([H])c([H])c([H])c([H])c4C(=O)C3([H])[H])C([H])([H])C2([H])[H])c([H])c1[H]
     RDKit          3D

 52 56  0  0  0  0  0  0  0  0999 V2000
    1.9427    1.6543    1.4122 O   0  0  0  0  0  0  0  0  0  0  0  0
    1.3814    0.5447    1.2102 C   0  0  0  0  0  0  0  0  0  0  0  0
    2.0793   -0.6829    1.1939 N   0  0  0  0  0  0  0  0  0  0  0  0
    3.5100   -0.7788    1.4092 C   0  0  1  0  0  0  0  0  0  0  0  0
    4.1447   -1.9855    1.9388 C   0  0  0  0  0  0  0  0  0  0  0  0
    4.1741   -1.8009    0.4697 C   0  0  2  0  0  0  0  0  0  0  0  0
    5.3443   -1.2550   -0.2219 C   0  0  0  0  0  0  0  0  0  0  0  0
    6.2500   -0.3879    0.3809 C   0  0  0  0  0  0  0  0  0  0  0  0
    7.3385    0.1036   -0.3042 C   0  0  0  0  0  0  0  0  0  0  0  0
    7.5814   -0.2386   -1.6144 C   0  0  0  0  0  0  0  0  0  0  0  0
    6.6936   -1.0963   -2.2252 C   0  0  0  0  0  0  0  0  0  0  0  0
    5.5906   -1.5953   -1.5332 C   0  0  0  0  0  0  0  0  0  0  0  0
   -0.0127    0.5591    0.9925 N   0  0  0  0  0  0  0  0  0  0  0  0
   -0.7913    1.7951    0.9943 C   0  0  0  0  0  0  0  0  0  0  0  0
   -1.7015    1.6816   -0.2358 C   0  0  0  0  0  0  0  0  0  0  0  0
   -2.7201    0.5707   -0.0117 C   0  0  0  0  0  0  0  0  0  0  0  0
   -2.1722   -0.4971    0.9303 C   0  0  0  0  0  0  0  0  0  0  0  0
   -0.6859   -0.7071    0.7602 C   0  0  0  0  0  0  0  0  0  0  0  0
   -2.9782   -0.0860   -1.3232 C   0  0  0  0  0  0  0  0  0  0  0  0
   -4.4163   -0.1984   -1.6650 C   0  0  0  0  0  0  0  0  0  0  0  0
   -4.7139   -0.8822   -2.6768 O   0  0  0  0  0  0  0  0  0  0  0  0
   -5.4711    0.4327   -0.8988 C   0  0  0  0  0  0  0  0  0  0  0  0
   -6.7997    0.3986   -1.2575 C   0  0  0  0  0  0  0  0  0  0  0  0
   -7.7534    1.0269   -0.4728 C   0  0  0  0  0  0  0  0  0  0  0  0
   -7.3707    1.6975    0.6857 C   0  0  0  0  0  0  0  0  0  0  0  0
   -6.0462    1.7442    1.0636 C   0  0  0  0  0  0  0  0  0  0  0  0
   -5.1299    1.1048    0.2525 C   0  0  0  0  0  0  0  0  0  0  0  0
   -3.8167    1.1456    0.6184 O   0  0  0  0  0  0  0  0  0  0  0  0
    1.5639   -1.5521    1.0229 H   0  0  0  0  0  0  0  0  0  0  0  0
    3.9985    0.1779    1.5856 H   0  0  0  0  0  0  0  0  0  0  0  0
    3.5019   -2.7937    2.3446 H   0  0  0  0  0  0  0  0  0  0  0  0
    5.0868   -1.8608    2.5451 H   0  0  0  0  0  0  0  0  0  0  0  0
    3.5334   -2.4665   -0.1198 H   0  0  0  0  0  0  0  0  0  0  0  0
    6.0666   -0.1139    1.4098 H   0  0  0  0  0  0  0  0  0  0  0  0
    8.0191    0.7723    0.1924 H   0  0  0  0  0  0  0  0  0  0  0  0
    8.4358    0.1414   -2.1674 H   0  0  0  0  0  0  0  0  0  0  0  0
    6.8853   -1.3649   -3.2550 H   0  0  0  0  0  0  0  0  0  0  0  0
    4.8999   -2.2710   -2.0300 H   0  0  0  0  0  0  0  0  0  0  0  0
   -1.3940    1.9175    1.8961 H   0  0  0  0  0  0  0  0  0  0  0  0
   -0.1625    2.6762    0.8610 H   0  0  0  0  0  0  0  0  0  0  0  0
   -1.0237    1.4163   -1.0776 H   0  0  0  0  0  0  0  0  0  0  0  0
   -2.1784    2.6348   -0.4895 H   0  0  0  0  0  0  0  0  0  0  0  0
   -2.6669   -1.4542    0.6512 H   0  0  0  0  0  0  0  0  0  0  0  0
   -2.3756   -0.2845    1.9801 H   0  0  0  0  0  0  0  0  0  0  0  0
   -0.3986   -1.1051   -0.2117 H   0  0  0  0  0  0  0  0  0  0  0  0
   -0.3811   -1.3799    1.5944 H   0  0  0  0  0  0  0  0  0  0  0  0
   -2.4926    0.4573   -2.1667 H   0  0  0  0  0  0  0  0  0  0  0  0
   -2.5651   -1.1343   -1.3755 H   0  0  0  0  0  0  0  0  0  0  0  0
   -7.0992   -0.1298   -2.1698 H   0  0  0  0  0  0  0  0  0  0  0  0
   -8.7901    0.9961   -0.7595 H   0  0  0  0  0  0  0  0  0  0  0  0
   -8.1461    2.1838    1.2846 H   0  0  0  0  0  0  0  0  0  0  0  0
   -5.7682    2.2695    1.9660 H   0  0  0  0  0  0  0  0  0  0  0  0
  1  2  2  0
  2  3  1  0
  3  4  1  0
  4  5  1  0
  5  6  1  0
  6  7  1  0
  7  8  2  0
  8  9  1  0
  9 10  2  0
 10 11  1  0
 11 12  2  0
  2 13  1  0
 13 14  1  0
 14 15  1  0
 15 16  1  0
 16 17  1  0
 17 18  1  0
 16 19  1  0
 19 20  1  0
 20 21  2  0
 20 22  1  0
 22 23  2  0
 23 24  1  0
 24 25  2  0
 25 26  1  0
 26 27  2  0
 27 28  1  0
  6  4  1  0
 12  7  1  0
 18 13  1  0
 27 22  1  0
 28 16  1  0
  3 29  1  0
  4 30  1  1
  5 31  1  0
  5 32  1  0
  6 33  1  6
  8 34  1  0
  9 35  1  0
 10 36  1  0
 11 37  1  0
 12 38  1  0
 14 39  1  0
 14 40  1  0
 15 41  1  0
 15 42  1  0
 17 43  1  0
 17 44  1  0
 18 45  1  0
 18 46  1  0
 19 47  1  0
 19 48  1  0
 23 49  1  0
 24 50  1  0
 25 51  1  0
 26 52  1  0
M  END
$$$$
[H]O[C@@]1(C([H])=C([H])[H])C([H])([H])C([H])([H])[C@]2([H])[C@]1(C([H])([H])[H])C([H])([H])C([H])([H])[C@]1([H])[C@]3(C([H])([H])[H])C(=C([H])C(=O)C([H])([H])C3([H])[H])C([H])([H])C([H])([H])[C@@]21[H]
     RDKit          3D

 53 56  0  0  0  0  0  0  0  0999 V2000
    1.8002    0.0577    1.8739 C   0  0  0  0  0  0  0  0  0  0  0  0
    1.8784    0.3394    0.4145 C   0  0  2  0  0  0  0  0  0  0  0  0
    1.2239    1.6339    0.0578 C   0  0  0  0  0  0  0  0  0  0  0  0
   -0.2563    1.5599    0.2536 C   0  0  0  0  0  0  0  0  0  0  0  0
   -0.9221    0.3831   -0.3338 C   0  0  1  0  0  0  0  0  0  0  0  0
   -0.1859   -0.9299   -0.1211 C   0  0  1  0  0  0  0  0  0  0  0  0
   -0.7720   -1.9485   -1.0774 C   0  0  0  0  0  0  0  0  0  0  0  0
   -2.2658   -2.0878   -0.9609 C   0  0  0  0  0  0  0  0  0  0  0  0
   -2.9603   -0.7895   -0.7807 C   0  0  0  0  0  0  0  0  0  0  0  0
   -4.0865   -0.5982   -1.4384 C   0  0  0  0  0  0  0  0  0  0  0  0
   -4.7818    0.6657   -1.2761 C   0  0  0  0  0  0  0  0  0  0  0  0
   -6.0190    0.7173   -1.4566 O   0  0  0  0  0  0  0  0  0  0  0  0
   -3.9467    1.8356   -0.8969 C   0  0  0  0  0  0  0  0  0  0  0  0
   -3.1009    1.4523    0.3140 C   0  0  0  0  0  0  0  0  0  0  0  0
   -2.3284    0.1963    0.1325 C   0  0  2  0  0  0  0  0  0  0  0  0
   -2.2904   -0.4926    1.5062 C   0  0  0  0  0  0  0  0  0  0  0  0
    1.2317   -0.7154   -0.4520 C   0  0  2  0  0  0  0  0  0  0  0  0
    2.1619   -1.8550   -0.3190 C   0  0  0  0  0  0  0  0  0  0  0  0
    3.4917   -1.1458   -0.6349 C   0  0  0  0  0  0  0  0  0  0  0  0
    3.3184    0.2380   -0.0112 C   0  0  2  0  0  0  0  0  0  0  0  0
    4.1638    0.2312    1.1239 O   0  0  0  0  0  0  0  0  0  0  0  0
    3.7794    1.3200   -0.8734 C   0  0  0  0  0  0  0  0  0  0  0  0
    4.7225    1.1101   -1.7659 C   0  0  0  0  0  0  0  0  0  0  0  0
    2.6748   -0.5381    2.2639 H   0  0  0  0  0  0  0  0  0  0  0  0
    0.8905   -0.4121    2.2299 H   0  0  0  0  0  0  0  0  0  0  0  0
    1.8790    1.0503    2.4076 H   0  0  0  0  0  0  0  0  0  0  0  0
    1.3924    1.8139   -1.0364 H   0  0  0  0  0  0  0  0  0  0  0  0
    1.6449    2.4293    0.6927 H   0  0  0  0  0  0  0  0  0  0  0  0
   -0.6713    2.4762   -0.2654 H   0  0  0  0  0  0  0  0  0  0  0  0
   -0.4649    1.6292    1.3316 H   0  0  0  0  0  0  0  0  0  0  0  0
   -0.9637    0.5189   -1.4513 H   0  0  0  0  0  0  0  0  0  0  0  0
   -0.3418   -1.3387    0.8979 H   0  0  0  0  0  0  0  0  0  0  0  0
   -0.4853   -1.7599   -2.1212 H   0  0  0  0  0  0  0  0  0  0  0  0
   -0.3337   -2.9420   -0.7739 H   0  0  0  0  0  0  0  0  0  0  0  0
   -2.6177   -2.5549   -1.9074 H   0  0  0  0  0  0  0  0  0  0  0  0
   -2.5404   -2.8292   -0.1643 H   0  0  0  0  0  0  0  0  0  0  0  0
   -4.4982   -1.3738   -2.0982 H   0  0  0  0  0  0  0  0  0  0  0  0
   -4.6338    2.6371   -0.5444 H   0  0  0  0  0  0  0  0  0  0  0  0
   -3.3433    2.2262   -1.7181 H   0  0  0  0  0  0  0  0  0  0  0  0
   -2.5182    2.3302    0.5769 H   0  0  0  0  0  0  0  0  0  0  0  0
   -3.8521    1.3189    1.1485 H   0  0  0  0  0  0  0  0  0  0  0  0
   -3.2348   -0.2328    2.0709 H   0  0  0  0  0  0  0  0  0  0  0  0
   -2.2929   -1.5824    1.4265 H   0  0  0  0  0  0  0  0  0  0  0  0
   -1.4756   -0.0617    2.1030 H   0  0  0  0  0  0  0  0  0  0  0  0
    1.2967   -0.3331   -1.5035 H   0  0  0  0  0  0  0  0  0  0  0  0
    2.2696   -2.2443    0.7007 H   0  0  0  0  0  0  0  0  0  0  0  0
    1.9874   -2.6924   -1.0194 H   0  0  0  0  0  0  0  0  0  0  0  0
    4.3502   -1.6878   -0.2438 H   0  0  0  0  0  0  0  0  0  0  0  0
    3.4930   -0.9935   -1.7325 H   0  0  0  0  0  0  0  0  0  0  0  0
    4.9395   -0.3685    0.9918 H   0  0  0  0  0  0  0  0  0  0  0  0
    3.3529    2.3030   -0.7882 H   0  0  0  0  0  0  0  0  0  0  0  0
    5.1845    0.1320   -1.8883 H   0  0  0  0  0  0  0  0  0  0  0  0
    5.0564    1.9025   -2.3936 H   0  0  0  0  0  0  0  0  0  0  0  0
  2  1  1  1
  2  3  1  0
  3  4  1  0
  4  5  1  0
  5  6  1  0
  6  7  1  0
  7  8  1  0
  8  9  1  0
  9 10  2  0
 10 11  1  0
 11 12  2  0
 11 13  1  0
 13 14  1  0
 14 15  1  0
 15 16  1  1
  6 17  1  0
 17 18  1  0
 18 19  1  0
 19 20  1  0
 20 21  1  1
 20 22  1  0
 22 23  2  3
 17  2  1  0
 20  2  1  0
 15  5  1  0
 15  9  1  0
  1 24  1  0
  1 25  1  0
  1 26  1  0
  3 27  1  0
  3 28  1  0
  4 29  1  0
  4 30  1  0
  5 31  1  6
  6 32  1  1
  7 33  1  0
  7 34  1  0
  8 35  1  0
  8 36  1  0
 10 37  1  0
 13 38  1  0
 13 39  1  0
 14 40  1  0
 14 41  1  0
 16 42  1  0
 16 43  1  0
 16 44  1  0
 17 45  1  6
 18 46  1  0
 18 47  1  0
 19 48  1  0
 19 49  1  0
 21 50  1  0
 22 51  1  0
 23 52  1  0
 23 53  1  0
M  END
$$$$
[H]ON([H])C(=O)C(N([H])C(=O)[C@@]1([H])N(C(=O)[C@]([H])(C([H])([H])N(O[H])C([H])=O)C([H])([H])C([H])([H])C([H])([H])C([H])([H])[H])C([H])([H])C([H])([H])C1([H])[H])(C([H])([H])[H])C([H])([H])[H]
     RDKit          3D

 57 57  0  0  0  0  0  0  0  0999 V2000
   -2.7395    3.8144    2.2460 C   0  0  0  0  0  0  0  0  0  0  0  0
   -1.4528    3.5632    1.4509 C   0  0  0  0  0  0  0  0  0  0  0  0
   -1.6966    2.2939    0.6373 C   0  0  0  0  0  0  0  0  0  0  0  0
   -1.9793    1.1989    1.6206 C   0  0  0  0  0  0  0  0  0  0  0  0
   -2.2448   -0.1410    0.9135 C   0  0  1  0  0  0  0  0  0  0  0  0
   -3.3801   -0.0876    0.0216 C   0  0  0  0  0  0  0  0  0  0  0  0
   -3.7005   -1.3177   -0.6534 N   0  0  0  0  0  0  0  0  0  0  0  0
   -4.5384   -2.1947    0.0150 O   0  0  0  0  0  0  0  0  0  0  0  0
   -3.2343   -1.7087   -1.9279 C   0  0  0  0  0  0  0  0  0  0  0  0
   -3.5893   -2.8575   -2.3693 O   0  0  0  0  0  0  0  0  0  0  0  0
   -0.9265   -0.6489    0.4807 C   0  0  0  0  0  0  0  0  0  0  0  0
   -0.7006   -0.4144   -0.7336 O   0  0  0  0  0  0  0  0  0  0  0  0
   -0.0181   -1.3079    1.2973 N   0  0  0  0  0  0  0  0  0  0  0  0
   -0.2147   -1.6794    2.7256 C   0  0  0  0  0  0  0  0  0  0  0  0
    0.5992   -2.9455    2.9040 C   0  0  0  0  0  0  0  0  0  0  0  0
    1.0627   -3.2537    1.4953 C   0  0  0  0  0  0  0  0  0  0  0  0
    1.2852   -1.8248    1.0510 C   0  0  1  0  0  0  0  0  0  0  0  0
    1.9901   -1.5942   -0.1597 C   0  0  0  0  0  0  0  0  0  0  0  0
    2.4521   -2.5543   -0.8509 O   0  0  0  0  0  0  0  0  0  0  0  0
    2.2233   -0.2858   -0.6603 N   0  0  0  0  0  0  0  0  0  0  0  0
    2.9320   -0.0239   -1.8830 C   0  0  0  0  0  0  0  0  0  0  0  0
    2.2453   -0.6667   -3.0672 C   0  0  0  0  0  0  0  0  0  0  0  0
    4.3580   -0.5213   -1.8563 C   0  0  0  0  0  0  0  0  0  0  0  0
    2.9707    1.4283   -2.1383 C   0  0  0  0  0  0  0  0  0  0  0  0
    2.4347    2.2397   -1.3505 O   0  0  0  0  0  0  0  0  0  0  0  0
    3.6208    1.9700   -3.2938 N   0  0  0  0  0  0  0  0  0  0  0  0
    3.6619    3.2943   -3.5357 O   0  0  0  0  0  0  0  0  0  0  0  0
   -3.6150    3.3914    1.6765 H   0  0  0  0  0  0  0  0  0  0  0  0
   -2.9419    4.9041    2.3352 H   0  0  0  0  0  0  0  0  0  0  0  0
   -2.6944    3.3421    3.2396 H   0  0  0  0  0  0  0  0  0  0  0  0
   -0.5779    3.4885    2.0959 H   0  0  0  0  0  0  0  0  0  0  0  0
   -1.3872    4.4231    0.7323 H   0  0  0  0  0  0  0  0  0  0  0  0
   -2.5543    2.5264   -0.0272 H   0  0  0  0  0  0  0  0  0  0  0  0
   -0.8285    2.0706   -0.0205 H   0  0  0  0  0  0  0  0  0  0  0  0
   -1.1090    1.1081    2.2967 H   0  0  0  0  0  0  0  0  0  0  0  0
   -2.8761    1.5025    2.1972 H   0  0  0  0  0  0  0  0  0  0  0  0
   -2.5202   -0.8162    1.7904 H   0  0  0  0  0  0  0  0  0  0  0  0
   -3.3876    0.7826   -0.6933 H   0  0  0  0  0  0  0  0  0  0  0  0
   -4.2983    0.1466    0.6538 H   0  0  0  0  0  0  0  0  0  0  0  0
   -5.3046   -2.3316   -0.5990 H   0  0  0  0  0  0  0  0  0  0  0  0
   -2.6021   -1.1235   -2.5742 H   0  0  0  0  0  0  0  0  0  0  0  0
    0.1326   -0.8897    3.3894 H   0  0  0  0  0  0  0  0  0  0  0  0
   -1.2659   -1.9963    2.8824 H   0  0  0  0  0  0  0  0  0  0  0  0
    0.0152   -3.7812    3.3403 H   0  0  0  0  0  0  0  0  0  0  0  0
    1.5320   -2.7562    3.4932 H   0  0  0  0  0  0  0  0  0  0  0  0
    0.2504   -3.6540    0.8543 H   0  0  0  0  0  0  0  0  0  0  0  0
    1.9528   -3.8795    1.4456 H   0  0  0  0  0  0  0  0  0  0  0  0
    1.8961   -1.3627    1.9408 H   0  0  0  0  0  0  0  0  0  0  0  0
    1.8735    0.5181   -0.0987 H   0  0  0  0  0  0  0  0  0  0  0  0
    2.6555   -1.7084   -3.1674 H   0  0  0  0  0  0  0  0  0  0  0  0
    1.1606   -0.7488   -2.9683 H   0  0  0  0  0  0  0  0  0  0  0  0
    2.5301   -0.1466   -4.0110 H   0  0  0  0  0  0  0  0  0  0  0  0
    4.8255   -0.4489   -0.8689 H   0  0  0  0  0  0  0  0  0  0  0  0
    4.9437    0.1194   -2.5479 H   0  0  0  0  0  0  0  0  0  0  0  0
    4.4406   -1.5684   -2.2603 H   0  0  0  0  0  0  0  0  0  0  0  0
    4.0950    1.3529   -4.0037 H   0  0  0  0  0  0  0  0  0  0  0  0
    4.2388    3.7608   -2.9024 H   0  0  0  0  0  0  0  0  0  0  0  0
  1  2  1  0
  2  3  1  0
  3  4  1  0
  4  5  1  0
  5  6  1  0
  6  7  1  0
  7  8  1  0
  7  9  1  0
  9 10  2  0
  5 11  1  0
 11 12  2  0
 11 13  1  0
 13 14  1  0
 14 15  1  0
 15 16  1  0
 16 17  1  0
 17 18  1  0
 18 19  2  0
 18 20  1  0
 20 21  1  0
 21 22  1  0
 21 23  1  0
 21 24  1  0
 24 25  2  0
 24 26  1  0
 26 27  1  0
 17 13  1  0
  1 28  1  0
  1 29  1  0
  1 30  1  0
  2 31  1  0
  2 32  1  0
  3 33  1  0
  3 34  1  0
  4 35  1  0
  4 36  1  0
  5 37  1  1
  6 38  1  0
  6 39  1  0
  8 40  1  0
  9 41  1  0
 14 42  1  0
 14 43  1  0
 15 44  1  0
 15 45  1  0
 16 46  1  0
 16 47  1  0
 17 48  1  1
 20 49  1  0
 22 50  1  0
 22 51  1  0
 22 52  1  0
 23 53  1  0
 23 54  1  0
 23 55  1  0
 26 56  1  0
 27 57  1  0
M  END
$$$$
[H]Oc1c([H])c(C([H])([H])[H])c2c(oc(=O)c3c(O[H])c([H])c(OC([H])([H])[H])c([H])c32)c1O[H]
     RDKit          3D

 33 35  0  0  0  0  0  0  0  0999 V2000
    3.9081   -1.4397   -0.4085 C   0  0  0  0  0  0  0  0  0  0  0  0
    3.8448   -0.0424   -0.2785 O   0  0  0  0  0  0  0  0  0  0  0  0
    2.6523    0.6233   -0.1303 C   0  0  0  0  0  0  0  0  0  0  0  0
    2.6105    1.9874   -0.0049 C   0  0  0  0  0  0  0  0  0  0  0  0
    1.4370    2.6660    0.1428 C   0  0  0  0  0  0  0  0  0  0  0  0
    1.3731    4.0551    0.2718 O   0  0  0  0  0  0  0  0  0  0  0  0
    0.2682    1.9415    0.1647 C   0  0  0  0  0  0  0  0  0  0  0  0
    0.2805    0.5484    0.0395 C   0  0  0  0  0  0  0  0  0  0  0  0
    1.4558   -0.1263   -0.1089 C   0  0  0  0  0  0  0  0  0  0  0  0
   -0.9249   -0.1348    0.0620 C   0  0  0  0  0  0  0  0  0  0  0  0
   -0.9599   -1.4952   -0.0541 C   0  0  0  0  0  0  0  0  0  0  0  0
    0.1738   -2.3777   -0.1851 C   0  0  0  0  0  0  0  0  0  0  0  0
   -2.2594   -2.0742   -0.0181 C   0  0  0  0  0  0  0  0  0  0  0  0
   -3.4034   -1.3403    0.1230 C   0  0  0  0  0  0  0  0  0  0  0  0
   -4.6452   -1.9473    0.1526 O   0  0  0  0  0  0  0  0  0  0  0  0
   -3.3156    0.0109    0.2360 C   0  0  0  0  0  0  0  0  0  0  0  0
   -4.4509    0.7932    0.3813 O   0  0  0  0  0  0  0  0  0  0  0  0
   -2.0864    0.6288    0.2076 C   0  0  0  0  0  0  0  0  0  0  0  0
   -2.0471    1.9427    0.3214 O   0  0  0  0  0  0  0  0  0  0  0  0
   -0.9422    2.6147    0.3066 C   0  0  0  0  0  0  0  0  0  0  0  0
   -0.9260    3.8544    0.4160 O   0  0  0  0  0  0  0  0  0  0  0  0
    3.3644   -1.9641    0.4174 H   0  0  0  0  0  0  0  0  0  0  0  0
    4.9476   -1.8210   -0.3623 H   0  0  0  0  0  0  0  0  0  0  0  0
    3.4139   -1.7501   -1.3534 H   0  0  0  0  0  0  0  0  0  0  0  0
    3.5185    2.5673   -0.0196 H   0  0  0  0  0  0  0  0  0  0  0  0
    2.1633    4.6553    0.2669 H   0  0  0  0  0  0  0  0  0  0  0  0
    1.6154   -1.1341   -0.2232 H   0  0  0  0  0  0  0  0  0  0  0  0
    0.6370   -2.5039   -1.1871 H   0  0  0  0  0  0  0  0  0  0  0  0
    0.7987   -2.5834    0.7157 H   0  0  0  0  0  0  0  0  0  0  0  0
   -0.2937   -3.4423   -0.1810 H   0  0  0  0  0  0  0  0  0  0  0  0
   -2.3326   -3.1543   -0.1094 H   0  0  0  0  0  0  0  0  0  0  0  0
   -5.4554   -1.3586    0.2585 H   0  0  0  0  0  0  0  0  0  0  0  0
   -4.4204    1.8005    0.4679 H   0  0  0  0  0  0  0  0  0  0  0  0
  1  2  1  0
  2  3  1  0
  3  4  2  0
  4  5  1  0
  5  6  1  0
  5  7  2  0
  7  8  1  0
  8  9  2  0
  8 10  1  0
 10 11  2  0
 11 12  1  0
 11 13  1  0
 13 14  2  0
 14 15  1  0
 14 16  1  0
 16 17  1  0
 16 18  2  0
 18 19  1  0
 19 20  1  0
 20 21  2  0
  9  3  1  0
 18 10  1  0
 20  7  1  0
  1 22  1  0
  1 23  1  0
  1 24  1  0
  4 25  1  0
  6 26  1  0
  9 27  1  0
 12 28  1  0
 12 29  1  0
 12 30  1  0
 13 31  1  0
 15 32  1  0
 17 33  1  0
M  END
$$$$
[H]OC1([H])C([H])([H])[C@]2([H])N(C([H])([H])[H])[C@@]([H])(C1([H])[H])C([H])([H])C2([H])[H]
     RDKit          2D

 25 26  0  0  0  0  0  0  0  0999 V2000
    2.7760    0.0000    0.0000 C   0  0  0  0  0  0  0  0  0  0  0  0
    1.2760    0.0000    0.0000 N   0  0  0  0  0  0  0  0  0  0  0  0
    0.3943    1.2135    0.0000 C   0  0  0  0  0  0  0  0  0  0  0  0
   -1.0323    0.7500    0.0000 C   0  0  0  0  0  0  0  0  0  0  0  0
   -1.0323   -0.7500    0.0000 C   0  0  0  0  0  0  0  0  0  0  0  0
    0.3943   -1.2135    0.0000 C   0  0  0  0  0  0  0  0  0  0  0  0
    1.8943   -1.3846    0.0000 C   0  0  0  0  0  0  0  0  0  0  0  0
    2.6443   -0.0855    0.0000 C   0  0  0  0  0  0  0  0  0  0  0  0
    3.7934    0.8787    0.0000 O   0  0  0  0  0  0  0  0  0  0  0  0
    1.8943    1.2135    0.0000 C   0  0  0  0  0  0  0  0  0  0  0  0
    4.2760    0.0000    0.0000 H   0  0  0  0  0  0  0  0  0  0  0  0
    2.9588   -1.4888    0.0000 H   0  0  0  0  0  0  0  0  0  0  0  0
    2.9588    1.4888    0.0000 H   0  0  0  0  0  0  0  0  0  0  0  0
    0.6805    2.6860    0.0000 H   0  0  0  0  0  0  0  0  0  0  0  0
   -2.5241    0.5932    0.0000 H   0  0  0  0  0  0  0  0  0  0  0  0
   -1.3442    2.2172    0.0000 H   0  0  0  0  0  0  0  0  0  0  0  0
   -1.3442   -2.2172    0.0000 H   0  0  0  0  0  0  0  0  0  0  0  0
   -2.5241   -0.5932    0.0000 H   0  0  0  0  0  0  0  0  0  0  0  0
    0.6805   -2.6860    0.0000 H   0  0  0  0  0  0  0  0  0  0  0  0
    3.2308   -2.0656    0.0000 H   0  0  0  0  0  0  0  0  0  0  0  0
    1.8158   -2.8825    0.0000 H   0  0  0  0  0  0  0  0  0  0  0  0
    3.7934   -1.0497    0.0000 H   0  0  0  0  0  0  0  0  0  0  0  0
    5.2029    0.3656    0.0000 H   0  0  0  0  0  0  0  0  0  0  0  0
    1.8158    2.7115    0.0000 H   0  0  0  0  0  0  0  0  0  0  0  0
    3.2308    1.8945    0.0000 H   0  0  0  0  0  0  0  0  0  0  0  0
  1  2  1  0
  2  3  1  0
  3  4  1  0
  4  5  1  0
  5  6  1  0
  6  7  1  0
  7  8  1  0
  8  9  1  0
  8 10  1  0
  6  2  1  0
 10  3  1  0
  1 11  1  0
  1 12  1  0
  1 13  1  0
  3 14  1  1
  4 15  1  0
  4 16  1  0
  5 17  1  0
  5 18  1  0
  6 19  1  6
  7 20  1  0
  7 21  1  0
  8 22  1  0
  9 23  1  0
 10 24  1  0
 10 25  1  0
M  END
$$$$
[H]OC(=O)[C@]([H])(Oc1c([H])c([H])c(-c2c([H])c([H])c(-c3c(C([H])([H])c4c([H])c([H])c([H])c([H])c4[H])c([H])nc4c([H])c([H])c([H])c([H])c34)c([H])c2[H])c([H])c1[H])C([H])([H])c1c([H])c([H])c([H])c([H])c1[H]
     RDKit          3D

 70 75  0  0  0  0  0  0  0  0999 V2000
    7.5461   -2.5274    1.4940 O   0  0  0  0  0  0  0  0  0  0  0  0
    6.6570   -1.8880    0.6560 C   0  0  0  0  0  0  0  0  0  0  0  0
    6.6021   -2.2069   -0.5462 O   0  0  0  0  0  0  0  0  0  0  0  0
    5.7788   -0.8345    1.1908 C   0  0  1  0  0  0  0  0  0  0  0  0
    6.5836    0.3412    1.7491 C   0  0  0  0  0  0  0  0  0  0  0  0
    7.4293    0.9910    0.7410 C   0  0  0  0  0  0  0  0  0  0  0  0
    8.7413    0.5862    0.5505 C   0  0  0  0  0  0  0  0  0  0  0  0
    9.5065    1.2233   -0.4234 C   0  0  0  0  0  0  0  0  0  0  0  0
    8.9505    2.2349   -1.1722 C   0  0  0  0  0  0  0  0  0  0  0  0
    7.6276    2.6294   -0.9662 C   0  0  0  0  0  0  0  0  0  0  0  0
    6.8724    2.0058   -0.0103 C   0  0  0  0  0  0  0  0  0  0  0  0
    4.9443   -0.3984    0.1610 O   0  0  0  0  0  0  0  0  0  0  0  0
    3.5975   -0.4851    0.1087 C   0  0  0  0  0  0  0  0  0  0  0  0
    2.8117   -1.0348    1.0692 C   0  0  0  0  0  0  0  0  0  0  0  0
    1.4207   -1.0831    0.9325 C   0  0  0  0  0  0  0  0  0  0  0  0
    0.8046   -0.5763   -0.1768 C   0  0  0  0  0  0  0  0  0  0  0  0
    1.5905   -0.0144   -1.1608 C   0  0  0  0  0  0  0  0  0  0  0  0
    2.9712    0.0373   -1.0331 C   0  0  0  0  0  0  0  0  0  0  0  0
   -0.6392   -0.6476   -0.2920 C   0  0  0  0  0  0  0  0  0  0  0  0
   -1.2427   -0.7645   -1.5398 C   0  0  0  0  0  0  0  0  0  0  0  0
   -2.6112   -0.8311   -1.5965 C   0  0  0  0  0  0  0  0  0  0  0  0
   -3.3654   -0.7813   -0.4186 C   0  0  0  0  0  0  0  0  0  0  0  0
   -2.7575   -0.6658    0.8068 C   0  0  0  0  0  0  0  0  0  0  0  0
   -1.3904   -0.5991    0.8634 C   0  0  0  0  0  0  0  0  0  0  0  0
   -4.8050   -0.8845   -0.5460 C   0  0  0  0  0  0  0  0  0  0  0  0
   -5.5662    0.1455   -0.9893 C   0  0  0  0  0  0  0  0  0  0  0  0
   -5.0617    1.4519   -1.3807 C   0  0  0  0  0  0  0  0  0  0  0  0
   -4.7988    2.4151   -0.3057 C   0  0  0  0  0  0  0  0  0  0  0  0
   -3.5899    2.8880    0.1044 C   0  0  0  0  0  0  0  0  0  0  0  0
   -3.4730    3.7877    1.1226 C   0  0  0  0  0  0  0  0  0  0  0  0
   -4.5897    4.2740    1.8015 C   0  0  0  0  0  0  0  0  0  0  0  0
   -5.8337    3.8136    1.4096 C   0  0  0  0  0  0  0  0  0  0  0  0
   -5.9129    2.9116    0.3847 C   0  0  0  0  0  0  0  0  0  0  0  0
   -6.9633   -0.0518   -1.0836 C   0  0  0  0  0  0  0  0  0  0  0  0
   -7.4855   -1.2319   -0.7380 N   0  0  0  0  0  0  0  0  0  0  0  0
   -6.7158   -2.2558   -0.2965 C   0  0  0  0  0  0  0  0  0  0  0  0
   -7.2780   -3.4747    0.0496 C   0  0  0  0  0  0  0  0  0  0  0  0
   -6.4884   -4.5145    0.4904 C   0  0  0  0  0  0  0  0  0  0  0  0
   -5.1216   -4.3979    0.6077 C   0  0  0  0  0  0  0  0  0  0  0  0
   -4.5656   -3.1597    0.2546 C   0  0  0  0  0  0  0  0  0  0  0  0
   -5.3495   -2.1185   -0.1853 C   0  0  0  0  0  0  0  0  0  0  0  0
    7.8666   -3.4628    1.3501 H   0  0  0  0  0  0  0  0  0  0  0  0
    5.1711   -1.2055    2.0356 H   0  0  0  0  0  0  0  0  0  0  0  0
    7.1418   -0.0353    2.6246 H   0  0  0  0  0  0  0  0  0  0  0  0
    5.8032    1.0513    2.1361 H   0  0  0  0  0  0  0  0  0  0  0  0
    9.1666   -0.2006    1.1439 H   0  0  0  0  0  0  0  0  0  0  0  0
   10.5269    0.8750   -0.5398 H   0  0  0  0  0  0  0  0  0  0  0  0
    9.5398    2.7337   -1.9304 H   0  0  0  0  0  0  0  0  0  0  0  0
    7.2658    3.4280   -1.5922 H   0  0  0  0  0  0  0  0  0  0  0  0
    5.8594    2.3075    0.1485 H   0  0  0  0  0  0  0  0  0  0  0  0
    3.2425   -1.4486    1.9590 H   0  0  0  0  0  0  0  0  0  0  0  0
    0.8427   -1.5276    1.7172 H   0  0  0  0  0  0  0  0  0  0  0  0
    1.1105    0.3856   -2.0360 H   0  0  0  0  0  0  0  0  0  0  0  0
    3.5804    0.4778   -1.8050 H   0  0  0  0  0  0  0  0  0  0  0  0
   -0.5954   -0.7979   -2.4217 H   0  0  0  0  0  0  0  0  0  0  0  0
   -3.1034   -0.9213   -2.5416 H   0  0  0  0  0  0  0  0  0  0  0  0
   -3.3323   -0.6283    1.7033 H   0  0  0  0  0  0  0  0  0  0  0  0
   -0.9088   -0.5062    1.8446 H   0  0  0  0  0  0  0  0  0  0  0  0
   -4.0839    1.3397   -1.9393 H   0  0  0  0  0  0  0  0  0  0  0  0
   -5.7225    1.9552   -2.1484 H   0  0  0  0  0  0  0  0  0  0  0  0
   -2.7059    2.5088   -0.4263 H   0  0  0  0  0  0  0  0  0  0  0  0
   -2.4928    4.1635    1.4466 H   0  0  0  0  0  0  0  0  0  0  0  0
   -4.5090    4.9893    2.6126 H   0  0  0  0  0  0  0  0  0  0  0  0
   -6.7229    4.1871    1.9344 H   0  0  0  0  0  0  0  0  0  0  0  0
   -6.9143    2.5633    0.0945 H   0  0  0  0  0  0  0  0  0  0  0  0
   -7.5608    0.7816   -1.4396 H   0  0  0  0  0  0  0  0  0  0  0  0
   -8.3566   -3.5609   -0.0451 H   0  0  0  0  0  0  0  0  0  0  0  0
   -6.9435   -5.4631    0.7578 H   0  0  0  0  0  0  0  0  0  0  0  0
   -4.4953   -5.2097    0.9530 H   0  0  0  0  0  0  0  0  0  0  0  0
   -3.5007   -3.0886    0.3427 H   0  0  0  0  0  0  0  0  0  0  0  0
  1  2  1  0
  2  3  2  0
  2  4  1  0
  4  5  1  0
  5  6  1  0
  6  7  2  0
  7  8  1  0
  8  9  2  0
  9 10  1  0
 10 11  2  0
  4 12  1  0
 12 13  1  0
 13 14  2  0
 14 15  1  0
 15 16  2  0
 16 17  1  0
 17 18  2  0
 16 19  1  0
 19 20  2  0
 20 21  1  0
 21 22  2  0
 22 23  1  0
 23 24  2  0
 22 25  1  0
 25 26  1  0
 26 27  1  0
 27 28  1  0
 28 29  2  0
 29 30  1  0
 30 31  2  0
 31 32  1  0
 32 33  2  0
 26 34  2  0
 34 35  1  0
 35 36  2  0
 36 37  1  0
 37 38  2  0
 38 39  1  0
 39 40  2  0
 40 41  1  0
 11  6  1  0
 18 13  1  0
 24 19  1  0
 41 25  2  0
 33 28  1  0
 41 36  1  0
  1 42  1  0
  4 43  1  1
  5 44  1  0
  5 45  1  0
  7 46  1  0
  8 47  1  0
  9 48  1  0
 10 49  1  0
 11 50  1  0
 14 51  1  0
 15 52  1  0
 17 53  1  0
 18 54  1  0
 20 55  1  0
 21 56  1  0
 23 57  1  0
 24 58  1  0
 27 59  1  0
 27 60  1  0
 29 61  1  0
 30 62  1  0
 31 63  1  0
 32 64  1  0
 33 65  1  0
 34 66  1  0
 37 67  1  0
 38 68  1  0
 39 69  1  0
 40 70  1  0
M  END
$$$$
[H]N=C(N([H])[H])N([H])C([H])([H])C([H])([H])C([H])([H])[C@@]([H])(C(=O)N([H])[C@]([H])(C(=O)N([H])[C@]([H])(C(=O)N([H])[H])C([H])([H])c1c([H])n([H])c2c([H])c([H])c([H])c([H])c12)C([H])([H])C(=O)O[H])N([H])C(=O)[C@@]([H])(N([H])C(=O)[C@@]([H])(N([H])[H])C([H])([H])C([H])([H])C(=O)O[H])C([H])([H])C([H])([H])C(=O)O[H]
     RDKit          3D

 96 97  0  0  0  0  0  0  0  0999 V2000
   -0.7655    5.5236    3.0658 N   0  0  0  0  0  0  0  0  0  0  0  0
   -1.6700    4.9835    2.1385 C   0  0  0  0  0  0  0  0  0  0  0  0
   -2.9362    5.2097    2.2994 N   0  0  0  0  0  0  0  0  0  0  0  0
   -1.2038    4.2077    1.0537 N   0  0  0  0  0  0  0  0  0  0  0  0
   -1.4489    4.6249   -0.2989 C   0  0  0  0  0  0  0  0  0  0  0  0
   -0.8671    3.6227   -1.3211 C   0  0  0  0  0  0  0  0  0  0  0  0
   -1.4949    2.2703   -1.1099 C   0  0  0  0  0  0  0  0  0  0  0  0
   -1.0395    1.1759   -2.0145 C   0  0  2  0  0  0  0  0  0  0  0  0
   -1.8191   -0.0342   -1.7748 N   0  0  0  0  0  0  0  0  0  0  0  0
   -3.1482   -0.2304   -1.4849 C   0  0  0  0  0  0  0  0  0  0  0  0
   -3.9632    0.7202   -1.3452 O   0  0  0  0  0  0  0  0  0  0  0  0
   -3.6998   -1.6288   -1.3169 C   0  0  2  0  0  0  0  0  0  0  0  0
   -4.0640   -2.0725   -2.7201 C   0  0  0  0  0  0  0  0  0  0  0  0
   -5.0672   -1.1717   -3.3679 C   0  0  0  0  0  0  0  0  0  0  0  0
   -5.3628   -1.6722   -4.7379 C   0  0  0  0  0  0  0  0  0  0  0  0
   -6.2163   -1.0181   -5.6024 O   0  0  0  0  0  0  0  0  0  0  0  0
   -4.8091   -2.7491   -5.1404 O   0  0  0  0  0  0  0  0  0  0  0  0
   -4.8099   -1.6576   -0.4046 N   0  0  0  0  0  0  0  0  0  0  0  0
   -4.9568   -2.6044    0.6177 C   0  0  0  0  0  0  0  0  0  0  0  0
   -4.0974   -3.4931    0.7663 O   0  0  0  0  0  0  0  0  0  0  0  0
   -6.1197   -2.5808    1.5401 C   0  0  1  0  0  0  0  0  0  0  0  0
   -6.1146   -3.7647    2.3883 N   0  0  0  0  0  0  0  0  0  0  0  0
   -6.1084   -1.3661    2.4090 C   0  0  0  0  0  0  0  0  0  0  0  0
   -7.2664   -1.2959    3.3412 C   0  0  0  0  0  0  0  0  0  0  0  0
   -7.3199   -2.4280    4.2838 C   0  0  0  0  0  0  0  0  0  0  0  0
   -6.2782   -2.5335    5.2191 O   0  0  0  0  0  0  0  0  0  0  0  0
   -8.2343   -3.2982    4.3003 O   0  0  0  0  0  0  0  0  0  0  0  0
    0.3752    0.8405   -1.9881 C   0  0  0  0  0  0  0  0  0  0  0  0
    0.7182   -0.1496   -2.7385 O   0  0  0  0  0  0  0  0  0  0  0  0
    1.3742    1.4344   -1.2589 N   0  0  0  0  0  0  0  0  0  0  0  0
    2.8034    1.0322   -1.2858 C   0  0  1  0  0  0  0  0  0  0  0  0
    3.5884    2.1543   -1.9936 C   0  0  0  0  0  0  0  0  0  0  0  0
    3.0232    2.2952   -3.3577 C   0  0  0  0  0  0  0  0  0  0  0  0
    3.6364    1.6673   -4.4515 O   0  0  0  0  0  0  0  0  0  0  0  0
    2.0009    2.9785   -3.5188 O   0  0  0  0  0  0  0  0  0  0  0  0
    3.2880    0.9038    0.0892 C   0  0  0  0  0  0  0  0  0  0  0  0
    2.4665    1.1041    1.0346 O   0  0  0  0  0  0  0  0  0  0  0  0
    4.6054    0.5772    0.4588 N   0  0  0  0  0  0  0  0  0  0  0  0
    5.0085    0.4926    1.8322 C   0  0  1  0  0  0  0  0  0  0  0  0
    5.3140   -0.8454    2.3954 C   0  0  0  0  0  0  0  0  0  0  0  0
    6.3871   -1.5967    1.7464 C   0  0  0  0  0  0  0  0  0  0  0  0
    7.7443   -1.6235    2.1249 C   0  0  0  0  0  0  0  0  0  0  0  0
    8.4172   -2.3852    1.2542 N   0  0  0  0  0  0  0  0  0  0  0  0
    7.5866   -2.8718    0.3137 C   0  0  0  0  0  0  0  0  0  0  0  0
    7.8059   -3.6883   -0.7647 C   0  0  0  0  0  0  0  0  0  0  0  0
    6.7483   -4.0347   -1.5670 C   0  0  0  0  0  0  0  0  0  0  0  0
    5.4917   -3.5601   -1.2789 C   0  0  0  0  0  0  0  0  0  0  0  0
    5.2722   -2.7461   -0.2048 C   0  0  0  0  0  0  0  0  0  0  0  0
    6.3060   -2.3720    0.6277 C   0  0  0  0  0  0  0  0  0  0  0  0
    6.0745    1.4824    2.1602 C   0  0  0  0  0  0  0  0  0  0  0  0
    6.6258    1.6639    3.4387 N   0  0  0  0  0  0  0  0  0  0  0  0
    6.4921    2.1932    1.2069 O   0  0  0  0  0  0  0  0  0  0  0  0
    0.1996    5.8373    2.7274 H   0  0  0  0  0  0  0  0  0  0  0  0
   -1.0087    5.6218    4.0561 H   0  0  0  0  0  0  0  0  0  0  0  0
   -3.5818    4.7914    1.5871 H   0  0  0  0  0  0  0  0  0  0  0  0
   -0.6737    3.3215    1.2592 H   0  0  0  0  0  0  0  0  0  0  0  0
   -2.4861    4.8744   -0.5173 H   0  0  0  0  0  0  0  0  0  0  0  0
   -0.8396    5.5622   -0.4555 H   0  0  0  0  0  0  0  0  0  0  0  0
   -1.3295    3.9932   -2.3162 H   0  0  0  0  0  0  0  0  0  0  0  0
    0.1743    3.7018   -1.4465 H   0  0  0  0  0  0  0  0  0  0  0  0
   -1.4907    1.9709   -0.0178 H   0  0  0  0  0  0  0  0  0  0  0  0
   -2.6086    2.4890   -1.2732 H   0  0  0  0  0  0  0  0  0  0  0  0
   -1.3172    1.5782   -3.0490 H   0  0  0  0  0  0  0  0  0  0  0  0
   -1.2229   -0.9332   -1.8644 H   0  0  0  0  0  0  0  0  0  0  0  0
   -2.8991   -2.2669   -0.9558 H   0  0  0  0  0  0  0  0  0  0  0  0
   -4.3689   -3.1068   -2.8169 H   0  0  0  0  0  0  0  0  0  0  0  0
   -3.1039   -1.9773   -3.3139 H   0  0  0  0  0  0  0  0  0  0  0  0
   -6.0365   -1.1103   -2.8357 H   0  0  0  0  0  0  0  0  0  0  0  0
   -4.7252   -0.1158   -3.4916 H   0  0  0  0  0  0  0  0  0  0  0  0
   -5.9126   -0.3896   -6.3525 H   0  0  0  0  0  0  0  0  0  0  0  0
   -5.5448   -0.9165   -0.5104 H   0  0  0  0  0  0  0  0  0  0  0  0
   -7.0869   -2.6034    0.9760 H   0  0  0  0  0  0  0  0  0  0  0  0
   -5.1845   -3.9226    2.8421 H   0  0  0  0  0  0  0  0  0  0  0  0
   -6.2312   -4.5942    1.7420 H   0  0  0  0  0  0  0  0  0  0  0  0
   -6.1103   -0.4879    1.7165 H   0  0  0  0  0  0  0  0  0  0  0  0
   -5.1313   -1.3799    2.9820 H   0  0  0  0  0  0  0  0  0  0  0  0
   -8.1911   -1.3278    2.6821 H   0  0  0  0  0  0  0  0  0  0  0  0
   -7.2766   -0.3178    3.9010 H   0  0  0  0  0  0  0  0  0  0  0  0
   -5.4612   -1.9386    5.1493 H   0  0  0  0  0  0  0  0  0  0  0  0
    1.1811    2.1966   -0.5582 H   0  0  0  0  0  0  0  0  0  0  0  0
    2.8774    0.0995   -1.8287 H   0  0  0  0  0  0  0  0  0  0  0  0
    3.5000    3.0984   -1.4356 H   0  0  0  0  0  0  0  0  0  0  0  0
    4.6743    1.8704   -2.0249 H   0  0  0  0  0  0  0  0  0  0  0  0
    3.6907    0.6730   -4.5391 H   0  0  0  0  0  0  0  0  0  0  0  0
    5.3051    0.3958   -0.2844 H   0  0  0  0  0  0  0  0  0  0  0  0
    4.1068    0.8632    2.4330 H   0  0  0  0  0  0  0  0  0  0  0  0
    5.6402   -0.6779    3.4641 H   0  0  0  0  0  0  0  0  0  0  0  0
    4.3574   -1.4261    2.4885 H   0  0  0  0  0  0  0  0  0  0  0  0
    8.1015   -1.0970    2.9768 H   0  0  0  0  0  0  0  0  0  0  0  0
    9.4587   -2.5772    1.2966 H   0  0  0  0  0  0  0  0  0  0  0  0
    8.7946   -4.0540   -0.9817 H   0  0  0  0  0  0  0  0  0  0  0  0
    6.8867   -4.6909   -2.4393 H   0  0  0  0  0  0  0  0  0  0  0  0
    4.6381   -3.8279   -1.9082 H   0  0  0  0  0  0  0  0  0  0  0  0
    4.2699   -2.3671    0.0416 H   0  0  0  0  0  0  0  0  0  0  0  0
    6.1369    1.3705    4.3058 H   0  0  0  0  0  0  0  0  0  0  0  0
    7.5569    2.1121    3.5315 H   0  0  0  0  0  0  0  0  0  0  0  0
  1  2  1  0
  2  3  2  3
  2  4  1  0
  4  5  1  0
  5  6  1  0
  6  7  1  0
  7  8  1  0
  8  9  1  0
  9 10  1  0
 10 11  2  0
 10 12  1  0
 12 13  1  0
 13 14  1  0
 14 15  1  0
 15 16  1  0
 15 17  2  0
 12 18  1  0
 18 19  1  0
 19 20  2  0
 19 21  1  0
 21 22  1  0
 21 23  1  0
 23 24  1  0
 24 25  1  0
 25 26  1  0
 25 27  2  0
  8 28  1  0
 28 29  2  0
 28 30  1  0
 30 31  1  0
 31 32  1  0
 32 33  1  0
 33 34  1  0
 33 35  2  0
 31 36  1  0
 36 37  2  0
 36 38  1  0
 38 39  1  0
 39 40  1  0
 40 41  1  0
 41 42  2  0
 42 43  1  0
 43 44  1  0
 44 45  2  0
 45 46  1  0
 46 47  2  0
 47 48  1  0
 48 49  2  0
 39 50  1  0
 50 51  1  0
 50 52  2  0
 49 41  1  0
 49 44  1  0
  1 53  1  0
  1 54  1  0
  3 55  1  0
  4 56  1  0
  5 57  1  0
  5 58  1  0
  6 59  1  0
  6 60  1  0
  7 61  1  0
  7 62  1  0
  8 63  1  6
  9 64  1  0
 12 65  1  1
 13 66  1  0
 13 67  1  0
 14 68  1  0
 14 69  1  0
 16 70  1  0
 18 71  1  0
 21 72  1  6
 22 73  1  0
 22 74  1  0
 23 75  1  0
 23 76  1  0
 24 77  1  0
 24 78  1  0
 26 79  1  0
 30 80  1  0
 31 81  1  6
 32 82  1  0
 32 83  1  0
 34 84  1  0
 38 85  1  0
 39 86  1  1
 40 87  1  0
 40 88  1  0
 42 89  1  0
 43 90  1  0
 45 91  1  0
 46 92  1  0
 47 93  1  0
 48 94  1  0
 51 95  1  0
 51 96  1  0
M  END
$$$$
[H]c1nc(C(C#N)(C([H])([H])[H])C([H])([H])[H])c([H])c(C(=O)N([H])c2c([H])c([H])c(C([H])([H])[H])c(-c3nnc(OC4([H])C([H])([H])C([H])([H])OC([H])([H])C4([H])[H])c(N4C([H])([H])C([H])([H])OC([H])([H])C4([H])[H])c3[H])c2[H])c1[H]
     RDKit          3D

 74 78  0  0  0  0  0  0  0  0999 V2000
   -1.0501    3.0798   -2.1230 C   0  0  0  0  0  0  0  0  0  0  0  0
    0.1949    2.6221   -1.4918 C   0  0  0  0  0  0  0  0  0  0  0  0
    1.4199    3.0886   -1.9511 C   0  0  0  0  0  0  0  0  0  0  0  0
    2.5747    2.6248   -1.4180 C   0  0  0  0  0  0  0  0  0  0  0  0
    2.5896    1.6607   -0.3858 C   0  0  0  0  0  0  0  0  0  0  0  0
    3.8104    1.2668    0.1313 N   0  0  0  0  0  0  0  0  0  0  0  0
    4.1664    0.2771    1.0591 C   0  0  0  0  0  0  0  0  0  0  0  0
    3.3867   -0.4879    1.6228 O   0  0  0  0  0  0  0  0  0  0  0  0
    5.6259    0.1428    1.3934 C   0  0  0  0  0  0  0  0  0  0  0  0
    6.1744    0.8199    2.4690 C   0  0  0  0  0  0  0  0  0  0  0  0
    7.5253    0.7622    2.7354 C   0  0  0  0  0  0  0  0  0  0  0  0
    8.3006    0.0372    1.9306 N   0  0  0  0  0  0  0  0  0  0  0  0
    7.7870   -0.6460    0.8601 C   0  0  0  0  0  0  0  0  0  0  0  0
    6.4212   -0.6025    0.5738 C   0  0  0  0  0  0  0  0  0  0  0  0
    8.6592   -1.4291   -0.0444 C   0  0  0  0  0  0  0  0  0  0  0  0
    8.4000   -1.0245   -1.5022 C   0  0  0  0  0  0  0  0  0  0  0  0
   10.1069   -1.0551    0.2555 C   0  0  0  0  0  0  0  0  0  0  0  0
    8.4233   -2.8423    0.0910 C   0  0  0  0  0  0  0  0  0  0  0  0
    8.2375   -3.9603    0.2020 N   0  0  0  0  0  0  0  0  0  0  0  0
    1.3400    1.2264    0.0410 C   0  0  0  0  0  0  0  0  0  0  0  0
    0.1565    1.6674   -0.4679 C   0  0  0  0  0  0  0  0  0  0  0  0
   -1.1484    1.1774   -0.0973 C   0  0  0  0  0  0  0  0  0  0  0  0
   -1.5082   -0.1390   -0.0008 C   0  0  0  0  0  0  0  0  0  0  0  0
   -2.8518   -0.4784    0.1571 C   0  0  0  0  0  0  0  0  0  0  0  0
   -3.2788   -1.8401    0.1826 N   0  0  0  0  0  0  0  0  0  0  0  0
   -3.9646   -2.4077   -0.9925 C   0  0  0  0  0  0  0  0  0  0  0  0
   -5.0320   -3.3441   -0.5565 C   0  0  0  0  0  0  0  0  0  0  0  0
   -5.4203   -3.2077    0.7501 O   0  0  0  0  0  0  0  0  0  0  0  0
   -4.4344   -3.3772    1.6800 C   0  0  0  0  0  0  0  0  0  0  0  0
   -3.0996   -2.7409    1.2929 C   0  0  0  0  0  0  0  0  0  0  0  0
   -3.8373    0.4707    0.2247 C   0  0  0  0  0  0  0  0  0  0  0  0
   -5.1633    0.1409    0.3711 O   0  0  0  0  0  0  0  0  0  0  0  0
   -6.0652    1.2568    0.4352 C   0  0  0  0  0  0  0  0  0  0  0  0
   -7.3300    1.0315    1.1501 C   0  0  0  0  0  0  0  0  0  0  0  0
   -8.1738    0.0083    0.4269 C   0  0  0  0  0  0  0  0  0  0  0  0
   -7.7711   -0.1599   -0.8972 O   0  0  0  0  0  0  0  0  0  0  0  0
   -7.5576    1.0702   -1.5137 C   0  0  0  0  0  0  0  0  0  0  0  0
   -6.3450    1.7692   -0.9846 C   0  0  0  0  0  0  0  0  0  0  0  0
   -3.4162    1.7647    0.1297 N   0  0  0  0  0  0  0  0  0  0  0  0
   -2.1840    2.0858   -0.0165 N   0  0  0  0  0  0  0  0  0  0  0  0
   -0.8068    3.4950   -3.1739 H   0  0  0  0  0  0  0  0  0  0  0  0
   -1.6773    2.2007   -2.3674 H   0  0  0  0  0  0  0  0  0  0  0  0
   -1.6086    3.8538   -1.6014 H   0  0  0  0  0  0  0  0  0  0  0  0
    1.4504    3.8392   -2.7542 H   0  0  0  0  0  0  0  0  0  0  0  0
    3.5559    2.9770   -1.7694 H   0  0  0  0  0  0  0  0  0  0  0  0
    4.6650    1.8479   -0.2563 H   0  0  0  0  0  0  0  0  0  0  0  0
    5.5044    1.3958    3.0879 H   0  0  0  0  0  0  0  0  0  0  0  0
    7.9604    1.2879    3.5611 H   0  0  0  0  0  0  0  0  0  0  0  0
    6.0142   -1.1499   -0.2737 H   0  0  0  0  0  0  0  0  0  0  0  0
    8.4161    0.0678   -1.5217 H   0  0  0  0  0  0  0  0  0  0  0  0
    9.3004   -1.3974   -2.0681 H   0  0  0  0  0  0  0  0  0  0  0  0
    7.5090   -1.4989   -1.9021 H   0  0  0  0  0  0  0  0  0  0  0  0
   10.2150    0.0208    0.4981 H   0  0  0  0  0  0  0  0  0  0  0  0
   10.7035   -1.2317   -0.6856 H   0  0  0  0  0  0  0  0  0  0  0  0
   10.5313   -1.6198    1.1178 H   0  0  0  0  0  0  0  0  0  0  0  0
    1.3307    0.4827    0.8468 H   0  0  0  0  0  0  0  0  0  0  0  0
   -0.7481   -0.9176   -0.0478 H   0  0  0  0  0  0  0  0  0  0  0  0
   -3.2158   -2.9839   -1.5671 H   0  0  0  0  0  0  0  0  0  0  0  0
   -4.3377   -1.5659   -1.6318 H   0  0  0  0  0  0  0  0  0  0  0  0
   -5.9426   -3.0925   -1.1923 H   0  0  0  0  0  0  0  0  0  0  0  0
   -4.8069   -4.4158   -0.8496 H   0  0  0  0  0  0  0  0  0  0  0  0
   -4.7532   -2.8356    2.6145 H   0  0  0  0  0  0  0  0  0  0  0  0
   -4.3091   -4.4518    1.9845 H   0  0  0  0  0  0  0  0  0  0  0  0
   -2.5832   -2.2825    2.1581 H   0  0  0  0  0  0  0  0  0  0  0  0
   -2.4647   -3.6135    0.9537 H   0  0  0  0  0  0  0  0  0  0  0  0
   -5.4967    2.1031    0.9485 H   0  0  0  0  0  0  0  0  0  0  0  0
   -7.2043    0.6677    2.2188 H   0  0  0  0  0  0  0  0  0  0  0  0
   -7.8632    2.0258    1.1950 H   0  0  0  0  0  0  0  0  0  0  0  0
   -9.2360    0.3586    0.4909 H   0  0  0  0  0  0  0  0  0  0  0  0
   -8.0288   -0.9678    0.9319 H   0  0  0  0  0  0  0  0  0  0  0  0
   -8.4194    1.7571   -1.4756 H   0  0  0  0  0  0  0  0  0  0  0  0
   -7.3931    0.8557   -2.5897 H   0  0  0  0  0  0  0  0  0  0  0  0
   -5.4361    1.6119   -1.6288 H   0  0  0  0  0  0  0  0  0  0  0  0
   -6.4931    2.8676   -0.9097 H   0  0  0  0  0  0  0  0  0  0  0  0
  1  2  1  0
  2  3  2  0
  3  4  1  0
  4  5  2  0
  5  6  1  0
  6  7  1  0
  7  8  2  0
  7  9  1  0
  9 10  2  0
 10 11  1  0
 11 12  2  0
 12 13  1  0
 13 14  2  0
 13 15  1  0
 15 16  1  0
 15 17  1  0
 15 18  1  0
 18 19  3  0
  5 20  1  0
 20 21  2  0
 21 22  1  0
 22 23  2  0
 23 24  1  0
 24 25  1  0
 25 26  1  0
 26 27  1  0
 27 28  1  0
 28 29  1  0
 29 30  1  0
 24 31  2  0
 31 32  1  0
 32 33  1  0
 33 34  1  0
 34 35  1  0
 35 36  1  0
 36 37  1  0
 37 38  1  0
 31 39  1  0
 39 40  2  0
 21  2  1  0
 40 22  1  0
 14  9  1  0
 30 25  1  0
 38 33  1  0
  1 41  1  0
  1 42  1  0
  1 43  1  0
  3 44  1  0
  4 45  1  0
  6 46  1  0
 10 47  1  0
 11 48  1  0
 14 49  1  0
 16 50  1  0
 16 51  1  0
 16 52  1  0
 17 53  1  0
 17 54  1  0
 17 55  1  0
 20 56  1  0
 23 57  1  0
 26 58  1  0
 26 59  1  0
 27 60  1  0
 27 61  1  0
 29 62  1  0
 29 63  1  0
 30 64  1  0
 30 65  1  0
 33 66  1  0
 34 67  1  0
 34 68  1  0
 35 69  1  0
 35 70  1  0
 37 71  1  0
 37 72  1  0
 38 73  1  0
 38 74  1  0
M  END
$$$$
[H]c1c([H])c([H])c(C2=NC([H])([H])c3nnc(C([H])([H])[H])n3-c3c([H])c([H])c(Cl)c([H])c32)c([H])c1[H]
     RDKit          3D

 35 38  0  0  0  0  0  0  0  0999 V2000
   -3.9386    1.2489   -0.6459 C   0  0  0  0  0  0  0  0  0  0  0  0
   -3.2896    0.0059   -1.0786 C   0  0  0  0  0  0  0  0  0  0  0  0
   -3.6261   -0.7990   -2.1404 N   0  0  0  0  0  0  0  0  0  0  0  0
   -2.7315   -1.8038   -2.2475 N   0  0  0  0  0  0  0  0  0  0  0  0
   -1.8346   -1.6721   -1.2927 C   0  0  0  0  0  0  0  0  0  0  0  0
   -0.6540   -2.5385   -1.0867 C   0  0  0  0  0  0  0  0  0  0  0  0
    0.5678   -1.7547   -0.9529 N   0  0  0  0  0  0  0  0  0  0  0  0
    0.8434   -0.6879   -0.2515 C   0  0  0  0  0  0  0  0  0  0  0  0
    2.1447   -0.0808   -0.2933 C   0  0  0  0  0  0  0  0  0  0  0  0
    3.1111   -0.8535   -0.9969 C   0  0  0  0  0  0  0  0  0  0  0  0
    4.3717   -0.4144   -1.2616 C   0  0  0  0  0  0  0  0  0  0  0  0
    4.7714    0.8403   -0.8422 C   0  0  0  0  0  0  0  0  0  0  0  0
    3.8414    1.5902   -0.1640 C   0  0  0  0  0  0  0  0  0  0  0  0
    2.5530    1.1417    0.1053 C   0  0  0  0  0  0  0  0  0  0  0  0
   -0.1220   -0.1640    0.6971 C   0  0  0  0  0  0  0  0  0  0  0  0
    0.4177    0.2694    1.8845 C   0  0  0  0  0  0  0  0  0  0  0  0
   -0.3956    0.7684    2.8712 C   0  0  0  0  0  0  0  0  0  0  0  0
    0.3802    1.3102    4.3496 Cl  0  0  0  0  0  0  0  0  0  0  0  0
   -1.7774    0.8376    2.6863 C   0  0  0  0  0  0  0  0  0  0  0  0
   -2.3723    0.4075    1.5095 C   0  0  0  0  0  0  0  0  0  0  0  0
   -1.5205   -0.0738    0.5636 C   0  0  0  0  0  0  0  0  0  0  0  0
   -2.2070   -0.5559   -0.5919 N   0  0  0  0  0  0  0  0  0  0  0  0
   -3.2803    2.0490   -0.2563 H   0  0  0  0  0  0  0  0  0  0  0  0
   -4.2497    1.7428   -1.6332 H   0  0  0  0  0  0  0  0  0  0  0  0
   -4.9229    1.1550   -0.1660 H   0  0  0  0  0  0  0  0  0  0  0  0
   -0.8606   -3.1947   -0.2290 H   0  0  0  0  0  0  0  0  0  0  0  0
   -0.5312   -3.1677   -1.9823 H   0  0  0  0  0  0  0  0  0  0  0  0
    2.8425   -1.8395   -1.3425 H   0  0  0  0  0  0  0  0  0  0  0  0
    5.0577   -1.0752   -1.8117 H   0  0  0  0  0  0  0  0  0  0  0  0
    5.7704    1.1498   -1.0681 H   0  0  0  0  0  0  0  0  0  0  0  0
    4.1047    2.5795    0.1856 H   0  0  0  0  0  0  0  0  0  0  0  0
    1.8449    1.8001    0.5937 H   0  0  0  0  0  0  0  0  0  0  0  0
    1.4919    0.1439    2.0185 H   0  0  0  0  0  0  0  0  0  0  0  0
   -2.3863    1.2337    3.4771 H   0  0  0  0  0  0  0  0  0  0  0  0
   -3.4141    0.4015    1.3932 H   0  0  0  0  0  0  0  0  0  0  0  0
  1  2  1  0
  2  3  2  0
  3  4  1  0
  4  5  2  0
  5  6  1  0
  6  7  1  0
  7  8  2  0
  8  9  1  0
  9 10  2  0
 10 11  1  0
 11 12  2  0
 12 13  1  0
 13 14  2  0
  8 15  1  0
 15 16  2  0
 16 17  1  0
 17 18  1  0
 17 19  2  0
 19 20  1  0
 20 21  2  0
 21 22  1  0
 22  2  1  0
 22  5  1  0
 14  9  1  0
 21 15  1  0
  1 23  1  0
  1 24  1  0
  1 25  1  0
  6 26  1  0
  6 27  1  0
 10 28  1  0
 11 29  1  0
 12 30  1  0
 13 31  1  0
 14 32  1  0
 16 33  1  0
 19 34  1  0
 20 35  1  0
M  END
$$$$
[H]OC(=O)[C@@]1([H])N(C(=O)/C([H])=C(\[H])c2c([H])c([H])c([H])c([H])c2Cl)C([H])([H])C([H])([H])C1([H])[H]
     RDKit          3D

 33 34  0  0  0  0  0  0  0  0999 V2000
   -5.2201    1.8953   -0.5030 O   0  0  0  0  0  0  0  0  0  0  0  0
   -3.7920    1.8115   -0.4032 C   0  0  0  0  0  0  0  0  0  0  0  0
   -3.2610    2.9225   -0.3427 O   0  0  0  0  0  0  0  0  0  0  0  0
   -3.2747    0.4749   -0.3939 C   0  0  2  0  0  0  0  0  0  0  0  0
   -3.8151   -0.3491    0.8047 C   0  0  0  0  0  0  0  0  0  0  0  0
   -3.1329   -1.6789    0.4764 C   0  0  0  0  0  0  0  0  0  0  0  0
   -1.8895   -1.3062   -0.3447 C   0  0  0  0  0  0  0  0  0  0  0  0
   -1.8985    0.1887   -0.2891 N   0  0  0  0  0  0  0  0  0  0  0  0
   -0.6972    0.9021   -0.1550 C   0  0  0  0  0  0  0  0  0  0  0  0
   -0.6775    2.1479   -0.0779 O   0  0  0  0  0  0  0  0  0  0  0  0
    0.6005    0.2489   -0.0979 C   0  0  0  0  0  0  0  0  0  0  0  0
    1.7297    0.9194    0.0313 C   0  0  0  0  0  0  0  0  0  0  0  0
    3.0525    0.3181    0.0937 C   0  0  0  0  0  0  0  0  0  0  0  0
    3.2896   -1.0361    0.0251 C   0  0  0  0  0  0  0  0  0  0  0  0
    4.5735   -1.5785    0.0883 C   0  0  0  0  0  0  0  0  0  0  0  0
    5.6606   -0.7410    0.2249 C   0  0  0  0  0  0  0  0  0  0  0  0
    5.4585    0.6183    0.2965 C   0  0  0  0  0  0  0  0  0  0  0  0
    4.1930    1.1173    0.2319 C   0  0  0  0  0  0  0  0  0  0  0  0
    3.9677    2.8449    0.3253 Cl  0  0  0  0  0  0  0  0  0  0  0  0
   -5.6767    1.5168   -1.3283 H   0  0  0  0  0  0  0  0  0  0  0  0
   -3.6702   -0.0852   -1.3093 H   0  0  0  0  0  0  0  0  0  0  0  0
   -3.4488    0.0864    1.7365 H   0  0  0  0  0  0  0  0  0  0  0  0
   -4.9053   -0.4060    0.7088 H   0  0  0  0  0  0  0  0  0  0  0  0
   -2.8300   -2.2095    1.4010 H   0  0  0  0  0  0  0  0  0  0  0  0
   -3.8429   -2.2482   -0.1439 H   0  0  0  0  0  0  0  0  0  0  0  0
   -1.0073   -1.7303    0.1250 H   0  0  0  0  0  0  0  0  0  0  0  0
   -2.0307   -1.5564   -1.4133 H   0  0  0  0  0  0  0  0  0  0  0  0
    0.6791   -0.8128   -0.1649 H   0  0  0  0  0  0  0  0  0  0  0  0
    1.6702    2.0069    0.0964 H   0  0  0  0  0  0  0  0  0  0  0  0
    2.4543   -1.7252   -0.0827 H   0  0  0  0  0  0  0  0  0  0  0  0
    4.7354   -2.6452    0.0324 H   0  0  0  0  0  0  0  0  0  0  0  0
    6.6625   -1.1431    0.2756 H   0  0  0  0  0  0  0  0  0  0  0  0
    6.3434    1.2319    0.4033 H   0  0  0  0  0  0  0  0  0  0  0  0
  1  2  1  0
  2  3  2  0
  2  4  1  0
  4  5  1  0
  5  6  1  0
  6  7  1  0
  7  8  1  0
  8  9  1  0
  9 10  2  0
  9 11  1  0
 11 12  2  0
 12 13  1  0
 13 14  2  0
 14 15  1  0
 15 16  2  0
 16 17  1  0
 17 18  2  0
 18 19  1  0
  8  4  1  0
 18 13  1  0
  1 20  1  0
  4 21  1  6
  5 22  1  0
  5 23  1  0
  6 24  1  0
  6 25  1  0
  7 26  1  0
  7 27  1  0
 11 28  1  0
 12 29  1  0
 14 30  1  0
 15 31  1  0
 16 32  1  0
 17 33  1  0
M  END
$$$$
[H]c1c([H])c(Cl)c(-c2c([H])c3c([H])nc(N([H])c4c([H])c([H])c(N5C([H])([H])C([H])([H])N(C([H])([H])[H])C([H])([H])C5([H])[H])c([H])c4[H])nc3n2C([H])([H])[H])c(Cl)c1[H]
     RDKit          3D

 56 60  0  0  0  0  0  0  0  0999 V2000
    7.4507    1.7500   -0.0002 C   0  0  0  0  0  0  0  0  0  0  0  0
    7.7559    0.3490   -0.1170 N   0  0  0  0  0  0  0  0  0  0  0  0
    7.4361   -0.2096   -1.3939 C   0  0  0  0  0  0  0  0  0  0  0  0
    5.9798   -0.5578   -1.5852 C   0  0  0  0  0  0  0  0  0  0  0  0
    5.4191   -0.9085   -0.2952 N   0  0  0  0  0  0  0  0  0  0  0  0
    6.3424   -1.5075    0.6357 C   0  0  0  0  0  0  0  0  0  0  0  0
    7.3403   -0.4336    1.0044 C   0  0  0  0  0  0  0  0  0  0  0  0
    4.0656   -0.6922    0.0445 C   0  0  0  0  0  0  0  0  0  0  0  0
    3.1540   -0.2792   -0.8958 C   0  0  0  0  0  0  0  0  0  0  0  0
    1.8375   -0.0567   -0.5869 C   0  0  0  0  0  0  0  0  0  0  0  0
    1.3436   -0.2324    0.6815 C   0  0  0  0  0  0  0  0  0  0  0  0
    0.0175   -0.0568    1.0891 N   0  0  0  0  0  0  0  0  0  0  0  0
   -1.1478   -0.0062    0.2754 C   0  0  0  0  0  0  0  0  0  0  0  0
   -1.1749   -0.1318   -1.0506 N   0  0  0  0  0  0  0  0  0  0  0  0
   -2.2588   -0.0866   -1.8248 C   0  0  0  0  0  0  0  0  0  0  0  0
   -3.4983    0.1102   -1.2139 C   0  0  0  0  0  0  0  0  0  0  0  0
   -4.7802    0.2128   -1.6359 C   0  0  0  0  0  0  0  0  0  0  0  0
   -5.6031    0.4140   -0.5058 C   0  0  0  0  0  0  0  0  0  0  0  0
   -7.0712    0.4425   -0.5807 C   0  0  0  0  0  0  0  0  0  0  0  0
   -7.8478    1.3104    0.1290 C   0  0  0  0  0  0  0  0  0  0  0  0
   -7.1935    2.7307    0.9646 Cl  0  0  0  0  0  0  0  0  0  0  0  0
   -9.2486    1.1940    0.1413 C   0  0  0  0  0  0  0  0  0  0  0  0
   -9.8294    0.1833   -0.5845 C   0  0  0  0  0  0  0  0  0  0  0  0
   -9.0401   -0.6844   -1.2994 C   0  0  0  0  0  0  0  0  0  0  0  0
   -7.6682   -0.5882   -1.3216 C   0  0  0  0  0  0  0  0  0  0  0  0
   -6.7029   -1.7262   -2.1991 Cl  0  0  0  0  0  0  0  0  0  0  0  0
   -4.7871    0.4223    0.5453 N   0  0  0  0  0  0  0  0  0  0  0  0
   -5.1169    0.5084    1.9661 C   0  0  0  0  0  0  0  0  0  0  0  0
   -3.4790    0.2402    0.1483 C   0  0  0  0  0  0  0  0  0  0  0  0
   -2.3606    0.1872    0.8815 N   0  0  0  0  0  0  0  0  0  0  0  0
    2.2674   -0.6537    1.6491 C   0  0  0  0  0  0  0  0  0  0  0  0
    3.5669   -0.8670    1.3176 C   0  0  0  0  0  0  0  0  0  0  0  0
    6.5356    1.9411    0.6012 H   0  0  0  0  0  0  0  0  0  0  0  0
    8.2884    2.2310    0.5480 H   0  0  0  0  0  0  0  0  0  0  0  0
    7.3958    2.2230   -0.9894 H   0  0  0  0  0  0  0  0  0  0  0  0
    7.6834    0.5532   -2.1658 H   0  0  0  0  0  0  0  0  0  0  0  0
    8.0741   -1.0854   -1.6091 H   0  0  0  0  0  0  0  0  0  0  0  0
    5.8914   -1.4554   -2.2307 H   0  0  0  0  0  0  0  0  0  0  0  0
    5.4357    0.2599   -2.0965 H   0  0  0  0  0  0  0  0  0  0  0  0
    5.9110   -2.0403    1.4727 H   0  0  0  0  0  0  0  0  0  0  0  0
    6.8959   -2.2991    0.0393 H   0  0  0  0  0  0  0  0  0  0  0  0
    6.9176    0.2356    1.7809 H   0  0  0  0  0  0  0  0  0  0  0  0
    8.2237   -0.9332    1.4494 H   0  0  0  0  0  0  0  0  0  0  0  0
    3.4530   -0.1167   -1.9211 H   0  0  0  0  0  0  0  0  0  0  0  0
    1.1624    0.2872   -1.3836 H   0  0  0  0  0  0  0  0  0  0  0  0
   -0.1389    0.0593    2.1465 H   0  0  0  0  0  0  0  0  0  0  0  0
   -2.2475   -0.1916   -2.8940 H   0  0  0  0  0  0  0  0  0  0  0  0
   -5.0789    0.1671   -2.6640 H   0  0  0  0  0  0  0  0  0  0  0  0
   -9.8545    1.8914    0.7146 H   0  0  0  0  0  0  0  0  0  0  0  0
  -10.9243    0.0746   -0.5890 H   0  0  0  0  0  0  0  0  0  0  0  0
   -9.5368   -1.4764   -1.8674 H   0  0  0  0  0  0  0  0  0  0  0  0
   -4.8289    1.4591    2.4081 H   0  0  0  0  0  0  0  0  0  0  0  0
   -4.4763   -0.3143    2.4586 H   0  0  0  0  0  0  0  0  0  0  0  0
   -6.1382    0.1563    2.1709 H   0  0  0  0  0  0  0  0  0  0  0  0
    1.9503   -0.8137    2.6737 H   0  0  0  0  0  0  0  0  0  0  0  0
    4.2375   -1.1893    2.1108 H   0  0  0  0  0  0  0  0  0  0  0  0
  1  2  1  0
  2  3  1  0
  3  4  1  0
  4  5  1  0
  5  6  1  0
  6  7  1  0
  5  8  1  0
  8  9  2  0
  9 10  1  0
 10 11  2  0
 11 12  1  0
 12 13  1  0
 13 14  2  0
 14 15  1  0
 15 16  2  0
 16 17  1  0
 17 18  2  0
 18 19  1  0
 19 20  2  0
 20 21  1  0
 20 22  1  0
 22 23  2  0
 23 24  1  0
 24 25  2  0
 25 26  1  0
 18 27  1  0
 27 28  1  0
 27 29  1  0
 29 30  2  0
 11 31  1  0
 31 32  2  0
  7  2  1  0
 32  8  1  0
 30 13  1  0
 29 16  1  0
 25 19  1  0
  1 33  1  0
  1 34  1  0
  1 35  1  0
  3 36  1  0
  3 37  1  0
  4 38  1  0
  4 39  1  0
  6 40  1  0
  6 41  1  0
  7 42  1  0
  7 43  1  0
  9 44  1  0
 10 45  1  0
 12 46  1  0
 15 47  1  0
 17 48  1  0
 22 49  1  0
 23 50  1  0
 24 51  1  0
 28 52  1  0
 28 53  1  0
 28 54  1  0
 31 55  1  0
 32 56  1  0
M  END
$$$$
[H]c1nc2nc(N([H])[H])nc(N([H])[H])c2c(C([H])([H])[H])c1C([H])([H])N([H])c1c([H])c(OC([H])([H])[H])c(Cl)c([H])c1OC([H])([H])[H]
     RDKit          3D

 45 47  0  0  0  0  0  0  0  0999 V2000
   -3.7703    2.8077   -2.0739 C   0  0  0  0  0  0  0  0  0  0  0  0
   -4.6441    1.7683   -1.7147 O   0  0  0  0  0  0  0  0  0  0  0  0
   -4.2496    0.6066   -1.0657 C   0  0  0  0  0  0  0  0  0  0  0  0
   -2.9392    0.3746   -0.7138 C   0  0  0  0  0  0  0  0  0  0  0  0
   -2.5304   -0.7811   -0.0652 C   0  0  0  0  0  0  0  0  0  0  0  0
   -1.1695   -0.9856    0.2822 N   0  0  0  0  0  0  0  0  0  0  0  0
   -0.2070    0.0150   -0.0417 C   0  0  0  0  0  0  0  0  0  0  0  0
    1.1971   -0.2720    0.3489 C   0  0  0  0  0  0  0  0  0  0  0  0
    1.6252   -1.4141    0.9605 C   0  0  0  0  0  0  0  0  0  0  0  0
    2.9034   -1.6622    1.2947 N   0  0  0  0  0  0  0  0  0  0  0  0
    3.8595   -0.7692    1.0355 C   0  0  0  0  0  0  0  0  0  0  0  0
    5.1559   -1.0211    1.3717 N   0  0  0  0  0  0  0  0  0  0  0  0
    6.1326   -0.1418    1.1194 C   0  0  0  0  0  0  0  0  0  0  0  0
    7.4702   -0.4753    1.5011 N   0  0  0  0  0  0  0  0  0  0  0  0
    5.8148    1.0049    0.5238 N   0  0  0  0  0  0  0  0  0  0  0  0
    4.5230    1.2870    0.1741 C   0  0  0  0  0  0  0  0  0  0  0  0
    4.2476    2.5147   -0.4630 N   0  0  0  0  0  0  0  0  0  0  0  0
    3.4906    0.4170    0.4133 C   0  0  0  0  0  0  0  0  0  0  0  0
    2.1835    0.7009    0.0581 C   0  0  0  0  0  0  0  0  0  0  0  0
    1.7937    1.9680   -0.5858 C   0  0  0  0  0  0  0  0  0  0  0  0
   -3.5041   -1.7130    0.2225 C   0  0  0  0  0  0  0  0  0  0  0  0
   -3.1112   -2.8884    0.8780 O   0  0  0  0  0  0  0  0  0  0  0  0
   -4.0189   -3.8934    1.2140 C   0  0  0  0  0  0  0  0  0  0  0  0
   -4.8205   -1.4779   -0.1320 C   0  0  0  0  0  0  0  0  0  0  0  0
   -5.2184   -0.3219   -0.7787 C   0  0  0  0  0  0  0  0  0  0  0  0
   -6.9074   -0.0695   -1.2091 Cl  0  0  0  0  0  0  0  0  0  0  0  0
   -2.9680    2.9632   -1.3049 H   0  0  0  0  0  0  0  0  0  0  0  0
   -3.3470    2.5972   -3.0593 H   0  0  0  0  0  0  0  0  0  0  0  0
   -4.3369    3.7699   -2.1560 H   0  0  0  0  0  0  0  0  0  0  0  0
   -2.1955    1.1098   -0.9453 H   0  0  0  0  0  0  0  0  0  0  0  0
   -0.9322   -1.8548    0.7581 H   0  0  0  0  0  0  0  0  0  0  0  0
   -0.2346    0.2688   -1.1355 H   0  0  0  0  0  0  0  0  0  0  0  0
   -0.5959    0.9480    0.4718 H   0  0  0  0  0  0  0  0  0  0  0  0
    0.8622   -2.1765    1.1901 H   0  0  0  0  0  0  0  0  0  0  0  0
    8.0235   -1.1004    0.8553 H   0  0  0  0  0  0  0  0  0  0  0  0
    7.9171   -0.1321    2.3787 H   0  0  0  0  0  0  0  0  0  0  0  0
    4.0463    3.3716    0.0767 H   0  0  0  0  0  0  0  0  0  0  0  0
    4.2708    2.5525   -1.4956 H   0  0  0  0  0  0  0  0  0  0  0  0
    1.8256    2.8644    0.0696 H   0  0  0  0  0  0  0  0  0  0  0  0
    0.6546    1.9268   -0.6961 H   0  0  0  0  0  0  0  0  0  0  0  0
    2.0408    2.0910   -1.6368 H   0  0  0  0  0  0  0  0  0  0  0  0
   -4.8132   -4.0667    0.4740 H   0  0  0  0  0  0  0  0  0  0  0  0
   -4.5083   -3.6510    2.1948 H   0  0  0  0  0  0  0  0  0  0  0  0
   -3.4349   -4.8452    1.3090 H   0  0  0  0  0  0  0  0  0  0  0  0
   -5.5810   -2.2149    0.0973 H   0  0  0  0  0  0  0  0  0  0  0  0
  1  2  1  0
  2  3  1  0
  3  4  2  0
  4  5  1  0
  5  6  1  0
  6  7  1  0
  7  8  1  0
  8  9  2  0
  9 10  1  0
 10 11  2  0
 11 12  1  0
 12 13  2  0
 13 14  1  0
 13 15  1  0
 15 16  2  0
 16 17  1  0
 16 18  1  0
 18 19  2  0
 19 20  1  0
  5 21  2  0
 21 22  1  0
 22 23  1  0
 21 24  1  0
 24 25  2  0
 25 26  1  0
 25  3  1  0
 19  8  1  0
 18 11  1  0
  1 27  1  0
  1 28  1  0
  1 29  1  0
  4 30  1  0
  6 31  1  0
  7 32  1  0
  7 33  1  0
  9 34  1  0
 14 35  1  0
 14 36  1  0
 17 37  1  0
 17 38  1  0
 20 39  1  0
 20 40  1  0
 20 41  1  0
 23 42  1  0
 23 43  1  0
 23 44  1  0
 24 45  1  0
M  END
$$$$
[H]OC(=O)C([H])([H])C([H])([H])[C@@]([H])(C(=O)N([H])[H])N([H])C(=O)[C@@]([H])(N([H])C(=O)[C@@]([H])(N([H])C(=O)[C@@]([H])(N([H])C(=O)[C@@]([H])(N([H])C(=O)[C@@]([H])(N([H])[H])C([H])(C([H])([H])[H])C([H])([H])[H])C([H])([H])C([H])([H])C(=O)O[H])C([H])([H])C([H])([H])C(=O)O[H])C([H])([H])C([H])([H])C(=O)O[H])C([H])([H])C([H])([H])C(=O)O[H]
     RDKit          3D

100 99  0  0  0  0  0  0  0  0999 V2000
   -4.6432    5.2840   -0.8781 C   0  0  0  0  0  0  0  0  0  0  0  0
   -5.0481    4.7939    0.4747 C   0  0  0  0  0  0  0  0  0  0  0  0
   -5.8291    5.9040    1.1612 C   0  0  0  0  0  0  0  0  0  0  0  0
   -5.9310    3.5989    0.3845 C   0  0  2  0  0  0  0  0  0  0  0  0
   -6.3285    3.1453    1.7103 N   0  0  0  0  0  0  0  0  0  0  0  0
   -5.2272    2.4594   -0.3399 C   0  0  0  0  0  0  0  0  0  0  0  0
   -4.7079    2.7536   -1.4398 O   0  0  0  0  0  0  0  0  0  0  0  0
   -5.2254    1.2029    0.2745 N   0  0  0  0  0  0  0  0  0  0  0  0
   -4.6573    0.0151   -0.2518 C   0  0  1  0  0  0  0  0  0  0  0  0
   -4.3229   -0.0323   -1.7104 C   0  0  0  0  0  0  0  0  0  0  0  0
   -5.5761    0.0561   -2.5840 C   0  0  0  0  0  0  0  0  0  0  0  0
   -5.2460    0.0537   -4.0141 C   0  0  0  0  0  0  0  0  0  0  0  0
   -6.1618    0.1013   -5.0291 O   0  0  0  0  0  0  0  0  0  0  0  0
   -4.0109    0.0034   -4.3358 O   0  0  0  0  0  0  0  0  0  0  0  0
   -3.8140   -0.7706    0.6248 C   0  0  0  0  0  0  0  0  0  0  0  0
   -3.7155   -0.3863    1.8399 O   0  0  0  0  0  0  0  0  0  0  0  0
   -3.1002   -1.9086    0.2683 N   0  0  0  0  0  0  0  0  0  0  0  0
   -2.2661   -2.7438    1.0782 C   0  0  1  0  0  0  0  0  0  0  0  0
   -2.2294   -4.1816    0.7709 C   0  0  0  0  0  0  0  0  0  0  0  0
   -3.5838   -4.8554    0.8899 C   0  0  0  0  0  0  0  0  0  0  0  0
   -3.4303   -6.2863    0.5838 C   0  0  0  0  0  0  0  0  0  0  0  0
   -4.5121   -7.1470    0.6866 O   0  0  0  0  0  0  0  0  0  0  0  0
   -2.3333   -6.7446    0.2316 O   0  0  0  0  0  0  0  0  0  0  0  0
   -0.9371   -2.2077    1.4001 C   0  0  0  0  0  0  0  0  0  0  0  0
   -0.8604   -1.0053    1.8074 O   0  0  0  0  0  0  0  0  0  0  0  0
    0.2266   -2.9741    1.2719 N   0  0  0  0  0  0  0  0  0  0  0  0
    1.5357   -2.4408    1.6324 C   0  0  1  0  0  0  0  0  0  0  0  0
    2.5818   -3.4590    1.8310 C   0  0  0  0  0  0  0  0  0  0  0  0
    2.2108   -4.4314    2.9398 C   0  0  0  0  0  0  0  0  0  0  0  0
    3.2347   -5.4554    3.1366 C   0  0  0  0  0  0  0  0  0  0  0  0
    3.0977   -6.4591    4.0605 O   0  0  0  0  0  0  0  0  0  0  0  0
    4.2781   -5.4141    2.4329 O   0  0  0  0  0  0  0  0  0  0  0  0
    2.0033   -1.4532    0.5633 C   0  0  0  0  0  0  0  0  0  0  0  0
    1.4940   -1.5568   -0.5559 O   0  0  0  0  0  0  0  0  0  0  0  0
    2.9533   -0.4896    0.8732 N   0  0  0  0  0  0  0  0  0  0  0  0
    3.4820    0.5317   -0.0103 C   0  0  1  0  0  0  0  0  0  0  0  0
    3.3315    1.9027    0.5734 C   0  0  0  0  0  0  0  0  0  0  0  0
    1.9306    2.3427    0.8594 C   0  0  0  0  0  0  0  0  0  0  0  0
    1.0490    2.4482   -0.3074 C   0  0  0  0  0  0  0  0  0  0  0  0
    0.9912    3.6827   -0.9669 O   0  0  0  0  0  0  0  0  0  0  0  0
    0.3387    1.5287   -0.7706 O   0  0  0  0  0  0  0  0  0  0  0  0
    4.9327    0.2087   -0.2096 C   0  0  0  0  0  0  0  0  0  0  0  0
    5.2499   -1.0134   -0.2886 O   0  0  0  0  0  0  0  0  0  0  0  0
    5.9529    1.1677   -0.3074 N   0  0  0  0  0  0  0  0  0  0  0  0
    7.3211    0.8049   -0.4882 C   0  0  1  0  0  0  0  0  0  0  0  0
    8.1012    1.6373   -1.4247 C   0  0  0  0  0  0  0  0  0  0  0  0
    7.6247    1.6622   -2.8244 C   0  0  0  0  0  0  0  0  0  0  0  0
    6.2854    2.2385   -3.0194 C   0  0  0  0  0  0  0  0  0  0  0  0
    5.2182    1.5255   -3.5609 O   0  0  0  0  0  0  0  0  0  0  0  0
    6.0286    3.4457   -2.6979 O   0  0  0  0  0  0  0  0  0  0  0  0
    7.9473    0.8572    0.8834 C   0  0  0  0  0  0  0  0  0  0  0  0
    9.3178    0.5561    1.0806 N   0  0  0  0  0  0  0  0  0  0  0  0
    7.2743    1.1660    1.8832 O   0  0  0  0  0  0  0  0  0  0  0  0
   -4.5510    6.4108   -0.8937 H   0  0  0  0  0  0  0  0  0  0  0  0
   -3.6579    4.9123   -1.1708 H   0  0  0  0  0  0  0  0  0  0  0  0
   -5.3970    5.0805   -1.6716 H   0  0  0  0  0  0  0  0  0  0  0  0
   -4.1523    4.5057    1.0897 H   0  0  0  0  0  0  0  0  0  0  0  0
   -6.8735    5.6391    1.3279 H   0  0  0  0  0  0  0  0  0  0  0  0
   -5.3039    6.1584    2.1097 H   0  0  0  0  0  0  0  0  0  0  0  0
   -5.8173    6.8238    0.5363 H   0  0  0  0  0  0  0  0  0  0  0  0
   -6.8480    3.8525   -0.1730 H   0  0  0  0  0  0  0  0  0  0  0  0
   -7.3017    2.7994    1.6439 H   0  0  0  0  0  0  0  0  0  0  0  0
   -6.3040    3.9764    2.3356 H   0  0  0  0  0  0  0  0  0  0  0  0
   -5.6988    1.1442    1.2377 H   0  0  0  0  0  0  0  0  0  0  0  0
   -5.6734   -0.6719   -0.3024 H   0  0  0  0  0  0  0  0  0  0  0  0
   -3.8398   -1.0152   -1.9951 H   0  0  0  0  0  0  0  0  0  0  0  0
   -3.6288    0.7340   -2.0682 H   0  0  0  0  0  0  0  0  0  0  0  0
   -6.1343   -0.9366   -2.3643 H   0  0  0  0  0  0  0  0  0  0  0  0
   -6.2615    0.8113   -2.2357 H   0  0  0  0  0  0  0  0  0  0  0  0
   -7.1496    0.1636   -4.9128 H   0  0  0  0  0  0  0  0  0  0  0  0
   -3.1641   -2.2451   -0.7451 H   0  0  0  0  0  0  0  0  0  0  0  0
   -2.7834   -2.6573    2.1372 H   0  0  0  0  0  0  0  0  0  0  0  0
   -1.6002   -4.6743    1.5652 H   0  0  0  0  0  0  0  0  0  0  0  0
   -1.7326   -4.3933   -0.1915 H   0  0  0  0  0  0  0  0  0  0  0  0
   -3.9079   -4.7670    1.9706 H   0  0  0  0  0  0  0  0  0  0  0  0
   -4.3733   -4.3449    0.3038 H   0  0  0  0  0  0  0  0  0  0  0  0
   -4.6265   -7.8874    0.0122 H   0  0  0  0  0  0  0  0  0  0  0  0
    0.1645   -3.9452    0.9062 H   0  0  0  0  0  0  0  0  0  0  0  0
    1.3880   -1.7762    2.5010 H   0  0  0  0  0  0  0  0  0  0  0  0
    3.5363   -2.9831    2.1475 H   0  0  0  0  0  0  0  0  0  0  0  0
    2.8443   -4.0192    0.8996 H   0  0  0  0  0  0  0  0  0  0  0  0
    2.0422   -3.8076    3.8673 H   0  0  0  0  0  0  0  0  0  0  0  0
    1.2234   -4.8891    2.7057 H   0  0  0  0  0  0  0  0  0  0  0  0
    3.6108   -6.5753    4.9141 H   0  0  0  0  0  0  0  0  0  0  0  0
    3.3338   -0.5028    1.8746 H   0  0  0  0  0  0  0  0  0  0  0  0
    3.0039    0.5086   -1.0022 H   0  0  0  0  0  0  0  0  0  0  0  0
    3.8137    2.6870   -0.0570 H   0  0  0  0  0  0  0  0  0  0  0  0
    3.9081    1.8945    1.5422 H   0  0  0  0  0  0  0  0  0  0  0  0
    1.4417    1.6554    1.6062 H   0  0  0  0  0  0  0  0  0  0  0  0
    1.9576    3.3231    1.3755 H   0  0  0  0  0  0  0  0  0  0  0  0
    1.8495    4.0475   -1.3539 H   0  0  0  0  0  0  0  0  0  0  0  0
    5.7185    2.1734   -0.2284 H   0  0  0  0  0  0  0  0  0  0  0  0
    7.4183   -0.2975   -0.7637 H   0  0  0  0  0  0  0  0  0  0  0  0
    9.2014    1.3723   -1.4071 H   0  0  0  0  0  0  0  0  0  0  0  0
    8.1330    2.7282   -1.0759 H   0  0  0  0  0  0  0  0  0  0  0  0
    7.5804    0.6169   -3.2516 H   0  0  0  0  0  0  0  0  0  0  0  0
    8.3416    2.2548   -3.4626 H   0  0  0  0  0  0  0  0  0  0  0  0
    4.2713    1.5775   -3.2337 H   0  0  0  0  0  0  0  0  0  0  0  0
    9.9447    0.3281    0.2591 H   0  0  0  0  0  0  0  0  0  0  0  0
    9.7583    0.5480    2.0195 H   0  0  0  0  0  0  0  0  0  0  0  0
  1  2  1  0
  2  3  1  0
  2  4  1  0
  4  5  1  0
  4  6  1  0
  6  7  2  0
  6  8  1  0
  8  9  1  0
  9 10  1  0
 10 11  1  0
 11 12  1  0
 12 13  1  0
 12 14  2  0
  9 15  1  0
 15 16  2  0
 15 17  1  0
 17 18  1  0
 18 19  1  0
 19 20  1  0
 20 21  1  0
 21 22  1  0
 21 23  2  0
 18 24  1  0
 24 25  2  0
 24 26  1  0
 26 27  1  0
 27 28  1  0
 28 29  1  0
 29 30  1  0
 30 31  1  0
 30 32  2  0
 27 33  1  0
 33 34  2  0
 33 35  1  0
 35 36  1  0
 36 37  1  0
 37 38  1  0
 38 39  1  0
 39 40  1  0
 39 41  2  0
 36 42  1  0
 42 43  2  0
 42 44  1  0
 44 45  1  0
 45 46  1  0
 46 47  1  0
 47 48  1  0
 48 49  1  0
 48 50  2  0
 45 51  1  0
 51 52  1  0
 51 53  2  0
  1 54  1  0
  1 55  1  0
  1 56  1  0
  2 57  1  0
  3 58  1  0
  3 59  1  0
  3 60  1  0
  4 61  1  6
  5 62  1  0
  5 63  1  0
  8 64  1  0
  9 65  1  6
 10 66  1  0
 10 67  1  0
 11 68  1  0
 11 69  1  0
 13 70  1  0
 17 71  1  0
 18 72  1  1
 19 73  1  0
 19 74  1  0
 20 75  1  0
 20 76  1  0
 22 77  1  0
 26 78  1  0
 27 79  1  1
 28 80  1  0
 28 81  1  0
 29 82  1  0
 29 83  1  0
 31 84  1  0
 35 85  1  0
 36 86  1  6
 37 87  1  0
 37 88  1  0
 38 89  1  0
 38 90  1  0
 40 91  1  0
 44 92  1  0
 45 93  1  6
 46 94  1  0
 46 95  1  0
 47 96  1  0
 47 97  1  0
 49 98  1  0
 52 99  1  0
 52100  1  0
M  END
$$$$
[H]c1nc(N([H])[H])c2c(C3=C(c4c([H])n([H])c5c([H])c([H])c([H])c([H])c45)C(=O)N([H])C3=O)nc(N3C([H])([H])C([H])([H])N(C([H])([H])[H])C([H])([H])C3([H])[H])nc2n1
     RDKit          3D

 55 60  0  0  0  0  0  0  0  0999 V2000
   -6.1614    1.6673   -2.1138 C   0  0  0  0  0  0  0  0  0  0  0  0
   -5.6059    0.7953   -1.1476 N   0  0  0  0  0  0  0  0  0  0  0  0
   -4.6325   -0.1331   -1.5767 C   0  0  0  0  0  0  0  0  0  0  0  0
   -3.2242    0.3958   -1.4390 C   0  0  0  0  0  0  0  0  0  0  0  0
   -2.9849    0.8075   -0.0580 N   0  0  0  0  0  0  0  0  0  0  0  0
   -3.9691    1.6966    0.4859 C   0  0  0  0  0  0  0  0  0  0  0  0
   -5.3638    1.2842    0.1488 C   0  0  0  0  0  0  0  0  0  0  0  0
   -1.8452    0.3423    0.6880 C   0  0  0  0  0  0  0  0  0  0  0  0
   -0.9696   -0.5067    0.1789 N   0  0  0  0  0  0  0  0  0  0  0  0
    0.1447   -0.9988    0.8262 C   0  0  0  0  0  0  0  0  0  0  0  0
    0.9791   -1.9202    0.1019 C   0  0  0  0  0  0  0  0  0  0  0  0
    1.9465   -1.5963   -0.7275 C   0  0  0  0  0  0  0  0  0  0  0  0
    2.5502   -2.8401   -1.2718 C   0  0  0  0  0  0  0  0  0  0  0  0
    3.4953   -2.9308   -2.0881 O   0  0  0  0  0  0  0  0  0  0  0  0
    1.8572   -3.9578   -0.7006 N   0  0  0  0  0  0  0  0  0  0  0  0
    0.8822   -3.3731    0.1503 C   0  0  0  0  0  0  0  0  0  0  0  0
    0.0557   -4.0506    0.8439 O   0  0  0  0  0  0  0  0  0  0  0  0
    2.4196   -0.2884   -1.1668 C   0  0  0  0  0  0  0  0  0  0  0  0
    1.7297    0.7513   -1.7242 C   0  0  0  0  0  0  0  0  0  0  0  0
    2.5858    1.7652   -1.9356 N   0  0  0  0  0  0  0  0  0  0  0  0
    3.8294    1.4497   -1.5413 C   0  0  0  0  0  0  0  0  0  0  0  0
    5.0428    2.0721   -1.5138 C   0  0  0  0  0  0  0  0  0  0  0  0
    6.1809    1.4773   -1.0236 C   0  0  0  0  0  0  0  0  0  0  0  0
    6.1248    0.1887   -0.5278 C   0  0  0  0  0  0  0  0  0  0  0  0
    4.8860   -0.4424   -0.5580 C   0  0  0  0  0  0  0  0  0  0  0  0
    3.7443    0.1507   -1.0499 C   0  0  0  0  0  0  0  0  0  0  0  0
    0.3864   -0.5873    2.1056 C   0  0  0  0  0  0  0  0  0  0  0  0
    1.4632   -1.0116    2.8356 C   0  0  0  0  0  0  0  0  0  0  0  0
    2.4625   -1.9126    2.3946 N   0  0  0  0  0  0  0  0  0  0  0  0
    1.5841   -0.5133    4.1137 N   0  0  0  0  0  0  0  0  0  0  0  0
    0.6946    0.3448    4.6226 C   0  0  0  0  0  0  0  0  0  0  0  0
   -0.3574    0.7548    3.8989 N   0  0  0  0  0  0  0  0  0  0  0  0
   -0.5466    0.3140    2.6412 C   0  0  0  0  0  0  0  0  0  0  0  0
   -1.6220    0.7537    1.9393 N   0  0  0  0  0  0  0  0  0  0  0  0
   -5.8756    1.3759   -3.1673 H   0  0  0  0  0  0  0  0  0  0  0  0
   -7.2854    1.5465   -2.1009 H   0  0  0  0  0  0  0  0  0  0  0  0
   -5.8783    2.7402   -2.0236 H   0  0  0  0  0  0  0  0  0  0  0  0
   -4.7545   -0.4231   -2.6415 H   0  0  0  0  0  0  0  0  0  0  0  0
   -4.7036   -1.0683   -0.9999 H   0  0  0  0  0  0  0  0  0  0  0  0
   -3.0014    1.2087   -2.1382 H   0  0  0  0  0  0  0  0  0  0  0  0
   -2.5243   -0.4364   -1.6459 H   0  0  0  0  0  0  0  0  0  0  0  0
   -3.9115    1.8065    1.5978 H   0  0  0  0  0  0  0  0  0  0  0  0
   -3.7927    2.7111    0.0505 H   0  0  0  0  0  0  0  0  0  0  0  0
   -5.6356    0.4604    0.8741 H   0  0  0  0  0  0  0  0  0  0  0  0
   -6.0547    2.1301    0.3458 H   0  0  0  0  0  0  0  0  0  0  0  0
    2.0132   -4.9682   -0.8574 H   0  0  0  0  0  0  0  0  0  0  0  0
    0.6832    0.7560   -1.9604 H   0  0  0  0  0  0  0  0  0  0  0  0
    2.3618    2.7149   -2.3571 H   0  0  0  0  0  0  0  0  0  0  0  0
    5.1228    3.0908   -1.8986 H   0  0  0  0  0  0  0  0  0  0  0  0
    7.1306    2.0141   -1.0224 H   0  0  0  0  0  0  0  0  0  0  0  0
    6.9848   -0.3183   -0.1342 H   0  0  0  0  0  0  0  0  0  0  0  0
    4.8596   -1.4335   -0.1557 H   0  0  0  0  0  0  0  0  0  0  0  0
    2.3640   -2.9263    2.6562 H   0  0  0  0  0  0  0  0  0  0  0  0
    3.2833   -1.6218    1.8726 H   0  0  0  0  0  0  0  0  0  0  0  0
    0.8519    0.6926    5.6276 H   0  0  0  0  0  0  0  0  0  0  0  0
  1  2  1  0
  2  3  1  0
  3  4  1  0
  4  5  1  0
  5  6  1  0
  6  7  1  0
  5  8  1  0
  8  9  2  0
  9 10  1  0
 10 11  1  0
 11 12  2  0
 12 13  1  0
 13 14  2  0
 13 15  1  0
 15 16  1  0
 16 17  2  0
 12 18  1  0
 18 19  2  0
 19 20  1  0
 20 21  1  0
 21 22  2  0
 22 23  1  0
 23 24  2  0
 24 25  1  0
 25 26  2  0
 10 27  2  0
 27 28  1  0
 28 29  1  0
 28 30  2  0
 30 31  1  0
 31 32  2  0
 32 33  1  0
 33 34  2  0
  7  2  1  0
 34  8  1  0
 16 11  1  0
 26 18  1  0
 33 27  1  0
 26 21  1  0
  1 35  1  0
  1 36  1  0
  1 37  1  0
  3 38  1  0
  3 39  1  0
  4 40  1  0
  4 41  1  0
  6 42  1  0
  6 43  1  0
  7 44  1  0
  7 45  1  0
 15 46  1  0
 19 47  1  0
 20 48  1  0
 22 49  1  0
 23 50  1  0
 24 51  1  0
 25 52  1  0
 29 53  1  0
 29 54  1  0
 31 55  1  0
M  END
$$$$
[H]c1c([H])c(Cl)c(-c2c([H])c3c([H])nc(N([H])c4c([H])c([H])c(N5C([H])([H])C([H])([H])N(C([H])([H])[H])C([H])([H])C5([H])[H])c(C([H])([H])[H])c4[H])nc3n(C([H])([H])[H])c2=O)c(Cl)c1[H]
     RDKit          3D

 61 65  0  0  0  0  0  0  0  0999 V2000
   -8.0296    1.9170    1.0234 C   0  0  0  0  0  0  0  0  0  0  0  0
   -7.4907    0.6261    0.6568 N   0  0  0  0  0  0  0  0  0  0  0  0
   -7.0303    0.5799   -0.7055 C   0  0  0  0  0  0  0  0  0  0  0  0
   -5.5212    0.6443   -0.8074 C   0  0  0  0  0  0  0  0  0  0  0  0
   -4.9023   -0.4315   -0.0642 N   0  0  0  0  0  0  0  0  0  0  0  0
   -5.6468   -0.9388    1.0846 C   0  0  0  0  0  0  0  0  0  0  0  0
   -6.5232    0.1407    1.6046 C   0  0  0  0  0  0  0  0  0  0  0  0
   -3.6353   -0.9780   -0.4241 C   0  0  0  0  0  0  0  0  0  0  0  0
   -3.4949   -2.2812   -0.8397 C   0  0  0  0  0  0  0  0  0  0  0  0
   -2.2590   -2.7709   -1.1840 C   0  0  0  0  0  0  0  0  0  0  0  0
   -1.0907   -2.0022   -1.1377 C   0  0  0  0  0  0  0  0  0  0  0  0
    0.1160   -2.5983   -1.5274 N   0  0  0  0  0  0  0  0  0  0  0  0
    1.4321   -2.1776   -1.3058 C   0  0  0  0  0  0  0  0  0  0  0  0
    2.4777   -2.8971   -1.7776 N   0  0  0  0  0  0  0  0  0  0  0  0
    3.7521   -2.5229   -1.5661 C   0  0  0  0  0  0  0  0  0  0  0  0
    4.0455   -1.3813   -0.8540 C   0  0  0  0  0  0  0  0  0  0  0  0
    5.3086   -0.9321   -0.5943 C   0  0  0  0  0  0  0  0  0  0  0  0
    5.5663    0.2231    0.1280 C   0  0  0  0  0  0  0  0  0  0  0  0
    6.9391    0.6509    0.3740 C   0  0  0  0  0  0  0  0  0  0  0  0
    7.6707    0.2613    1.4726 C   0  0  0  0  0  0  0  0  0  0  0  0
    6.8950   -0.8035    2.6226 Cl  0  0  0  0  0  0  0  0  0  0  0  0
    8.9708    0.6780    1.6866 C   0  0  0  0  0  0  0  0  0  0  0  0
    9.5710    1.5168    0.7723 C   0  0  0  0  0  0  0  0  0  0  0  0
    8.8543    1.9282   -0.3504 C   0  0  0  0  0  0  0  0  0  0  0  0
    7.5600    1.4902   -0.5273 C   0  0  0  0  0  0  0  0  0  0  0  0
    6.6409    2.0022   -1.9434 Cl  0  0  0  0  0  0  0  0  0  0  0  0
    4.4644    0.9279    0.5915 C   0  0  0  0  0  0  0  0  0  0  0  0
    4.6487    1.9858    1.2536 O   0  0  0  0  0  0  0  0  0  0  0  0
    3.2110    0.4940    0.3413 N   0  0  0  0  0  0  0  0  0  0  0  0
    2.0583    1.2276    0.8233 C   0  0  0  0  0  0  0  0  0  0  0  0
    2.9785   -0.6365   -0.3659 C   0  0  0  0  0  0  0  0  0  0  0  0
    1.7456   -1.0857   -0.6253 N   0  0  0  0  0  0  0  0  0  0  0  0
   -1.2468   -0.7127   -0.7242 C   0  0  0  0  0  0  0  0  0  0  0  0
   -2.5065   -0.2053   -0.3704 C   0  0  0  0  0  0  0  0  0  0  0  0
   -2.5557    1.2098    0.0740 C   0  0  0  0  0  0  0  0  0  0  0  0
   -7.9301    2.0247    2.1137 H   0  0  0  0  0  0  0  0  0  0  0  0
   -7.4708    2.7212    0.5186 H   0  0  0  0  0  0  0  0  0  0  0  0
   -9.1001    2.0221    0.7022 H   0  0  0  0  0  0  0  0  0  0  0  0
   -7.4482   -0.3090   -1.2021 H   0  0  0  0  0  0  0  0  0  0  0  0
   -7.4310    1.4721   -1.2268 H   0  0  0  0  0  0  0  0  0  0  0  0
   -5.2887    0.4281   -1.8923 H   0  0  0  0  0  0  0  0  0  0  0  0
   -5.1260    1.6369   -0.6096 H   0  0  0  0  0  0  0  0  0  0  0  0
   -4.9488   -1.2530    1.8833 H   0  0  0  0  0  0  0  0  0  0  0  0
   -6.2484   -1.8104    0.6958 H   0  0  0  0  0  0  0  0  0  0  0  0
   -7.0459   -0.1868    2.5258 H   0  0  0  0  0  0  0  0  0  0  0  0
   -5.8486    1.0114    1.8571 H   0  0  0  0  0  0  0  0  0  0  0  0
   -4.3863   -2.8903   -0.8817 H   0  0  0  0  0  0  0  0  0  0  0  0
   -2.1647   -3.8043   -1.5093 H   0  0  0  0  0  0  0  0  0  0  0  0
    0.0422   -3.5251   -2.0935 H   0  0  0  0  0  0  0  0  0  0  0  0
    4.5838   -3.0946   -1.9406 H   0  0  0  0  0  0  0  0  0  0  0  0
    6.1534   -1.4923   -0.9621 H   0  0  0  0  0  0  0  0  0  0  0  0
    9.5555    0.3790    2.5456 H   0  0  0  0  0  0  0  0  0  0  0  0
   10.5847    1.8790    0.8808 H   0  0  0  0  0  0  0  0  0  0  0  0
    9.3461    2.5830   -1.0487 H   0  0  0  0  0  0  0  0  0  0  0  0
    1.4360    0.6091    1.5266 H   0  0  0  0  0  0  0  0  0  0  0  0
    1.4285    1.5913   -0.0186 H   0  0  0  0  0  0  0  0  0  0  0  0
    2.3494    2.1276    1.4012 H   0  0  0  0  0  0  0  0  0  0  0  0
   -0.4202   -0.0313   -0.6622 H   0  0  0  0  0  0  0  0  0  0  0  0
   -2.7617    1.8543   -0.8021 H   0  0  0  0  0  0  0  0  0  0  0  0
   -1.5560    1.5044    0.5166 H   0  0  0  0  0  0  0  0  0  0  0  0
   -3.2773    1.4047    0.8681 H   0  0  0  0  0  0  0  0  0  0  0  0
  1  2  1  0
  2  3  1  0
  3  4  1  0
  4  5  1  0
  5  6  1  0
  6  7  1  0
  5  8  1  0
  8  9  2  0
  9 10  1  0
 10 11  2  0
 11 12  1  0
 12 13  1  0
 13 14  2  0
 14 15  1  0
 15 16  2  0
 16 17  1  0
 17 18  2  0
 18 19  1  0
 19 20  2  0
 20 21  1  0
 20 22  1  0
 22 23  2  0
 23 24  1  0
 24 25  2  0
 25 26  1  0
 18 27  1  0
 27 28  2  0
 27 29  1  0
 29 30  1  0
 29 31  1  0
 31 32  2  0
 11 33  1  0
 33 34  2  0
 34 35  1  0
  7  2  1  0
 34  8  1  0
 32 13  1  0
 31 16  1  0
 25 19  1  0
  1 36  1  0
  1 37  1  0
  1 38  1  0
  3 39  1  0
  3 40  1  0
  4 41  1  0
  4 42  1  0
  6 43  1  0
  6 44  1  0
  7 45  1  0
  7 46  1  0
  9 47  1  0
 10 48  1  0
 12 49  1  0
 15 50  1  0
 17 51  1  0
 22 52  1  0
 23 53  1  0
 24 54  1  0
 30 55  1  0
 30 56  1  0
 30 57  1  0
 33 58  1  0
 35 59  1  0
 35 60  1  0
 35 61  1  0
M  END
$$$$
[H]OC(=O)C([H])([H])C([H])(C(=O)C([H])([H])Oc1c([H])c([H])c([H])c([H])c1[H])N([H])C(=O)[C@@]([H])(N([H])C(=O)[C@@]([H])(N([H])C(=O)OC([H])([H])c1c([H])c([H])c([H])c([H])c1[H])C([H])(C([H])([H])[H])C([H])([H])[H])C([H])([H])[H]
     RDKit          3D

 71 72  0  0  0  0  0  0  0  0999 V2000
    3.0054    2.8335   -1.8093 C   0  0  0  0  0  0  0  0  0  0  0  0
    1.9803    1.8773   -1.2394 C   0  0  0  0  0  0  0  0  0  0  0  0
    1.1092    1.2881   -2.2781 C   0  0  0  0  0  0  0  0  0  0  0  0
    2.7525    0.8315   -0.4416 C   0  0  2  0  0  0  0  0  0  0  0  0
    3.6878    0.1174   -1.2505 N   0  0  0  0  0  0  0  0  0  0  0  0
    5.0849    0.2890   -1.2873 C   0  0  0  0  0  0  0  0  0  0  0  0
    5.6496    1.1520   -0.5589 O   0  0  0  0  0  0  0  0  0  0  0  0
    5.8989   -0.4627   -2.1120 O   0  0  0  0  0  0  0  0  0  0  0  0
    7.2646   -0.2881   -2.1539 C   0  0  0  0  0  0  0  0  0  0  0  0
    8.0115   -0.5106   -0.9114 C   0  0  0  0  0  0  0  0  0  0  0  0
    9.3310   -0.0417   -0.8291 C   0  0  0  0  0  0  0  0  0  0  0  0
   10.0886   -0.2094    0.2816 C   0  0  0  0  0  0  0  0  0  0  0  0
    9.5587   -0.8659    1.3889 C   0  0  0  0  0  0  0  0  0  0  0  0
    8.2662   -1.3412    1.3478 C   0  0  0  0  0  0  0  0  0  0  0  0
    7.5266   -1.1546    0.2061 C   0  0  0  0  0  0  0  0  0  0  0  0
    1.7962   -0.0801    0.2560 C   0  0  0  0  0  0  0  0  0  0  0  0
    1.8733   -1.3332    0.1020 O   0  0  0  0  0  0  0  0  0  0  0  0
    0.7779    0.4157    1.1008 N   0  0  0  0  0  0  0  0  0  0  0  0
   -0.1347   -0.5550    1.7238 C   0  0  1  0  0  0  0  0  0  0  0  0
   -0.0136   -0.3448    3.2223 C   0  0  0  0  0  0  0  0  0  0  0  0
   -1.4875   -0.3022    1.2189 C   0  0  0  0  0  0  0  0  0  0  0  0
   -1.6961    0.6474    0.4227 O   0  0  0  0  0  0  0  0  0  0  0  0
   -2.5970   -1.0924    1.5929 N   0  0  0  0  0  0  0  0  0  0  0  0
   -3.9373   -0.8130    1.0774 C   0  0  0  0  0  0  0  0  0  0  0  0
   -4.4014   -1.9279    0.1841 C   0  0  0  0  0  0  0  0  0  0  0  0
   -4.4952   -3.2416    0.8217 C   0  0  0  0  0  0  0  0  0  0  0  0
   -4.3076   -3.4446    2.1594 O   0  0  0  0  0  0  0  0  0  0  0  0
   -4.7682   -4.2453    0.0859 O   0  0  0  0  0  0  0  0  0  0  0  0
   -4.8942   -0.5703    2.1435 C   0  0  0  0  0  0  0  0  0  0  0  0
   -4.4801   -0.8126    3.3011 O   0  0  0  0  0  0  0  0  0  0  0  0
   -6.2831   -0.0752    2.0996 C   0  0  0  0  0  0  0  0  0  0  0  0
   -6.9063    0.2567    1.0287 O   0  0  0  0  0  0  0  0  0  0  0  0
   -7.5419    0.5936   -0.0641 C   0  0  0  0  0  0  0  0  0  0  0  0
   -7.8677   -0.2477   -1.1193 C   0  0  0  0  0  0  0  0  0  0  0  0
   -8.5221    0.1794   -2.2078 C   0  0  0  0  0  0  0  0  0  0  0  0
   -8.9013    1.4906   -2.3221 C   0  0  0  0  0  0  0  0  0  0  0  0
   -8.6110    2.3866   -1.3119 C   0  0  0  0  0  0  0  0  0  0  0  0
   -7.9525    1.9383   -0.2246 C   0  0  0  0  0  0  0  0  0  0  0  0
    2.5219    3.5848   -2.4882 H   0  0  0  0  0  0  0  0  0  0  0  0
    3.7323    2.2891   -2.4718 H   0  0  0  0  0  0  0  0  0  0  0  0
    3.5274    3.4113   -1.0225 H   0  0  0  0  0  0  0  0  0  0  0  0
    1.4008    2.4373   -0.4794 H   0  0  0  0  0  0  0  0  0  0  0  0
    1.4717    0.3435   -2.7254 H   0  0  0  0  0  0  0  0  0  0  0  0
    0.8814    2.0716   -3.0419 H   0  0  0  0  0  0  0  0  0  0  0  0
    0.1164    1.0355   -1.8241 H   0  0  0  0  0  0  0  0  0  0  0  0
    3.2970    1.4147    0.3097 H   0  0  0  0  0  0  0  0  0  0  0  0
    3.2811   -0.6302   -1.8925 H   0  0  0  0  0  0  0  0  0  0  0  0
    7.6838   -0.9807   -2.9439 H   0  0  0  0  0  0  0  0  0  0  0  0
    7.5436    0.7220   -2.5369 H   0  0  0  0  0  0  0  0  0  0  0  0
    9.7242    0.4664   -1.7064 H   0  0  0  0  0  0  0  0  0  0  0  0
   11.1083    0.1849    0.2747 H   0  0  0  0  0  0  0  0  0  0  0  0
   10.2152   -0.9661    2.2479 H   0  0  0  0  0  0  0  0  0  0  0  0
    7.8825   -1.8430    2.2188 H   0  0  0  0  0  0  0  0  0  0  0  0
    6.5077   -1.5316    0.1661 H   0  0  0  0  0  0  0  0  0  0  0  0
    0.6023    1.4129    1.3328 H   0  0  0  0  0  0  0  0  0  0  0  0
    0.1432   -1.5865    1.4300 H   0  0  0  0  0  0  0  0  0  0  0  0
   -0.2590   -1.2651    3.7780 H   0  0  0  0  0  0  0  0  0  0  0  0
   -0.5718    0.5434    3.5413 H   0  0  0  0  0  0  0  0  0  0  0  0
    1.0726   -0.1469    3.4726 H   0  0  0  0  0  0  0  0  0  0  0  0
   -2.4646   -1.8785    2.2411 H   0  0  0  0  0  0  0  0  0  0  0  0
   -3.8595    0.1061    0.4360 H   0  0  0  0  0  0  0  0  0  0  0  0
   -5.3610   -1.7088   -0.3028 H   0  0  0  0  0  0  0  0  0  0  0  0
   -3.6804   -2.0153   -0.6997 H   0  0  0  0  0  0  0  0  0  0  0  0
   -4.8044   -4.1208    2.7345 H   0  0  0  0  0  0  0  0  0  0  0  0
   -6.2209    0.8745    2.7985 H   0  0  0  0  0  0  0  0  0  0  0  0
   -6.9225   -0.7386    2.8042 H   0  0  0  0  0  0  0  0  0  0  0  0
   -7.5770   -1.2782   -1.0295 H   0  0  0  0  0  0  0  0  0  0  0  0
   -8.7850   -0.4841   -3.0597 H   0  0  0  0  0  0  0  0  0  0  0  0
   -9.4266    1.8665   -3.1825 H   0  0  0  0  0  0  0  0  0  0  0  0
   -8.9217    3.4315   -1.4292 H   0  0  0  0  0  0  0  0  0  0  0  0
   -7.7234    2.6416    0.5798 H   0  0  0  0  0  0  0  0  0  0  0  0
  1  2  1  0
  2  3  1  0
  2  4  1  0
  4  5  1  0
  5  6  1  0
  6  7  2  0
  6  8  1  0
  8  9  1  0
  9 10  1  0
 10 11  2  0
 11 12  1  0
 12 13  2  0
 13 14  1  0
 14 15  2  0
  4 16  1  0
 16 17  2  0
 16 18  1  0
 18 19  1  0
 19 20  1  0
 19 21  1  0
 21 22  2  0
 21 23  1  0
 23 24  1  0
 24 25  1  0
 25 26  1  0
 26 27  1  0
 26 28  2  0
 24 29  1  0
 29 30  2  0
 29 31  1  0
 31 32  1  0
 32 33  1  0
 33 34  2  0
 34 35  1  0
 35 36  2  0
 36 37  1  0
 37 38  2  0
 15 10  1  0
 38 33  1  0
  1 39  1  0
  1 40  1  0
  1 41  1  0
  2 42  1  0
  3 43  1  0
  3 44  1  0
  3 45  1  0
  4 46  1  1
  5 47  1  0
  9 48  1  0
  9 49  1  0
 11 50  1  0
 12 51  1  0
 13 52  1  0
 14 53  1  0
 15 54  1  0
 18 55  1  0
 19 56  1  1
 20 57  1  0
 20 58  1  0
 20 59  1  0
 23 60  1  0
 24 61  1  0
 25 62  1  0
 25 63  1  0
 27 64  1  0
 31 65  1  0
 31 66  1  0
 34 67  1  0
 35 68  1  0
 36 69  1  0
 37 70  1  0
 38 71  1  0
M  END
$$$$
[H]OC(=O)c1c([H])c([H])c(N([H])C(=O)N2C([H])([H])C([H])([H])N(c3c([H])c([H])c([N+](=O)[O-])c([H])c3[H])C([H])([H])C2([H])[H])c([H])c1[H]
     RDKit          3D

 45 47  0  0  0  0  0  0  0  0999 V2000
   -8.9900   -0.0316    0.7716 O   0  0  0  0  0  0  0  0  0  0  0  0
   -8.1646   -0.4115   -0.2498 N   0  0  0  0  0  0  0  0  0  0  0  0
   -8.6854   -0.7841   -1.3168 O   0  0  0  0  0  0  0  0  0  0  0  0
   -6.7541   -0.3708   -0.0671 C   0  0  0  0  0  0  0  0  0  0  0  0
   -6.1677    0.0388    1.1063 C   0  0  0  0  0  0  0  0  0  0  0  0
   -4.7735    0.0707    1.2638 C   0  0  0  0  0  0  0  0  0  0  0  0
   -3.9352   -0.3065    0.2499 C   0  0  0  0  0  0  0  0  0  0  0  0
   -4.5436   -0.7200   -0.9354 C   0  0  0  0  0  0  0  0  0  0  0  0
   -5.9115   -0.7513   -1.0895 C   0  0  0  0  0  0  0  0  0  0  0  0
   -2.5085   -0.2886    0.3566 N   0  0  0  0  0  0  0  0  0  0  0  0
   -1.7133   -0.8186   -0.7316 C   0  0  0  0  0  0  0  0  0  0  0  0
   -0.2434   -0.7180   -0.5475 C   0  0  0  0  0  0  0  0  0  0  0  0
    0.1762    0.3989    0.2477 N   0  0  0  0  0  0  0  0  0  0  0  0
   -0.7780    1.2342    0.9433 C   0  0  0  0  0  0  0  0  0  0  0  0
   -1.8111    0.2354    1.5013 C   0  0  0  0  0  0  0  0  0  0  0  0
    1.5582    0.6922    0.3598 C   0  0  0  0  0  0  0  0  0  0  0  0
    1.9481    1.6540    1.0375 O   0  0  0  0  0  0  0  0  0  0  0  0
    2.4864   -0.1329   -0.3157 N   0  0  0  0  0  0  0  0  0  0  0  0
    3.8911    0.0109   -0.3268 C   0  0  0  0  0  0  0  0  0  0  0  0
    4.4937    1.2020   -0.0692 C   0  0  0  0  0  0  0  0  0  0  0  0
    5.9007    1.2702   -0.0679 C   0  0  0  0  0  0  0  0  0  0  0  0
    6.6871    0.1740   -0.3188 C   0  0  0  0  0  0  0  0  0  0  0  0
    6.0324   -1.0113   -0.5753 C   0  0  0  0  0  0  0  0  0  0  0  0
    4.6740   -1.1156   -0.5847 C   0  0  0  0  0  0  0  0  0  0  0  0
    8.1381    0.2551   -0.3151 C   0  0  0  0  0  0  0  0  0  0  0  0
    8.8024    1.4418   -0.0584 O   0  0  0  0  0  0  0  0  0  0  0  0
    8.8326   -0.7666   -0.5486 O   0  0  0  0  0  0  0  0  0  0  0  0
   -6.7992    0.3424    1.9240 H   0  0  0  0  0  0  0  0  0  0  0  0
   -4.3606    0.4017    2.2191 H   0  0  0  0  0  0  0  0  0  0  0  0
   -3.9171   -1.0211   -1.7457 H   0  0  0  0  0  0  0  0  0  0  0  0
   -6.3668   -1.0774   -2.0230 H   0  0  0  0  0  0  0  0  0  0  0  0
   -1.9853   -0.3745   -1.7092 H   0  0  0  0  0  0  0  0  0  0  0  0
   -1.9808   -1.9080   -0.8100 H   0  0  0  0  0  0  0  0  0  0  0  0
    0.2486   -0.5838   -1.5569 H   0  0  0  0  0  0  0  0  0  0  0  0
    0.1804   -1.6711   -0.1594 H   0  0  0  0  0  0  0  0  0  0  0  0
   -0.3281    1.8219    1.7575 H   0  0  0  0  0  0  0  0  0  0  0  0
   -1.3474    1.8574    0.2239 H   0  0  0  0  0  0  0  0  0  0  0  0
   -1.2788   -0.5756    2.0587 H   0  0  0  0  0  0  0  0  0  0  0  0
   -2.4393    0.8440    2.1738 H   0  0  0  0  0  0  0  0  0  0  0  0
    2.1276   -0.9616   -0.8961 H   0  0  0  0  0  0  0  0  0  0  0  0
    3.9794    2.1145    0.1223 H   0  0  0  0  0  0  0  0  0  0  0  0
    6.3742    2.2116    0.1363 H   0  0  0  0  0  0  0  0  0  0  0  0
    6.6354   -1.8861   -0.7756 H   0  0  0  0  0  0  0  0  0  0  0  0
    4.1590   -2.0390   -0.7831 H   0  0  0  0  0  0  0  0  0  0  0  0
    8.4580    2.0537    0.6738 H   0  0  0  0  0  0  0  0  0  0  0  0
  1  2  1  0
  2  3  2  0
  2  4  1  0
  4  5  2  0
  5  6  1  0
  6  7  2  0
  7  8  1  0
  8  9  2  0
  7 10  1  0
 10 11  1  0
 11 12  1  0
 12 13  1  0
 13 14  1  0
 14 15  1  0
 13 16  1  0
 16 17  2  0
 16 18  1  0
 18 19  1  0
 19 20  2  0
 20 21  1  0
 21 22  2  0
 22 23  1  0
 23 24  2  0
 22 25  1  0
 25 26  1  0
 25 27  2  0
  9  4  1  0
 15 10  1  0
 24 19  1  0
  5 28  1  0
  6 29  1  0
  8 30  1  0
  9 31  1  0
 11 32  1  0
 11 33  1  0
 12 34  1  0
 12 35  1  0
 14 36  1  0
 14 37  1  0
 15 38  1  0
 15 39  1  0
 18 40  1  0
 20 41  1  0
 21 42  1  0
 23 43  1  0
 24 44  1  0
 26 45  1  0
M  CHG  2   1  -1   2   1
M  END
$$$$
[H]c1c([H])c(N([H])[H])c2c(C3=C(c4c([H])n([H])c5c([H])c([H])c([H])c([H])c45)C(=O)N([H])C3=O)nc(N3C([H])([H])C([H])([H])N(C([H])([H])[H])C([H])([H])C3([H])[H])nc2c1[H]
     RDKit          3D

 57 62  0  0  0  0  0  0  0  0999 V2000
   -5.8927   -2.8399   -0.6365 C   0  0  0  0  0  0  0  0  0  0  0  0
   -4.6760   -2.0654   -0.7699 N   0  0  0  0  0  0  0  0  0  0  0  0
   -3.9983   -2.0926    0.5089 C   0  0  0  0  0  0  0  0  0  0  0  0
   -2.6608   -1.3928    0.4872 C   0  0  0  0  0  0  0  0  0  0  0  0
   -2.6471   -0.2596   -0.4055 N   0  0  0  0  0  0  0  0  0  0  0  0
   -3.6621   -0.0057   -1.3957 C   0  0  0  0  0  0  0  0  0  0  0  0
   -4.9795   -0.6608   -1.0431 C   0  0  0  0  0  0  0  0  0  0  0  0
   -1.5785    0.6600   -0.3043 C   0  0  0  0  0  0  0  0  0  0  0  0
   -0.6474    0.4831    0.5936 N   0  0  0  0  0  0  0  0  0  0  0  0
    0.4480    1.2674    0.8289 C   0  0  0  0  0  0  0  0  0  0  0  0
    1.3268    0.8700    1.8816 C   0  0  0  0  0  0  0  0  0  0  0  0
    2.4483    0.2330    1.8615 C   0  0  0  0  0  0  0  0  0  0  0  0
    2.9588    0.0773    3.2569 C   0  0  0  0  0  0  0  0  0  0  0  0
    4.0253   -0.4905    3.6035 O   0  0  0  0  0  0  0  0  0  0  0  0
    2.0332    0.6830    4.1511 N   0  0  0  0  0  0  0  0  0  0  0  0
    1.0113    1.1794    3.2999 C   0  0  0  0  0  0  0  0  0  0  0  0
   -0.0210    1.7976    3.6944 O   0  0  0  0  0  0  0  0  0  0  0  0
    3.2308   -0.3734    0.7923 C   0  0  0  0  0  0  0  0  0  0  0  0
    4.5761   -0.0316    0.5117 C   0  0  0  0  0  0  0  0  0  0  0  0
    5.0534   -0.7633   -0.4788 N   0  0  0  0  0  0  0  0  0  0  0  0
    4.0779   -1.5735   -0.8610 C   0  0  0  0  0  0  0  0  0  0  0  0
    4.0873   -2.5511   -1.8638 C   0  0  0  0  0  0  0  0  0  0  0  0
    2.9536   -3.3008   -2.0832 C   0  0  0  0  0  0  0  0  0  0  0  0
    1.8371   -3.0790   -1.3184 C   0  0  0  0  0  0  0  0  0  0  0  0
    1.8201   -2.1224   -0.3340 C   0  0  0  0  0  0  0  0  0  0  0  0
    2.9504   -1.3693   -0.1120 C   0  0  0  0  0  0  0  0  0  0  0  0
    0.5447    2.3599    0.0091 C   0  0  0  0  0  0  0  0  0  0  0  0
    1.5495    3.2821    0.1084 C   0  0  0  0  0  0  0  0  0  0  0  0
    2.5762    3.2114    1.0853 N   0  0  0  0  0  0  0  0  0  0  0  0
    1.5730    4.3853   -0.7457 C   0  0  0  0  0  0  0  0  0  0  0  0
    0.6136    4.5865   -1.6943 C   0  0  0  0  0  0  0  0  0  0  0  0
   -0.3953    3.6871   -1.8100 C   0  0  0  0  0  0  0  0  0  0  0  0
   -0.4282    2.5800   -0.9597 C   0  0  0  0  0  0  0  0  0  0  0  0
   -1.4711    1.7382   -1.1086 N   0  0  0  0  0  0  0  0  0  0  0  0
   -6.5045   -2.5558    0.2219 H   0  0  0  0  0  0  0  0  0  0  0  0
   -5.5897   -3.9049   -0.5351 H   0  0  0  0  0  0  0  0  0  0  0  0
   -6.4641   -2.7832   -1.6074 H   0  0  0  0  0  0  0  0  0  0  0  0
   -3.8621   -3.1333    0.8898 H   0  0  0  0  0  0  0  0  0  0  0  0
   -4.6939   -1.5924    1.2441 H   0  0  0  0  0  0  0  0  0  0  0  0
   -1.8275   -2.1143    0.2524 H   0  0  0  0  0  0  0  0  0  0  0  0
   -2.4574   -1.0356    1.5215 H   0  0  0  0  0  0  0  0  0  0  0  0
   -3.8830    1.0787   -1.5292 H   0  0  0  0  0  0  0  0  0  0  0  0
   -3.3506   -0.4332   -2.3919 H   0  0  0  0  0  0  0  0  0  0  0  0
   -5.6594   -0.5623   -1.9015 H   0  0  0  0  0  0  0  0  0  0  0  0
   -5.4032   -0.1770   -0.1375 H   0  0  0  0  0  0  0  0  0  0  0  0
    2.1068    0.7389    5.1899 H   0  0  0  0  0  0  0  0  0  0  0  0
    5.1244    0.7299    1.0472 H   0  0  0  0  0  0  0  0  0  0  0  0
    6.0346   -0.7019   -0.8817 H   0  0  0  0  0  0  0  0  0  0  0  0
    4.9852   -2.6980   -2.4467 H   0  0  0  0  0  0  0  0  0  0  0  0
    2.9911   -4.0552   -2.8723 H   0  0  0  0  0  0  0  0  0  0  0  0
    0.9571   -3.6986   -1.5262 H   0  0  0  0  0  0  0  0  0  0  0  0
    0.9752   -1.9439    0.2772 H   0  0  0  0  0  0  0  0  0  0  0  0
    3.5043    2.8748    0.7533 H   0  0  0  0  0  0  0  0  0  0  0  0
    2.4903    3.4834    2.0781 H   0  0  0  0  0  0  0  0  0  0  0  0
    2.3927    5.0968   -0.6349 H   0  0  0  0  0  0  0  0  0  0  0  0
    0.6683    5.4642   -2.3463 H   0  0  0  0  0  0  0  0  0  0  0  0
   -1.1720    3.8133   -2.5477 H   0  0  0  0  0  0  0  0  0  0  0  0
  1  2  1  0
  2  3  1  0
  3  4  1  0
  4  5  1  0
  5  6  1  0
  6  7  1  0
  5  8  1  0
  8  9  2  0
  9 10  1  0
 10 11  1  0
 11 12  2  0
 12 13  1  0
 13 14  2  0
 13 15  1  0
 15 16  1  0
 16 17  2  0
 12 18  1  0
 18 19  2  0
 19 20  1  0
 20 21  1  0
 21 22  2  0
 22 23  1  0
 23 24  2  0
 24 25  1  0
 25 26  2  0
 10 27  2  0
 27 28  1  0
 28 29  1  0
 28 30  2  0
 30 31  1  0
 31 32  2  0
 32 33  1  0
 33 34  2  0
  7  2  1  0
 34  8  1  0
 16 11  1  0
 26 18  1  0
 33 27  1  0
 26 21  1  0
  1 35  1  0
  1 36  1  0
  1 37  1  0
  3 38  1  0
  3 39  1  0
  4 40  1  0
  4 41  1  0
  6 42  1  0
  6 43  1  0
  7 44  1  0
  7 45  1  0
 15 46  1  0
 19 47  1  0
 20 48  1  0
 22 49  1  0
 23 50  1  0
 24 51  1  0
 25 52  1  0
 29 53  1  0
 29 54  1  0
 30 55  1  0
 31 56  1  0
 32 57  1  0
M  END
$$$$
[H]N=C(N([H])[H])N([H])C([H])([H])C([H])([H])C([H])([H])[C@@]([H])(C(=O)c1nc2c([H])c([H])c([H])c([H])c2s1)N([H])C(=O)[C@@]1([H])N([H])C([H])([H])c2c([H])c([H])c([H])c([H])c2C1([H])[H]
     RDKit          3D

 58 61  0  0  0  0  0  0  0  0999 V2000
   -3.9746    3.3147    1.2763 N   0  0  0  0  0  0  0  0  0  0  0  0
   -2.8854    4.0125    0.7116 C   0  0  0  0  0  0  0  0  0  0  0  0
   -2.0910    4.6611    1.4836 N   0  0  0  0  0  0  0  0  0  0  0  0
   -2.6488    4.0363   -0.6758 N   0  0  0  0  0  0  0  0  0  0  0  0
   -2.8083    2.9318   -1.5617 C   0  0  0  0  0  0  0  0  0  0  0  0
   -1.8009    1.8359   -1.4526 C   0  0  0  0  0  0  0  0  0  0  0  0
   -1.7816    1.1838   -0.1312 C   0  0  0  0  0  0  0  0  0  0  0  0
   -0.7567    0.0345   -0.0724 C   0  0  2  0  0  0  0  0  0  0  0  0
    0.5060    0.6826   -0.3754 N   0  0  0  0  0  0  0  0  0  0  0  0
    1.4618    0.9868    0.5995 C   0  0  0  0  0  0  0  0  0  0  0  0
    1.2399    0.7064    1.8019 O   0  0  0  0  0  0  0  0  0  0  0  0
    2.7328    1.6356    0.2111 C   0  0  2  0  0  0  0  0  0  0  0  0
    3.4267    0.8870   -0.9072 C   0  0  0  0  0  0  0  0  0  0  0  0
    4.6852    0.2586   -0.5029 C   0  0  0  0  0  0  0  0  0  0  0  0
    5.5239   -0.2067   -1.5057 C   0  0  0  0  0  0  0  0  0  0  0  0
    6.7282   -0.8031   -1.1886 C   0  0  0  0  0  0  0  0  0  0  0  0
    7.1183   -0.9464    0.1384 C   0  0  0  0  0  0  0  0  0  0  0  0
    6.2939   -0.4883    1.1439 C   0  0  0  0  0  0  0  0  0  0  0  0
    5.0997    0.1012    0.7861 C   0  0  0  0  0  0  0  0  0  0  0  0
    4.1732    0.6110    1.8588 C   0  0  0  0  0  0  0  0  0  0  0  0
    3.5948    1.8321    1.3631 N   0  0  0  0  0  0  0  0  0  0  0  0
   -1.0664   -1.0806   -0.9418 C   0  0  0  0  0  0  0  0  0  0  0  0
   -0.4908   -1.2649   -2.0455 O   0  0  0  0  0  0  0  0  0  0  0  0
   -2.0777   -2.0706   -0.5615 C   0  0  0  0  0  0  0  0  0  0  0  0
   -2.5219   -3.1379   -1.1565 N   0  0  0  0  0  0  0  0  0  0  0  0
   -3.4151   -3.9025   -0.5949 C   0  0  0  0  0  0  0  0  0  0  0  0
   -3.9568   -5.0813   -1.1390 C   0  0  0  0  0  0  0  0  0  0  0  0
   -4.8831   -5.7909   -0.4305 C   0  0  0  0  0  0  0  0  0  0  0  0
   -5.3481   -5.4353    0.8181 C   0  0  0  0  0  0  0  0  0  0  0  0
   -4.8209   -4.2804    1.3563 C   0  0  0  0  0  0  0  0  0  0  0  0
   -3.8683   -3.5368    0.6449 C   0  0  0  0  0  0  0  0  0  0  0  0
   -2.9741   -2.1074    0.9237 S   0  0  0  0  0  0  0  0  0  0  0  0
   -4.8199    3.1110    0.7091 H   0  0  0  0  0  0  0  0  0  0  0  0
   -3.9581    2.9904    2.2640 H   0  0  0  0  0  0  0  0  0  0  0  0
   -2.2418    4.6751    2.5060 H   0  0  0  0  0  0  0  0  0  0  0  0
   -2.3138    4.9466   -1.1337 H   0  0  0  0  0  0  0  0  0  0  0  0
   -3.8640    2.5101   -1.4664 H   0  0  0  0  0  0  0  0  0  0  0  0
   -2.8423    3.3326   -2.6310 H   0  0  0  0  0  0  0  0  0  0  0  0
   -1.9827    1.1352   -2.3026 H   0  0  0  0  0  0  0  0  0  0  0  0
   -0.7777    2.2700   -1.7169 H   0  0  0  0  0  0  0  0  0  0  0  0
   -2.7444    0.7863    0.2061 H   0  0  0  0  0  0  0  0  0  0  0  0
   -1.3987    1.8883    0.6321 H   0  0  0  0  0  0  0  0  0  0  0  0
   -0.7318   -0.2316    0.9983 H   0  0  0  0  0  0  0  0  0  0  0  0
    0.6845    0.9174   -1.3686 H   0  0  0  0  0  0  0  0  0  0  0  0
    2.4608    2.6550   -0.1413 H   0  0  0  0  0  0  0  0  0  0  0  0
    2.7783    0.0893   -1.3164 H   0  0  0  0  0  0  0  0  0  0  0  0
    3.6383    1.5883   -1.7450 H   0  0  0  0  0  0  0  0  0  0  0  0
    5.2725   -0.1235   -2.5611 H   0  0  0  0  0  0  0  0  0  0  0  0
    7.4056   -1.1773   -1.9558 H   0  0  0  0  0  0  0  0  0  0  0  0
    8.0529   -1.4098    0.3966 H   0  0  0  0  0  0  0  0  0  0  0  0
    6.5913   -0.5951    2.1942 H   0  0  0  0  0  0  0  0  0  0  0  0
    4.7466    0.8551    2.7674 H   0  0  0  0  0  0  0  0  0  0  0  0
    3.4708   -0.2070    2.0402 H   0  0  0  0  0  0  0  0  0  0  0  0
    4.3019    2.5459    1.1269 H   0  0  0  0  0  0  0  0  0  0  0  0
   -3.6551   -5.4479   -2.1245 H   0  0  0  0  0  0  0  0  0  0  0  0
   -5.2888   -6.7086   -0.8801 H   0  0  0  0  0  0  0  0  0  0  0  0
   -6.0754   -6.0436    1.3133 H   0  0  0  0  0  0  0  0  0  0  0  0
   -5.1230   -3.9310    2.3174 H   0  0  0  0  0  0  0  0  0  0  0  0
  1  2  1  0
  2  3  2  3
  2  4  1  0
  4  5  1  0
  5  6  1  0
  6  7  1  0
  7  8  1  0
  8  9  1  0
  9 10  1  0
 10 11  2  0
 10 12  1  0
 12 13  1  0
 13 14  1  0
 14 15  2  0
 15 16  1  0
 16 17  2  0
 17 18  1  0
 18 19  2  0
 19 20  1  0
 20 21  1  0
  8 22  1  0
 22 23  2  0
 22 24  1  0
 24 25  2  0
 25 26  1  0
 26 27  2  0
 27 28  1  0
 28 29  2  0
 29 30  1  0
 30 31  2  0
 31 32  1  0
 21 12  1  0
 32 24  1  0
 19 14  1  0
 31 26  1  0
  1 33  1  0
  1 34  1  0
  3 35  1  0
  4 36  1  0
  5 37  1  0
  5 38  1  0
  6 39  1  0
  6 40  1  0
  7 41  1  0
  7 42  1  0
  8 43  1  1
  9 44  1  0
 12 45  1  6
 13 46  1  0
 13 47  1  0
 15 48  1  0
 16 49  1  0
 17 50  1  0
 18 51  1  0
 20 52  1  0
 20 53  1  0
 21 54  1  0
 27 55  1  0
 28 56  1  0
 29 57  1  0
 30 58  1  0
M  END
$$$$
[H]N=C(N([H])[H])N([H])C([H])([H])C([H])([H])C([H])([H])[C@]([H])(C(=O)c1nc2c([H])c([H])c([H])c([H])c2n1[H])N([H])C(=O)[C@@]1([H])N(C(=O)[C@@]([H])(N([H])C(=O)OC([H])([H])c2c([H])c([H])c([H])c([H])c2[H])C([H])([H])c2c([H])c([H])c([H])c([H])c2[H])C([H])([H])C([H])([H])C1([H])[H]
     RDKit          3D

 88 92  0  0  0  0  0  0  0  0999 V2000
   -9.5389    0.0307    1.6477 N   0  0  0  0  0  0  0  0  0  0  0  0
   -8.3206   -0.3227    2.2716 C   0  0  0  0  0  0  0  0  0  0  0  0
   -8.2699   -0.5531    3.5270 N   0  0  0  0  0  0  0  0  0  0  0  0
   -7.1412   -0.4244    1.4874 N   0  0  0  0  0  0  0  0  0  0  0  0
   -5.9776   -1.1200    1.9955 C   0  0  0  0  0  0  0  0  0  0  0  0
   -4.8764   -1.0756    0.9569 C   0  0  0  0  0  0  0  0  0  0  0  0
   -4.5157    0.3506    0.6731 C   0  0  0  0  0  0  0  0  0  0  0  0
   -3.4050    0.4660   -0.3797 C   0  0  1  0  0  0  0  0  0  0  0  0
   -2.2465   -0.2271    0.1443 N   0  0  0  0  0  0  0  0  0  0  0  0
   -1.0538    0.3855    0.5827 C   0  0  0  0  0  0  0  0  0  0  0  0
   -0.9360    1.6146    0.5356 O   0  0  0  0  0  0  0  0  0  0  0  0
    0.0920   -0.4338    1.1148 C   0  0  2  0  0  0  0  0  0  0  0  0
   -0.4021   -1.2157    2.3516 C   0  0  0  0  0  0  0  0  0  0  0  0
   -0.4597   -0.0654    3.3594 C   0  0  0  0  0  0  0  0  0  0  0  0
    0.5742    0.9537    2.8866 C   0  0  0  0  0  0  0  0  0  0  0  0
    1.1229    0.3219    1.7148 N   0  0  0  0  0  0  0  0  0  0  0  0
    2.4743    0.4479    1.3253 C   0  0  0  0  0  0  0  0  0  0  0  0
    3.2198    1.2826    1.9814 O   0  0  0  0  0  0  0  0  0  0  0  0
    3.1452   -0.2806    0.2301 C   0  0  2  0  0  0  0  0  0  0  0  0
    3.2520   -1.7363    0.6397 C   0  0  0  0  0  0  0  0  0  0  0  0
    3.8692   -2.6154   -0.3550 C   0  0  0  0  0  0  0  0  0  0  0  0
    3.1290   -3.1269   -1.4113 C   0  0  0  0  0  0  0  0  0  0  0  0
    3.6734   -3.9705   -2.3265 C   0  0  0  0  0  0  0  0  0  0  0  0
    4.9950   -4.3521   -2.2361 C   0  0  0  0  0  0  0  0  0  0  0  0
    5.7369   -3.8556   -1.2003 C   0  0  0  0  0  0  0  0  0  0  0  0
    5.1774   -2.9879   -0.2579 C   0  0  0  0  0  0  0  0  0  0  0  0
    4.4390    0.2930    0.0088 N   0  0  0  0  0  0  0  0  0  0  0  0
    5.5432    0.3197    0.8548 C   0  0  0  0  0  0  0  0  0  0  0  0
    5.5627   -0.1850    1.9983 O   0  0  0  0  0  0  0  0  0  0  0  0
    6.7646    0.9323    0.4846 O   0  0  0  0  0  0  0  0  0  0  0  0
    7.8594    0.9326    1.3685 C   0  0  0  0  0  0  0  0  0  0  0  0
    9.0136    1.6166    0.7847 C   0  0  0  0  0  0  0  0  0  0  0  0
    9.6614    1.1343   -0.3342 C   0  0  0  0  0  0  0  0  0  0  0  0
   10.7473    1.7949   -0.8440 C   0  0  0  0  0  0  0  0  0  0  0  0
   11.2303    2.9517   -0.2697 C   0  0  0  0  0  0  0  0  0  0  0  0
   10.5896    3.4428    0.8494 C   0  0  0  0  0  0  0  0  0  0  0  0
    9.4983    2.7760    1.3600 C   0  0  0  0  0  0  0  0  0  0  0  0
   -3.8052   -0.0212   -1.6949 C   0  0  0  0  0  0  0  0  0  0  0  0
   -3.1965   -0.9693   -2.2729 O   0  0  0  0  0  0  0  0  0  0  0  0
   -4.9312    0.5732   -2.3981 C   0  0  0  0  0  0  0  0  0  0  0  0
   -5.7385    1.5856   -2.0184 N   0  0  0  0  0  0  0  0  0  0  0  0
   -6.6667    1.8418   -2.9542 C   0  0  0  0  0  0  0  0  0  0  0  0
   -7.7104    2.7303   -3.0972 C   0  0  0  0  0  0  0  0  0  0  0  0
   -8.5066    2.7370   -4.2198 C   0  0  0  0  0  0  0  0  0  0  0  0
   -8.2597    1.8334   -5.2342 C   0  0  0  0  0  0  0  0  0  0  0  0
   -7.2349    0.9389   -5.1280 C   0  0  0  0  0  0  0  0  0  0  0  0
   -6.4473    0.9496   -3.9908 C   0  0  0  0  0  0  0  0  0  0  0  0
   -5.4021    0.2029   -3.6305 N   0  0  0  0  0  0  0  0  0  0  0  0
  -10.4369   -0.1347    2.1372 H   0  0  0  0  0  0  0  0  0  0  0  0
   -9.5317    0.4543    0.6989 H   0  0  0  0  0  0  0  0  0  0  0  0
   -9.1192   -0.4907    4.1449 H   0  0  0  0  0  0  0  0  0  0  0  0
   -7.1262    0.0063    0.5461 H   0  0  0  0  0  0  0  0  0  0  0  0
   -5.6086   -0.6471    2.9327 H   0  0  0  0  0  0  0  0  0  0  0  0
   -6.2026   -2.1703    2.2383 H   0  0  0  0  0  0  0  0  0  0  0  0
   -5.2268   -1.5503    0.0240 H   0  0  0  0  0  0  0  0  0  0  0  0
   -3.9735   -1.6016    1.3216 H   0  0  0  0  0  0  0  0  0  0  0  0
   -5.3646    0.9955    0.4188 H   0  0  0  0  0  0  0  0  0  0  0  0
   -4.0542    0.8210    1.5972 H   0  0  0  0  0  0  0  0  0  0  0  0
   -3.1833    1.5484   -0.4427 H   0  0  0  0  0  0  0  0  0  0  0  0
   -2.3254   -1.2855    0.1894 H   0  0  0  0  0  0  0  0  0  0  0  0
    0.3932   -1.1320    0.3021 H   0  0  0  0  0  0  0  0  0  0  0  0
    0.4214   -1.9140    2.6030 H   0  0  0  0  0  0  0  0  0  0  0  0
   -1.3662   -1.6880    2.1733 H   0  0  0  0  0  0  0  0  0  0  0  0
   -0.2515   -0.4250    4.3918 H   0  0  0  0  0  0  0  0  0  0  0  0
   -1.4694    0.3888    3.3905 H   0  0  0  0  0  0  0  0  0  0  0  0
    1.3667    1.0732    3.6845 H   0  0  0  0  0  0  0  0  0  0  0  0
    0.1287    1.9142    2.6385 H   0  0  0  0  0  0  0  0  0  0  0  0
    2.5395   -0.2287   -0.7206 H   0  0  0  0  0  0  0  0  0  0  0  0
    3.8944   -1.7766    1.5729 H   0  0  0  0  0  0  0  0  0  0  0  0
    2.2673   -2.1205    0.9424 H   0  0  0  0  0  0  0  0  0  0  0  0
    2.0933   -2.8091   -1.4545 H   0  0  0  0  0  0  0  0  0  0  0  0
    3.0576   -4.3348   -3.1195 H   0  0  0  0  0  0  0  0  0  0  0  0
    5.3906   -5.0316   -2.9908 H   0  0  0  0  0  0  0  0  0  0  0  0
    6.7783   -4.1484   -1.1190 H   0  0  0  0  0  0  0  0  0  0  0  0
    5.8498   -2.6700    0.5280 H   0  0  0  0  0  0  0  0  0  0  0  0
    4.5963    0.7782   -0.9456 H   0  0  0  0  0  0  0  0  0  0  0  0
    7.5871    1.4087    2.3418 H   0  0  0  0  0  0  0  0  0  0  0  0
    8.1329   -0.1353    1.5792 H   0  0  0  0  0  0  0  0  0  0  0  0
    9.2569    0.2198   -0.7663 H   0  0  0  0  0  0  0  0  0  0  0  0
   11.2506    1.4009   -1.7336 H   0  0  0  0  0  0  0  0  0  0  0  0
   12.0937    3.4586   -0.6893 H   0  0  0  0  0  0  0  0  0  0  0  0
   10.9576    4.3525    1.3113 H   0  0  0  0  0  0  0  0  0  0  0  0
    9.0020    3.1856    2.2554 H   0  0  0  0  0  0  0  0  0  0  0  0
   -7.8858    3.4282   -2.2889 H   0  0  0  0  0  0  0  0  0  0  0  0
   -9.3228    3.4344   -4.3266 H   0  0  0  0  0  0  0  0  0  0  0  0
   -8.8758    1.8352   -6.1096 H   0  0  0  0  0  0  0  0  0  0  0  0
   -7.0761    0.2467   -5.9467 H   0  0  0  0  0  0  0  0  0  0  0  0
   -4.9855   -0.5575   -4.1912 H   0  0  0  0  0  0  0  0  0  0  0  0
  1  2  1  0
  2  3  2  3
  2  4  1  0
  4  5  1  0
  5  6  1  0
  6  7  1  0
  7  8  1  0
  8  9  1  0
  9 10  1  0
 10 11  2  0
 10 12  1  0
 12 13  1  0
 13 14  1  0
 14 15  1  0
 15 16  1  0
 16 17  1  0
 17 18  2  0
 17 19  1  0
 19 20  1  0
 20 21  1  0
 21 22  2  0
 22 23  1  0
 23 24  2  0
 24 25  1  0
 25 26  2  0
 19 27  1  0
 27 28  1  0
 28 29  2  0
 28 30  1  0
 30 31  1  0
 31 32  1  0
 32 33  2  0
 33 34  1  0
 34 35  2  0
 35 36  1  0
 36 37  2  0
  8 38  1  0
 38 39  2  0
 38 40  1  0
 40 41  2  0
 41 42  1  0
 42 43  2  0
 43 44  1  0
 44 45  2  0
 45 46  1  0
 46 47  2  0
 47 48  1  0
 16 12  1  0
 26 21  1  0
 37 32  1  0
 48 40  1  0
 47 42  1  0
  1 49  1  0
  1 50  1  0
  3 51  1  0
  4 52  1  0
  5 53  1  0
  5 54  1  0
  6 55  1  0
  6 56  1  0
  7 57  1  0
  7 58  1  0
  8 59  1  6
  9 60  1  0
 12 61  1  6
 13 62  1  0
 13 63  1  0
 14 64  1  0
 14 65  1  0
 15 66  1  0
 15 67  1  0
 19 68  1  6
 20 69  1  0
 20 70  1  0
 22 71  1  0
 23 72  1  0
 24 73  1  0
 25 74  1  0
 26 75  1  0
 27 76  1  0
 31 77  1  0
 31 78  1  0
 33 79  1  0
 34 80  1  0
 35 81  1  0
 36 82  1  0
 37 83  1  0
 43 84  1  0
 44 85  1  0
 45 86  1  0
 46 87  1  0
 48 88  1  0
M  END
$$$$
[H]c1nc(N2C([H])([H])C([H])([H])N(c3nc([H])c(C(F)(F)F)c([H])c3[H])C([H])([H])[C@@]2([H])C([H])([H])[H])c([H])c(C(F)(F)F)c1[H]
     RDKit          3D

 43 45  0  0  0  0  0  0  0  0999 V2000
    1.0836   -0.8404   -1.5273 C   0  0  0  0  0  0  0  0  0  0  0  0
    0.8616   -0.6717   -0.0049 C   0  0  2  0  0  0  0  0  0  0  0  0
   -0.5373   -0.9520    0.4029 C   0  0  0  0  0  0  0  0  0  0  0  0
   -1.3880    0.2030    0.4003 N   0  0  0  0  0  0  0  0  0  0  0  0
   -0.9253    1.5108    0.6728 C   0  0  0  0  0  0  0  0  0  0  0  0
    0.5524    1.6642    0.9029 C   0  0  0  0  0  0  0  0  0  0  0  0
    1.3640    0.6336    0.3942 N   0  0  0  0  0  0  0  0  0  0  0  0
    2.7702    0.8235    0.1968 C   0  0  0  0  0  0  0  0  0  0  0  0
    3.6647   -0.2168    0.4591 C   0  0  0  0  0  0  0  0  0  0  0  0
    5.0136   -0.1234    0.2015 C   0  0  0  0  0  0  0  0  0  0  0  0
    5.4879    1.0433   -0.3305 C   0  0  0  0  0  0  0  0  0  0  0  0
    4.6207    2.0729   -0.5952 C   0  0  0  0  0  0  0  0  0  0  0  0
    3.2882    1.9357   -0.3216 N   0  0  0  0  0  0  0  0  0  0  0  0
    5.9075   -1.2652    0.4803 C   0  0  0  0  0  0  0  0  0  0  0  0
    5.6311   -1.7310    1.7841 F   0  0  0  0  0  0  0  0  0  0  0  0
    5.5454   -2.3102   -0.3665 F   0  0  0  0  0  0  0  0  0  0  0  0
    7.2306   -0.9806    0.3369 F   0  0  0  0  0  0  0  0  0  0  0  0
   -2.7702   -0.0557    0.0837 C   0  0  0  0  0  0  0  0  0  0  0  0
   -3.7959    0.7798    0.4237 C   0  0  0  0  0  0  0  0  0  0  0  0
   -5.1145    0.5095    0.0869 C   0  0  0  0  0  0  0  0  0  0  0  0
   -5.4447   -0.6151   -0.6019 C   0  0  0  0  0  0  0  0  0  0  0  0
   -4.3856   -1.4489   -0.9323 C   0  0  0  0  0  0  0  0  0  0  0  0
   -3.1223   -1.1681   -0.5993 N   0  0  0  0  0  0  0  0  0  0  0  0
   -6.8309   -0.9458   -0.9998 C   0  0  0  0  0  0  0  0  0  0  0  0
   -7.6029   -1.4302    0.0387 F   0  0  0  0  0  0  0  0  0  0  0  0
   -6.8685   -1.8234   -2.0733 F   0  0  0  0  0  0  0  0  0  0  0  0
   -7.4766    0.2203   -1.4773 F   0  0  0  0  0  0  0  0  0  0  0  0
    0.3000   -0.2951   -2.0768 H   0  0  0  0  0  0  0  0  0  0  0  0
    2.0645   -0.3208   -1.7495 H   0  0  0  0  0  0  0  0  0  0  0  0
    1.1492   -1.8786   -1.7744 H   0  0  0  0  0  0  0  0  0  0  0  0
    1.4925   -1.4363    0.4561 H   0  0  0  0  0  0  0  0  0  0  0  0
   -0.9264   -1.7483   -0.3002 H   0  0  0  0  0  0  0  0  0  0  0  0
   -0.6020   -1.3887    1.4035 H   0  0  0  0  0  0  0  0  0  0  0  0
   -1.2200    2.2587   -0.1323 H   0  0  0  0  0  0  0  0  0  0  0  0
   -1.4291    1.9621    1.5859 H   0  0  0  0  0  0  0  0  0  0  0  0
    0.7777    1.7966    2.0025 H   0  0  0  0  0  0  0  0  0  0  0  0
    0.9055    2.6422    0.4347 H   0  0  0  0  0  0  0  0  0  0  0  0
    3.2680   -1.1194    0.8813 H   0  0  0  0  0  0  0  0  0  0  0  0
    6.5560    1.2017   -0.5762 H   0  0  0  0  0  0  0  0  0  0  0  0
    4.9879    2.9890   -1.0248 H   0  0  0  0  0  0  0  0  0  0  0  0
   -3.5555    1.6951    0.9666 H   0  0  0  0  0  0  0  0  0  0  0  0
   -5.8805    1.1854    0.3889 H   0  0  0  0  0  0  0  0  0  0  0  0
   -4.6464   -2.3617   -1.4927 H   0  0  0  0  0  0  0  0  0  0  0  0
  1  2  1  0
  2  3  1  0
  3  4  1  0
  4  5  1  0
  5  6  1  0
  6  7  1  0
  7  8  1  0
  8  9  2  0
  9 10  1  0
 10 11  2  0
 11 12  1  0
 12 13  2  0
 10 14  1  0
 14 15  1  0
 14 16  1  0
 14 17  1  0
  4 18  1  0
 18 19  2  0
 19 20  1  0
 20 21  2  0
 21 22  1  0
 22 23  2  0
 21 24  1  0
 24 25  1  0
 24 26  1  0
 24 27  1  0
  7  2  1  0
 13  8  1  0
 23 18  1  0
  1 28  1  0
  1 29  1  0
  1 30  1  0
  2 31  1  1
  3 32  1  0
  3 33  1  0
  5 34  1  0
  5 35  1  0
  6 36  1  0
  6 37  1  0
  9 38  1  0
 11 39  1  0
 12 40  1  0
 19 41  1  0
 20 42  1  0
 22 43  1  0
M  END
$$$$
[H]c1nc(C([H])(F)F)c([H])c(N([H])C(=O)c2c(C([H])([H])[H])c(C(=O)C(=O)N([H])C3(c4nnn([H])c4[H])C([H])([H])C(F)(F)C3([H])[H])c3n2C([H])([H])C([H])([H])C3([H])[H])c1[H]
     RDKit          3D

 58 62  0  0  0  0  0  0  0  0999 V2000
    0.7257    0.2671    1.8189 C   0  0  0  0  0  0  0  0  0  0  0  0
    0.7469   -0.2738    0.4382 C   0  0  0  0  0  0  0  0  0  0  0  0
   -0.3333   -0.5429   -0.4150 C   0  0  0  0  0  0  0  0  0  0  0  0
   -1.6920   -0.2067   -0.1247 C   0  0  0  0  0  0  0  0  0  0  0  0
   -1.9067    0.2757    1.0617 O   0  0  0  0  0  0  0  0  0  0  0  0
   -2.9139   -0.2846   -0.9120 C   0  0  0  0  0  0  0  0  0  0  0  0
   -2.7371   -0.6109   -2.1531 O   0  0  0  0  0  0  0  0  0  0  0  0
   -4.1321   -0.0112   -0.3373 N   0  0  0  0  0  0  0  0  0  0  0  0
   -5.3727    0.2629    0.2266 C   0  0  0  0  0  0  0  0  0  0  0  0
   -5.3815    0.2235    1.7647 C   0  0  0  0  0  0  0  0  0  0  0  0
   -5.9915   -1.1764    1.6118 C   0  0  0  0  0  0  0  0  0  0  0  0
   -7.0229   -1.4289    2.4992 F   0  0  0  0  0  0  0  0  0  0  0  0
   -4.9826   -2.1563    1.6078 F   0  0  0  0  0  0  0  0  0  0  0  0
   -6.4285   -0.7668    0.2286 C   0  0  0  0  0  0  0  0  0  0  0  0
   -5.9621    1.6160   -0.2109 C   0  0  0  0  0  0  0  0  0  0  0  0
   -7.0312    2.2006    0.4431 C   0  0  0  0  0  0  0  0  0  0  0  0
   -7.2705    3.3802   -0.1854 N   0  0  0  0  0  0  0  0  0  0  0  0
   -6.3865    3.4947   -1.1616 N   0  0  0  0  0  0  0  0  0  0  0  0
   -5.5817    2.4185   -1.1845 N   0  0  0  0  0  0  0  0  0  0  0  0
    0.2830   -1.1027   -1.5546 C   0  0  0  0  0  0  0  0  0  0  0  0
   -0.0763   -1.6831   -2.8976 C   0  0  0  0  0  0  0  0  0  0  0  0
    1.1562   -2.4772   -3.2317 C   0  0  0  0  0  0  0  0  0  0  0  0
    2.2604   -1.6899   -2.5782 C   0  0  0  0  0  0  0  0  0  0  0  0
    1.6040   -1.1475   -1.3879 N   0  0  0  0  0  0  0  0  0  0  0  0
    1.9185   -0.6437   -0.1811 C   0  0  0  0  0  0  0  0  0  0  0  0
    3.2549   -0.3209    0.2832 C   0  0  0  0  0  0  0  0  0  0  0  0
    3.3600    0.6581    1.1093 O   0  0  0  0  0  0  0  0  0  0  0  0
    4.4337   -0.9469   -0.0825 N   0  0  0  0  0  0  0  0  0  0  0  0
    5.7015   -0.4387    0.3789 C   0  0  0  0  0  0  0  0  0  0  0  0
    6.6727   -1.2663    0.8332 C   0  0  0  0  0  0  0  0  0  0  0  0
    7.9324   -0.6885    1.1486 C   0  0  0  0  0  0  0  0  0  0  0  0
    8.1312    0.6196    0.9984 N   0  0  0  0  0  0  0  0  0  0  0  0
    7.1798    1.4511    0.5486 C   0  0  0  0  0  0  0  0  0  0  0  0
    5.9557    0.9110    0.2385 C   0  0  0  0  0  0  0  0  0  0  0  0
    7.4881    2.9046    0.3664 C   0  0  0  0  0  0  0  0  0  0  0  0
    7.5486    3.5111    1.5886 F   0  0  0  0  0  0  0  0  0  0  0  0
    8.6571    3.0042   -0.3543 F   0  0  0  0  0  0  0  0  0  0  0  0
   -0.1895    0.0590    2.3611 H   0  0  0  0  0  0  0  0  0  0  0  0
    1.0259    1.3346    1.9100 H   0  0  0  0  0  0  0  0  0  0  0  0
    1.5131   -0.2819    2.4375 H   0  0  0  0  0  0  0  0  0  0  0  0
   -4.7416   -0.1936   -1.5204 H   0  0  0  0  0  0  0  0  0  0  0  0
   -4.4285    0.1374    2.2738 H   0  0  0  0  0  0  0  0  0  0  0  0
   -6.0224    1.0081    2.1735 H   0  0  0  0  0  0  0  0  0  0  0  0
   -7.4764   -0.3941    0.2839 H   0  0  0  0  0  0  0  0  0  0  0  0
   -6.3046   -1.6357   -0.4452 H   0  0  0  0  0  0  0  0  0  0  0  0
   -7.5930    1.8208    1.2893 H   0  0  0  0  0  0  0  0  0  0  0  0
   -8.0319    4.0149    0.1167 H   0  0  0  0  0  0  0  0  0  0  0  0
   -0.2792   -0.9711   -3.6676 H   0  0  0  0  0  0  0  0  0  0  0  0
   -0.8790   -2.4537   -2.8253 H   0  0  0  0  0  0  0  0  0  0  0  0
    1.1531   -3.5060   -2.8144 H   0  0  0  0  0  0  0  0  0  0  0  0
    1.3114   -2.5279   -4.3190 H   0  0  0  0  0  0  0  0  0  0  0  0
    3.0574   -2.3964   -2.3761 H   0  0  0  0  0  0  0  0  0  0  0  0
    2.5630   -0.8265   -3.2397 H   0  0  0  0  0  0  0  0  0  0  0  0
    4.4289   -1.8118   -0.6828 H   0  0  0  0  0  0  0  0  0  0  0  0
    6.5805   -2.3189    0.9862 H   0  0  0  0  0  0  0  0  0  0  0  0
    8.7106   -1.3227    1.5120 H   0  0  0  0  0  0  0  0  0  0  0  0
    5.1552    1.5569   -0.1342 H   0  0  0  0  0  0  0  0  0  0  0  0
    6.6397    3.3736   -0.2027 H   0  0  0  0  0  0  0  0  0  0  0  0
  1  2  1  0
  2  3  1  0
  3  4  1  0
  4  5  2  0
  4  6  1  0
  6  7  2  0
  6  8  1  0
  8  9  1  0
  9 10  1  0
 10 11  1  0
 11 12  1  0
 11 13  1  0
 11 14  1  0
  9 15  1  0
 15 16  2  0
 16 17  1  0
 17 18  1  0
 18 19  2  0
  3 20  2  0
 20 21  1  0
 21 22  1  0
 22 23  1  0
 23 24  1  0
 24 25  1  0
 25 26  1  0
 26 27  2  0
 26 28  1  0
 28 29  1  0
 29 30  2  0
 30 31  1  0
 31 32  2  0
 32 33  1  0
 33 34  2  0
 33 35  1  0
 35 36  1  0
 35 37  1  0
 25  2  2  0
 34 29  1  0
 14  9  1  0
 19 15  1  0
 24 20  1  0
  1 38  1  0
  1 39  1  0
  1 40  1  0
  8 41  1  0
 10 42  1  0
 10 43  1  0
 14 44  1  0
 14 45  1  0
 16 46  1  0
 17 47  1  0
 21 48  1  0
 21 49  1  0
 22 50  1  0
 22 51  1  0
 23 52  1  0
 23 53  1  0
 28 54  1  0
 30 55  1  0
 31 56  1  0
 34 57  1  0
 35 58  1  0
M  END
$$$$
[H]OC(=O)c1[se]c(-c2c([H])c([H])c(OC([H])([H])c3c([H])c([H])c([H])c([H])c3[H])c(C#N)c2[H])nc1C([H])([H])[H]
     RDKit          3D

 39 41  0  0  0  0  0  0  0  0999 V2000
    4.8403    2.7278    0.2045 C   0  0  0  0  0  0  0  0  0  0  0  0
    4.3267    1.2857    0.0122 C   0  0  0  0  0  0  0  0  0  0  0  0
    3.1359    0.9759    0.2078 N   0  0  0  0  0  0  0  0  0  0  0  0
    2.4643   -0.0881    0.1299 C   0  0  0  0  0  0  0  0  0  0  0  0
    4.1217   -1.2932   -0.4884 Se  0  0  0  0  0  2  0  0  0  0  0  0
    5.3106    0.4418   -0.3820 C   0  0  0  0  0  0  0  0  0  0  0  0
    6.7020    0.4654   -0.6821 C   0  0  0  0  0  0  0  0  0  0  0  0
    7.5290    1.5447   -0.6352 O   0  0  0  0  0  0  0  0  0  0  0  0
    7.2454   -0.6389   -1.0349 O   0  0  0  0  0  0  0  0  0  0  0  0
    1.1573   -0.6645    0.2945 C   0  0  0  0  0  0  0  0  0  0  0  0
    0.1508    0.1672    0.6910 C   0  0  0  0  0  0  0  0  0  0  0  0
   -1.1139   -0.3393    0.8611 C   0  0  0  0  0  0  0  0  0  0  0  0
   -1.4184   -1.6683    0.6463 C   0  0  0  0  0  0  0  0  0  0  0  0
   -2.6797   -2.2146    0.8085 O   0  0  0  0  0  0  0  0  0  0  0  0
   -3.8420   -1.5373    1.1935 C   0  0  0  0  0  0  0  0  0  0  0  0
   -4.2361   -0.4822    0.2273 C   0  0  0  0  0  0  0  0  0  0  0  0
   -3.8350   -0.5071   -1.1114 C   0  0  0  0  0  0  0  0  0  0  0  0
   -4.2185    0.4915   -1.9898 C   0  0  0  0  0  0  0  0  0  0  0  0
   -5.0044    1.5383   -1.5759 C   0  0  0  0  0  0  0  0  0  0  0  0
   -5.4035    1.5690   -0.2568 C   0  0  0  0  0  0  0  0  0  0  0  0
   -5.0209    0.5717    0.6217 C   0  0  0  0  0  0  0  0  0  0  0  0
   -0.3698   -2.4976    0.2415 C   0  0  0  0  0  0  0  0  0  0  0  0
    0.8693   -1.9815    0.0792 C   0  0  0  0  0  0  0  0  0  0  0  0
   -0.6673   -3.8774    0.0150 C   0  0  0  0  0  0  0  0  0  0  0  0
   -0.8911   -4.9993   -0.1588 N   0  0  0  0  0  0  0  0  0  0  0  0
    5.0992    3.0573   -0.8300 H   0  0  0  0  0  0  0  0  0  0  0  0
    4.0759    3.3982    0.5713 H   0  0  0  0  0  0  0  0  0  0  0  0
    5.6830    2.7417    0.9004 H   0  0  0  0  0  0  0  0  0  0  0  0
    8.0238    1.7874    0.2130 H   0  0  0  0  0  0  0  0  0  0  0  0
    0.3411    1.2074    0.8692 H   0  0  0  0  0  0  0  0  0  0  0  0
   -1.9191    0.3268    1.1902 H   0  0  0  0  0  0  0  0  0  0  0  0
   -4.6858   -2.2551    1.3333 H   0  0  0  0  0  0  0  0  0  0  0  0
   -3.6479   -1.0786    2.1859 H   0  0  0  0  0  0  0  0  0  0  0  0
   -3.2189   -1.3259   -1.4401 H   0  0  0  0  0  0  0  0  0  0  0  0
   -3.9186    0.4926   -3.0343 H   0  0  0  0  0  0  0  0  0  0  0  0
   -5.3049    2.3253   -2.2738 H   0  0  0  0  0  0  0  0  0  0  0  0
   -6.0209    2.3831    0.0868 H   0  0  0  0  0  0  0  0  0  0  0  0
   -5.3409    0.6023    1.6661 H   0  0  0  0  0  0  0  0  0  0  0  0
    1.6813   -2.6523   -0.2403 H   0  0  0  0  0  0  0  0  0  0  0  0
  1  2  1  0
  2  3  1  0
  3  4  2  0
  4  5  1  0
  5  6  1  0
  6  7  1  0
  7  8  1  0
  7  9  2  0
  4 10  1  0
 10 11  2  0
 11 12  1  0
 12 13  2  0
 13 14  1  0
 14 15  1  0
 15 16  1  0
 16 17  2  0
 17 18  1  0
 18 19  2  0
 19 20  1  0
 20 21  2  0
 13 22  1  0
 22 23  2  0
 22 24  1  0
 24 25  3  0
  6  2  2  0
 23 10  1  0
 21 16  1  0
  1 26  1  0
  1 27  1  0
  1 28  1  0
  8 29  1  0
 11 30  1  0
 12 31  1  0
 15 32  1  0
 15 33  1  0
 17 34  1  0
 18 35  1  0
 19 36  1  0
 20 37  1  0
 21 38  1  0
 23 39  1  0
M  END
$$$$
[H]OC(=O)c1nc(C(=O)c2c([H])c([H])c(O[H])c(O[H])c2[H])c2c([H])c(O[H])c(O[H])c([H])c2c1[H]
     RDKit          3D

 36 38  0  0  0  0  0  0  0  0999 V2000
   -3.6175   -0.8541    4.0404 O   0  0  0  0  0  0  0  0  0  0  0  0
   -2.3728   -1.1062    3.5337 C   0  0  0  0  0  0  0  0  0  0  0  0
   -1.4406   -1.5815    4.2595 O   0  0  0  0  0  0  0  0  0  0  0  0
   -2.0652   -0.8398    2.1358 C   0  0  0  0  0  0  0  0  0  0  0  0
   -3.0048   -0.3341    1.2697 C   0  0  0  0  0  0  0  0  0  0  0  0
   -2.6685   -0.1026   -0.0408 C   0  0  0  0  0  0  0  0  0  0  0  0
   -3.6176    0.4163   -0.9069 C   0  0  0  0  0  0  0  0  0  0  0  0
   -3.2274    0.6478   -2.2344 C   0  0  0  0  0  0  0  0  0  0  0  0
   -4.1579    1.1637   -3.1015 O   0  0  0  0  0  0  0  0  0  0  0  0
   -1.9568    0.3707   -2.6560 C   0  0  0  0  0  0  0  0  0  0  0  0
   -1.5175    0.5776   -3.9456 O   0  0  0  0  0  0  0  0  0  0  0  0
   -1.0123   -0.1538   -1.7680 C   0  0  0  0  0  0  0  0  0  0  0  0
   -1.3830   -0.3839   -0.4701 C   0  0  0  0  0  0  0  0  0  0  0  0
   -0.4301   -0.8955    0.4005 C   0  0  0  0  0  0  0  0  0  0  0  0
   -0.8217   -1.0961    1.6609 N   0  0  0  0  0  0  0  0  0  0  0  0
    0.8926   -1.2010   -0.1127 C   0  0  0  0  0  0  0  0  0  0  0  0
    0.9262   -2.1963   -0.9276 O   0  0  0  0  0  0  0  0  0  0  0  0
    2.1046   -0.4844    0.2191 C   0  0  0  0  0  0  0  0  0  0  0  0
    2.2568    0.2907    1.3381 C   0  0  0  0  0  0  0  0  0  0  0  0
    3.4397    0.9783    1.5975 C   0  0  0  0  0  0  0  0  0  0  0  0
    4.4997    0.8815    0.7035 C   0  0  0  0  0  0  0  0  0  0  0  0
    5.6983    1.5592    0.9339 O   0  0  0  0  0  0  0  0  0  0  0  0
    4.3622    0.1133   -0.4136 C   0  0  0  0  0  0  0  0  0  0  0  0
    5.4472    0.0292   -1.3054 O   0  0  0  0  0  0  0  0  0  0  0  0
    3.1774   -0.5585   -0.6472 C   0  0  0  0  0  0  0  0  0  0  0  0
   -4.2208   -0.1474    3.6345 H   0  0  0  0  0  0  0  0  0  0  0  0
   -3.9935   -0.1202    1.6110 H   0  0  0  0  0  0  0  0  0  0  0  0
   -4.6178    0.6314   -0.5582 H   0  0  0  0  0  0  0  0  0  0  0  0
   -3.9666    1.3535   -4.0610 H   0  0  0  0  0  0  0  0  0  0  0  0
   -2.1322    0.9525   -4.6339 H   0  0  0  0  0  0  0  0  0  0  0  0
   -0.0079   -0.3577   -2.1141 H   0  0  0  0  0  0  0  0  0  0  0  0
    1.4684    0.4012    2.0642 H   0  0  0  0  0  0  0  0  0  0  0  0
    3.5901    1.5958    2.4698 H   0  0  0  0  0  0  0  0  0  0  0  0
    5.8903    2.1430    1.7209 H   0  0  0  0  0  0  0  0  0  0  0  0
    5.3935   -0.5247   -2.1532 H   0  0  0  0  0  0  0  0  0  0  0  0
    3.0858   -1.1680   -1.5427 H   0  0  0  0  0  0  0  0  0  0  0  0
  1  2  1  0
  2  3  2  0
  2  4  1  0
  4  5  2  0
  5  6  1  0
  6  7  2  0
  7  8  1  0
  8  9  1  0
  8 10  2  0
 10 11  1  0
 10 12  1  0
 12 13  2  0
 13 14  1  0
 14 15  2  0
 14 16  1  0
 16 17  2  0
 16 18  1  0
 18 19  2  0
 19 20  1  0
 20 21  2  0
 21 22  1  0
 21 23  1  0
 23 24  1  0
 23 25  2  0
 15  4  1  0
 25 18  1  0
 13  6  1  0
  1 26  1  0
  5 27  1  0
  7 28  1  0
  9 29  1  0
 11 30  1  0
 12 31  1  0
 19 32  1  0
 20 33  1  0
 22 34  1  0
 24 35  1  0
 25 36  1  0
M  END
$$$$
[H]c1c([H])c(Cl)c(-c2c([H])c3c([H])nc(N([H])c4c([H])c([H])c(N5C([H])([H])C([H])([H])N(C([H])([H])[H])C([H])([H])C5([H])[H])c(C([H])([H])[H])c4[H])nc3n(C([H])([H])[H])c2=O)c(Cl)c1[H]
     RDKit          3D

 61 65  0  0  0  0  0  0  0  0999 V2000
   -8.0296    1.9170    1.0234 C   0  0  0  0  0  0  0  0  0  0  0  0
   -7.4907    0.6261    0.6568 N   0  0  0  0  0  0  0  0  0  0  0  0
   -7.0303    0.5799   -0.7055 C   0  0  0  0  0  0  0  0  0  0  0  0
   -5.5212    0.6443   -0.8074 C   0  0  0  0  0  0  0  0  0  0  0  0
   -4.9023   -0.4315   -0.0642 N   0  0  0  0  0  0  0  0  0  0  0  0
   -5.6468   -0.9388    1.0846 C   0  0  0  0  0  0  0  0  0  0  0  0
   -6.5232    0.1407    1.6046 C   0  0  0  0  0  0  0  0  0  0  0  0
   -3.6353   -0.9780   -0.4241 C   0  0  0  0  0  0  0  0  0  0  0  0
   -3.4949   -2.2812   -0.8397 C   0  0  0  0  0  0  0  0  0  0  0  0
   -2.2590   -2.7709   -1.1840 C   0  0  0  0  0  0  0  0  0  0  0  0
   -1.0907   -2.0022   -1.1377 C   0  0  0  0  0  0  0  0  0  0  0  0
    0.1160   -2.5983   -1.5274 N   0  0  0  0  0  0  0  0  0  0  0  0
    1.4321   -2.1776   -1.3058 C   0  0  0  0  0  0  0  0  0  0  0  0
    2.4777   -2.8971   -1.7776 N   0  0  0  0  0  0  0  0  0  0  0  0
    3.7521   -2.5229   -1.5661 C   0  0  0  0  0  0  0  0  0  0  0  0
    4.0455   -1.3813   -0.8540 C   0  0  0  0  0  0  0  0  0  0  0  0
    5.3086   -0.9321   -0.5943 C   0  0  0  0  0  0  0  0  0  0  0  0
    5.5663    0.2231    0.1280 C   0  0  0  0  0  0  0  0  0  0  0  0
    6.9391    0.6509    0.3740 C   0  0  0  0  0  0  0  0  0  0  0  0
    7.6707    0.2613    1.4726 C   0  0  0  0  0  0  0  0  0  0  0  0
    6.8950   -0.8035    2.6226 Cl  0  0  0  0  0  0  0  0  0  0  0  0
    8.9708    0.6780    1.6866 C   0  0  0  0  0  0  0  0  0  0  0  0
    9.5710    1.5168    0.7723 C   0  0  0  0  0  0  0  0  0  0  0  0
    8.8543    1.9282   -0.3504 C   0  0  0  0  0  0  0  0  0  0  0  0
    7.5600    1.4902   -0.5273 C   0  0  0  0  0  0  0  0  0  0  0  0
    6.6409    2.0022   -1.9434 Cl  0  0  0  0  0  0  0  0  0  0  0  0
    4.4644    0.9279    0.5915 C   0  0  0  0  0  0  0  0  0  0  0  0
    4.6487    1.9858    1.2536 O   0  0  0  0  0  0  0  0  0  0  0  0
    3.2110    0.4940    0.3413 N   0  0  0  0  0  0  0  0  0  0  0  0
    2.0583    1.2276    0.8233 C   0  0  0  0  0  0  0  0  0  0  0  0
    2.9785   -0.6365   -0.3659 C   0  0  0  0  0  0  0  0  0  0  0  0
    1.7456   -1.0857   -0.6253 N   0  0  0  0  0  0  0  0  0  0  0  0
   -1.2468   -0.7127   -0.7242 C   0  0  0  0  0  0  0  0  0  0  0  0
   -2.5065   -0.2053   -0.3704 C   0  0  0  0  0  0  0  0  0  0  0  0
   -2.5557    1.2098    0.0740 C   0  0  0  0  0  0  0  0  0  0  0  0
   -7.9301    2.0247    2.1137 H   0  0  0  0  0  0  0  0  0  0  0  0
   -7.4708    2.7212    0.5186 H   0  0  0  0  0  0  0  0  0  0  0  0
   -9.1001    2.0221    0.7022 H   0  0  0  0  0  0  0  0  0  0  0  0
   -7.4482   -0.3090   -1.2021 H   0  0  0  0  0  0  0  0  0  0  0  0
   -7.4310    1.4721   -1.2268 H   0  0  0  0  0  0  0  0  0  0  0  0
   -5.2887    0.4281   -1.8923 H   0  0  0  0  0  0  0  0  0  0  0  0
   -5.1260    1.6369   -0.6096 H   0  0  0  0  0  0  0  0  0  0  0  0
   -4.9488   -1.2530    1.8833 H   0  0  0  0  0  0  0  0  0  0  0  0
   -6.2484   -1.8104    0.6958 H   0  0  0  0  0  0  0  0  0  0  0  0
   -7.0459   -0.1868    2.5258 H   0  0  0  0  0  0  0  0  0  0  0  0
   -5.8486    1.0114    1.8571 H   0  0  0  0  0  0  0  0  0  0  0  0
   -4.3863   -2.8903   -0.8817 H   0  0  0  0  0  0  0  0  0  0  0  0
   -2.1647   -3.8043   -1.5093 H   0  0  0  0  0  0  0  0  0  0  0  0
    0.0422   -3.5251   -2.0935 H   0  0  0  0  0  0  0  0  0  0  0  0
    4.5838   -3.0946   -1.9406 H   0  0  0  0  0  0  0  0  0  0  0  0
    6.1534   -1.4923   -0.9621 H   0  0  0  0  0  0  0  0  0  0  0  0
    9.5555    0.3790    2.5456 H   0  0  0  0  0  0  0  0  0  0  0  0
   10.5847    1.8790    0.8808 H   0  0  0  0  0  0  0  0  0  0  0  0
    9.3461    2.5830   -1.0487 H   0  0  0  0  0  0  0  0  0  0  0  0
    1.4360    0.6091    1.5266 H   0  0  0  0  0  0  0  0  0  0  0  0
    1.4285    1.5913   -0.0186 H   0  0  0  0  0  0  0  0  0  0  0  0
    2.3494    2.1276    1.4012 H   0  0  0  0  0  0  0  0  0  0  0  0
   -0.4202   -0.0313   -0.6622 H   0  0  0  0  0  0  0  0  0  0  0  0
   -2.7617    1.8543   -0.8021 H   0  0  0  0  0  0  0  0  0  0  0  0
   -1.5560    1.5044    0.5166 H   0  0  0  0  0  0  0  0  0  0  0  0
   -3.2773    1.4047    0.8681 H   0  0  0  0  0  0  0  0  0  0  0  0
  1  2  1  0
  2  3  1  0
  3  4  1  0
  4  5  1  0
  5  6  1  0
  6  7  1  0
  5  8  1  0
  8  9  2  0
  9 10  1  0
 10 11  2  0
 11 12  1  0
 12 13  1  0
 13 14  2  0
 14 15  1  0
 15 16  2  0
 16 17  1  0
 17 18  2  0
 18 19  1  0
 19 20  2  0
 20 21  1  0
 20 22  1  0
 22 23  2  0
 23 24  1  0
 24 25  2  0
 25 26  1  0
 18 27  1  0
 27 28  2  0
 27 29  1  0
 29 30  1  0
 29 31  1  0
 31 32  2  0
 11 33  1  0
 33 34  2  0
 34 35  1  0
  7  2  1  0
 34  8  1  0
 32 13  1  0
 31 16  1  0
 25 19  1  0
  1 36  1  0
  1 37  1  0
  1 38  1  0
  3 39  1  0
  3 40  1  0
  4 41  1  0
  4 42  1  0
  6 43  1  0
  6 44  1  0
  7 45  1  0
  7 46  1  0
  9 47  1  0
 10 48  1  0
 12 49  1  0
 15 50  1  0
 17 51  1  0
 22 52  1  0
 23 53  1  0
 24 54  1  0
 30 55  1  0
 30 56  1  0
 30 57  1  0
 33 58  1  0
 35 59  1  0
 35 60  1  0
 35 61  1  0
M  END
$$$$
[H]ON([H])C(=O)C([H])([H])N(C([H])([H])c1c([H])c([H])c([N+](=O)[O-])c([H])c1[H])S(=O)(=O)c1c([H])c([H])c([N+](=O)[O-])c([H])c1[H]
     RDKit          3D

 42 43  0  0  0  0  0  0  0  0999 V2000
    0.5641   -4.7509    2.2937 O   0  0  0  0  0  0  0  0  0  0  0  0
    0.1120   -3.4920    2.3545 N   0  0  0  0  0  0  0  0  0  0  0  0
    0.3864   -2.5986    1.3075 C   0  0  0  0  0  0  0  0  0  0  0  0
    1.0567   -3.0087    0.3299 O   0  0  0  0  0  0  0  0  0  0  0  0
   -0.0961   -1.2252    1.3541 C   0  0  0  0  0  0  0  0  0  0  0  0
    0.2349   -0.4056    0.2480 N   0  0  0  0  0  0  0  0  0  0  0  0
    0.9662    0.7629    0.5845 C   0  0  0  0  0  0  0  0  0  0  0  0
    2.3006    0.8257   -0.1018 C   0  0  0  0  0  0  0  0  0  0  0  0
    3.3205   -0.0445    0.2504 C   0  0  0  0  0  0  0  0  0  0  0  0
    4.5424    0.0235   -0.3787 C   0  0  0  0  0  0  0  0  0  0  0  0
    4.8268    0.9344   -1.3724 C   0  0  0  0  0  0  0  0  0  0  0  0
    3.8043    1.8075   -1.7261 C   0  0  0  0  0  0  0  0  0  0  0  0
    2.5812    1.7377   -1.0944 C   0  0  0  0  0  0  0  0  0  0  0  0
    6.0965    0.9822   -2.0046 N   0  0  0  0  0  0  0  0  0  0  0  0
    6.3918    1.8806   -2.9914 O   0  0  0  0  0  0  0  0  0  0  0  0
    6.9792    0.1839   -1.6569 O   0  0  0  0  0  0  0  0  0  0  0  0
   -0.8123   -0.3586   -1.0448 S   0  0  0  0  0  0  0  0  0  0  0  0
   -1.0979   -1.6776   -1.6955 O   0  0  0  0  0  0  0  0  0  0  0  0
   -0.3077    0.5838   -2.0980 O   0  0  0  0  0  0  0  0  0  0  0  0
   -2.3862    0.2691   -0.5247 C   0  0  0  0  0  0  0  0  0  0  0  0
   -2.6972    1.5917   -0.5499 C   0  0  0  0  0  0  0  0  0  0  0  0
   -3.9440    2.0414   -0.1327 C   0  0  0  0  0  0  0  0  0  0  0  0
   -4.9044    1.1674    0.3189 C   0  0  0  0  0  0  0  0  0  0  0  0
   -4.6022   -0.1696    0.3489 C   0  0  0  0  0  0  0  0  0  0  0  0
   -3.3509   -0.6172   -0.0702 C   0  0  0  0  0  0  0  0  0  0  0  0
   -6.1889    1.5787    0.7543 N   0  0  0  0  0  0  0  0  0  0  0  0
   -6.4855    2.9298    0.7204 O   0  0  0  0  0  0  0  0  0  0  0  0
   -7.0310    0.7548    1.1567 O   0  0  0  0  0  0  0  0  0  0  0  0
   -0.0968   -5.3437    1.8164 H   0  0  0  0  0  0  0  0  0  0  0  0
   -0.4371   -3.1927    3.1776 H   0  0  0  0  0  0  0  0  0  0  0  0
   -1.2186   -1.1741    1.4818 H   0  0  0  0  0  0  0  0  0  0  0  0
    0.2988   -0.7237    2.2869 H   0  0  0  0  0  0  0  0  0  0  0  0
    1.1275    0.7522    1.6968 H   0  0  0  0  0  0  0  0  0  0  0  0
    0.3733    1.6638    0.3808 H   0  0  0  0  0  0  0  0  0  0  0  0
    3.1000   -0.7593    1.0289 H   0  0  0  0  0  0  0  0  0  0  0  0
    5.3294   -0.6645   -0.0914 H   0  0  0  0  0  0  0  0  0  0  0  0
    4.0039    2.5331   -2.5051 H   0  0  0  0  0  0  0  0  0  0  0  0
    1.7764    2.4273   -1.3688 H   0  0  0  0  0  0  0  0  0  0  0  0
   -1.9395    2.2871   -0.9068 H   0  0  0  0  0  0  0  0  0  0  0  0
   -4.1936    3.0883   -0.1513 H   0  0  0  0  0  0  0  0  0  0  0  0
   -5.2974   -0.9332    0.6898 H   0  0  0  0  0  0  0  0  0  0  0  0
   -3.0855   -1.6673   -0.0572 H   0  0  0  0  0  0  0  0  0  0  0  0
  1  2  1  0
  2  3  1  0
  3  4  2  0
  3  5  1  0
  5  6  1  0
  6  7  1  0
  7  8  1  0
  8  9  2  0
  9 10  1  0
 10 11  2  0
 11 12  1  0
 12 13  2  0
 11 14  1  0
 14 15  1  0
 14 16  2  0
  6 17  1  0
 17 18  2  0
 17 19  2  0
 17 20  1  0
 20 21  2  0
 21 22  1  0
 22 23  2  0
 23 24  1  0
 24 25  2  0
 23 26  1  0
 26 27  1  0
 26 28  2  0
 13  8  1  0
 25 20  1  0
  1 29  1  0
  2 30  1  0
  5 31  1  0
  5 32  1  0
  7 33  1  0
  7 34  1  0
  9 35  1  0
 10 36  1  0
 12 37  1  0
 13 38  1  0
 21 39  1  0
 22 40  1  0
 24 41  1  0
 25 42  1  0
M  CHG  4  14   1  15  -1  26   1  27  -1
M  END
$$$$
[H]O[C@]1([H])[C@]([H])(C([H])([H])C([H])([H])C([H])([H])N=C(N([H])[H])N([H])[H])O[C@@]([H])(n2c([H])c([H])c(=O)n([H])c2=O)[C@]1([H])O[H]
     RDKit          3D

 41 42  0  0  0  0  0  0  0  0999 V2000
    3.6637    2.1641    0.1795 N   0  0  0  0  0  0  0  0  0  0  0  0
    4.4467    1.0088    0.4265 C   0  0  0  0  0  0  0  0  0  0  0  0
    5.7297    1.1632    0.9868 N   0  0  0  0  0  0  0  0  0  0  0  0
    4.0300   -0.1765    0.1583 N   0  0  0  0  0  0  0  0  0  0  0  0
    2.6966   -0.3046   -0.4215 C   0  0  0  0  0  0  0  0  0  0  0  0
    2.3426   -1.7511   -0.6561 C   0  0  0  0  0  0  0  0  0  0  0  0
    1.0178   -1.9097   -1.2625 C   0  0  0  0  0  0  0  0  0  0  0  0
   -0.1937   -1.4479   -0.6163 C   0  0  2  0  0  0  0  0  0  0  0  0
   -0.3018   -0.0932   -0.3425 O   0  0  0  0  0  0  0  0  0  0  0  0
   -1.4025    0.0896    0.4585 C   0  0  2  0  0  0  0  0  0  0  0  0
   -1.8125   -1.2717    0.9825 C   0  0  2  0  0  0  0  0  0  0  0  0
   -2.0555   -1.2352    2.3516 O   0  0  0  0  0  0  0  0  0  0  0  0
   -0.5296   -2.0450    0.7237 C   0  0  2  0  0  0  0  0  0  0  0  0
    0.3464   -1.6692    1.7387 O   0  0  0  0  0  0  0  0  0  0  0  0
   -2.4952    0.7539   -0.2200 N   0  0  0  0  0  0  0  0  0  0  0  0
   -2.5944    0.8597   -1.5561 C   0  0  0  0  0  0  0  0  0  0  0  0
   -3.6482    1.4993   -2.1805 C   0  0  0  0  0  0  0  0  0  0  0  0
   -4.6319    2.0475   -1.3944 C   0  0  0  0  0  0  0  0  0  0  0  0
   -5.6349    2.6528   -1.8920 O   0  0  0  0  0  0  0  0  0  0  0  0
   -4.5321    1.9414   -0.0586 N   0  0  0  0  0  0  0  0  0  0  0  0
   -3.4746    1.3013    0.5188 C   0  0  0  0  0  0  0  0  0  0  0  0
   -3.4409    1.2368    1.7721 O   0  0  0  0  0  0  0  0  0  0  0  0
    2.8454    2.1528   -0.4680 H   0  0  0  0  0  0  0  0  0  0  0  0
    3.8844    3.0696    0.6426 H   0  0  0  0  0  0  0  0  0  0  0  0
    5.8366    1.6134    1.9054 H   0  0  0  0  0  0  0  0  0  0  0  0
    6.5608    0.8252    0.4764 H   0  0  0  0  0  0  0  0  0  0  0  0
    2.6386    0.2151   -1.3978 H   0  0  0  0  0  0  0  0  0  0  0  0
    1.9659    0.2234    0.2576 H   0  0  0  0  0  0  0  0  0  0  0  0
    2.5163   -2.3509    0.2641 H   0  0  0  0  0  0  0  0  0  0  0  0
    3.1688   -2.1206   -1.3418 H   0  0  0  0  0  0  0  0  0  0  0  0
    1.0110   -1.4945   -2.3225 H   0  0  0  0  0  0  0  0  0  0  0  0
    0.8920   -3.0224   -1.4737 H   0  0  0  0  0  0  0  0  0  0  0  0
   -1.1091   -1.6709   -1.2498 H   0  0  0  0  0  0  0  0  0  0  0  0
   -1.0864    0.6844    1.3459 H   0  0  0  0  0  0  0  0  0  0  0  0
   -2.6624   -1.6899    0.4085 H   0  0  0  0  0  0  0  0  0  0  0  0
   -2.8018   -1.7992    2.6283 H   0  0  0  0  0  0  0  0  0  0  0  0
   -0.7043   -3.1342    0.6929 H   0  0  0  0  0  0  0  0  0  0  0  0
    0.3532   -0.6889    1.7808 H   0  0  0  0  0  0  0  0  0  0  0  0
   -1.8236    0.4300   -2.1705 H   0  0  0  0  0  0  0  0  0  0  0  0
   -3.7334    1.5874   -3.2523 H   0  0  0  0  0  0  0  0  0  0  0  0
   -5.2775    2.3560    0.5591 H   0  0  0  0  0  0  0  0  0  0  0  0
  1  2  1  0
  2  3  1  0
  2  4  2  3
  4  5  1  0
  5  6  1  0
  6  7  1  0
  7  8  1  0
  8  9  1  0
  9 10  1  0
 10 11  1  0
 11 12  1  0
 11 13  1  0
 13 14  1  0
 10 15  1  0
 15 16  1  0
 16 17  2  0
 17 18  1  0
 18 19  2  0
 18 20  1  0
 20 21  1  0
 21 22  2  0
 13  8  1  0
 21 15  1  0
  1 23  1  0
  1 24  1  0
  3 25  1  0
  3 26  1  0
  5 27  1  0
  5 28  1  0
  6 29  1  0
  6 30  1  0
  7 31  1  0
  7 32  1  0
  8 33  1  6
 10 34  1  1
 11 35  1  6
 12 36  1  0
 13 37  1  6
 14 38  1  0
 16 39  1  0
 17 40  1  0
 20 41  1  0
M  END
$$$$
[H]/C(=C(/[H])c1c([H])c([H])c(N2C([H])([H])C([H])([H])N(S(=O)(=O)C([H])([H])[H])C([H])([H])C2([H])[H])c([H])c1[H])c1c([H])c([H])c(N2C([H])([H])C([H])([H])N(C(=O)C([H])([H])[H])C([H])([H])C2([H])[H])c([H])c1[H]
     RDKit          3D

 65 68  0  0  0  0  0  0  0  0999 V2000
   10.8320    1.2194   -0.1925 C   0  0  0  0  0  0  0  0  0  0  0  0
   10.0430    0.0726   -0.7698 C   0  0  0  0  0  0  0  0  0  0  0  0
   10.5973   -0.8198   -1.4474 O   0  0  0  0  0  0  0  0  0  0  0  0
    8.6469   -0.0055   -0.5470 N   0  0  0  0  0  0  0  0  0  0  0  0
    7.9083   -1.1069   -1.1061 C   0  0  0  0  0  0  0  0  0  0  0  0
    6.9935   -1.6900   -0.0215 C   0  0  0  0  0  0  0  0  0  0  0  0
    6.2746   -0.5581    0.5385 N   0  0  0  0  0  0  0  0  0  0  0  0
    7.1074    0.3775    1.2881 C   0  0  0  0  0  0  0  0  0  0  0  0
    8.0048    1.0336    0.2416 C   0  0  0  0  0  0  0  0  0  0  0  0
    4.8751   -0.3540    0.4021 C   0  0  0  0  0  0  0  0  0  0  0  0
    4.2931    0.8925    0.5591 C   0  0  0  0  0  0  0  0  0  0  0  0
    2.9317    1.0934    0.4449 C   0  0  0  0  0  0  0  0  0  0  0  0
    2.0746    0.0494    0.1652 C   0  0  0  0  0  0  0  0  0  0  0  0
    0.6370    0.3164    0.0588 C   0  0  0  0  0  0  0  0  0  0  0  0
   -0.2751   -0.5955   -0.2054 C   0  0  0  0  0  0  0  0  0  0  0  0
   -1.6945   -0.3297   -0.3095 C   0  0  0  0  0  0  0  0  0  0  0  0
   -2.5383   -1.3932   -0.5992 C   0  0  0  0  0  0  0  0  0  0  0  0
   -3.9202   -1.2289   -0.7128 C   0  0  0  0  0  0  0  0  0  0  0  0
   -4.4919    0.0250   -0.5354 C   0  0  0  0  0  0  0  0  0  0  0  0
   -3.6365    1.0425   -0.2535 C   0  0  0  0  0  0  0  0  0  0  0  0
   -2.2642    0.9033   -0.1360 C   0  0  0  0  0  0  0  0  0  0  0  0
   -5.8870    0.2430   -0.6429 N   0  0  0  0  0  0  0  0  0  0  0  0
   -6.4213    1.5487   -0.3062 C   0  0  0  0  0  0  0  0  0  0  0  0
   -7.8672    1.3520    0.1132 C   0  0  0  0  0  0  0  0  0  0  0  0
   -8.0339    0.1057    0.8309 N   0  0  0  0  0  0  0  0  0  0  0  0
   -7.7616   -1.0625    0.0601 C   0  0  0  0  0  0  0  0  0  0  0  0
   -6.8434   -0.7495   -1.0737 C   0  0  0  0  0  0  0  0  0  0  0  0
   -9.5550   -0.0266    1.6010 S   0  0  0  0  0  0  0  0  0  0  0  0
  -10.8165    0.0294    0.3510 C   0  0  0  0  0  0  0  0  0  0  0  0
   -9.7581    1.0169    2.6550 O   0  0  0  0  0  0  0  0  0  0  0  0
   -9.6044   -1.4044    2.2428 O   0  0  0  0  0  0  0  0  0  0  0  0
    2.6407   -1.1888    0.0075 C   0  0  0  0  0  0  0  0  0  0  0  0
    4.0064   -1.3894    0.1225 C   0  0  0  0  0  0  0  0  0  0  0  0
   11.8461    1.1936   -0.6447 H   0  0  0  0  0  0  0  0  0  0  0  0
   10.3673    2.1898   -0.4348 H   0  0  0  0  0  0  0  0  0  0  0  0
   10.9050    1.0764    0.9065 H   0  0  0  0  0  0  0  0  0  0  0  0
    7.2750   -0.7470   -1.9463 H   0  0  0  0  0  0  0  0  0  0  0  0
    8.5977   -1.9071   -1.4258 H   0  0  0  0  0  0  0  0  0  0  0  0
    7.6531   -2.0811    0.7797 H   0  0  0  0  0  0  0  0  0  0  0  0
    6.3509   -2.4504   -0.4563 H   0  0  0  0  0  0  0  0  0  0  0  0
    7.7260   -0.1788    2.0358 H   0  0  0  0  0  0  0  0  0  0  0  0
    6.5256    1.1481    1.7945 H   0  0  0  0  0  0  0  0  0  0  0  0
    8.7882    1.6152    0.7633 H   0  0  0  0  0  0  0  0  0  0  0  0
    7.3618    1.6665   -0.3880 H   0  0  0  0  0  0  0  0  0  0  0  0
    4.9595    1.7428    0.7754 H   0  0  0  0  0  0  0  0  0  0  0  0
    2.5420    2.1114    0.5824 H   0  0  0  0  0  0  0  0  0  0  0  0
    0.2782    1.3393    0.2057 H   0  0  0  0  0  0  0  0  0  0  0  0
    0.0784   -1.6229   -0.3544 H   0  0  0  0  0  0  0  0  0  0  0  0
   -2.1184   -2.3760   -0.7413 H   0  0  0  0  0  0  0  0  0  0  0  0
   -4.5288   -2.0703   -0.9354 H   0  0  0  0  0  0  0  0  0  0  0  0
   -4.0076    2.0519   -0.1040 H   0  0  0  0  0  0  0  0  0  0  0  0
   -1.6414    1.7491    0.0890 H   0  0  0  0  0  0  0  0  0  0  0  0
   -6.3788    2.2375   -1.1464 H   0  0  0  0  0  0  0  0  0  0  0  0
   -5.8973    1.9396    0.5890 H   0  0  0  0  0  0  0  0  0  0  0  0
   -8.5657    1.4435   -0.7427 H   0  0  0  0  0  0  0  0  0  0  0  0
   -8.1185    2.1730    0.8149 H   0  0  0  0  0  0  0  0  0  0  0  0
   -7.2271   -1.8111    0.7137 H   0  0  0  0  0  0  0  0  0  0  0  0
   -8.6807   -1.6001   -0.2914 H   0  0  0  0  0  0  0  0  0  0  0  0
   -6.4077   -1.6294   -1.5607 H   0  0  0  0  0  0  0  0  0  0  0  0
   -7.4795   -0.2570   -1.8659 H   0  0  0  0  0  0  0  0  0  0  0  0
  -10.4280    0.6645   -0.4735 H   0  0  0  0  0  0  0  0  0  0  0  0
  -10.9336   -1.0045   -0.0554 H   0  0  0  0  0  0  0  0  0  0  0  0
  -11.7733    0.4240    0.7498 H   0  0  0  0  0  0  0  0  0  0  0  0
    2.0130   -2.0483   -0.2147 H   0  0  0  0  0  0  0  0  0  0  0  0
    4.4215   -2.4006   -0.0070 H   0  0  0  0  0  0  0  0  0  0  0  0
  1  2  1  0
  2  3  2  0
  2  4  1  0
  4  5  1  0
  5  6  1  0
  6  7  1  0
  7  8  1  0
  8  9  1  0
  7 10  1  0
 10 11  2  0
 11 12  1  0
 12 13  2  0
 13 14  1  0
 14 15  2  0
 15 16  1  0
 16 17  2  0
 17 18  1  0
 18 19  2  0
 19 20  1  0
 20 21  2  0
 19 22  1  0
 22 23  1  0
 23 24  1  0
 24 25  1  0
 25 26  1  0
 26 27  1  0
 25 28  1  0
 28 29  1  0
 28 30  2  0
 28 31  2  0
 13 32  1  0
 32 33  2  0
  9  4  1  0
 33 10  1  0
 21 16  1  0
 27 22  1  0
  1 34  1  0
  1 35  1  0
  1 36  1  0
  5 37  1  0
  5 38  1  0
  6 39  1  0
  6 40  1  0
  8 41  1  0
  8 42  1  0
  9 43  1  0
  9 44  1  0
 11 45  1  0
 12 46  1  0
 14 47  1  0
 15 48  1  0
 17 49  1  0
 18 50  1  0
 20 51  1  0
 21 52  1  0
 23 53  1  0
 23 54  1  0
 24 55  1  0
 24 56  1  0
 26 57  1  0
 26 58  1  0
 27 59  1  0
 27 60  1  0
 29 61  1  0
 29 62  1  0
 29 63  1  0
 32 64  1  0
 33 65  1  0
M  END
$$$$
[H]OC(=O)[C@]([H])(N([H])[H])C([H])([H])c1c(C([H])([H])[H])on([H])c1=O
     RDKit          3D

 23 23  0  0  0  0  0  0  0  0999 V2000
   -1.9301   -1.1067   -1.1719 C   0  0  0  0  0  0  0  0  0  0  0  0
   -1.7791    0.2103   -0.5451 C   0  0  0  0  0  0  0  0  0  0  0  0
   -2.8606    0.8881   -0.1420 O   0  0  0  0  0  0  0  0  0  0  0  0
   -2.5095    2.0093    0.3726 N   0  0  0  0  0  0  0  0  0  0  0  0
   -1.1698    2.1143    0.3282 C   0  0  0  0  0  0  0  0  0  0  0  0
   -0.5412    3.1092    0.7620 O   0  0  0  0  0  0  0  0  0  0  0  0
   -0.6613    0.9516   -0.2669 C   0  0  0  0  0  0  0  0  0  0  0  0
    0.7313    0.6407   -0.4929 C   0  0  0  0  0  0  0  0  0  0  0  0
    1.4183   -0.2359    0.5067 C   0  0  1  0  0  0  0  0  0  0  0  0
    0.8752   -1.5422    0.6773 N   0  0  0  0  0  0  0  0  0  0  0  0
    2.8758   -0.3984    0.1547 C   0  0  0  0  0  0  0  0  0  0  0  0
    3.3819   -1.6724    0.0676 O   0  0  0  0  0  0  0  0  0  0  0  0
    3.5646    0.6315   -0.0437 O   0  0  0  0  0  0  0  0  0  0  0  0
   -1.0601   -1.4101   -1.7812 H   0  0  0  0  0  0  0  0  0  0  0  0
   -2.8041   -1.1034   -1.8544 H   0  0  0  0  0  0  0  0  0  0  0  0
   -2.0577   -1.8737   -0.3774 H   0  0  0  0  0  0  0  0  0  0  0  0
   -3.1870    2.7164    0.7609 H   0  0  0  0  0  0  0  0  0  0  0  0
    1.3445    1.5955   -0.5204 H   0  0  0  0  0  0  0  0  0  0  0  0
    0.9302    0.2107   -1.5220 H   0  0  0  0  0  0  0  0  0  0  0  0
    1.3770    0.2549    1.5357 H   0  0  0  0  0  0  0  0  0  0  0  0
    0.8577   -2.0470   -0.2157 H   0  0  0  0  0  0  0  0  0  0  0  0
    0.0040   -1.6176    1.1829 H   0  0  0  0  0  0  0  0  0  0  0  0
    3.1999   -2.3251   -0.6841 H   0  0  0  0  0  0  0  0  0  0  0  0
  1  2  1  0
  2  3  1  0
  3  4  1  0
  4  5  1  0
  5  6  2  0
  5  7  1  0
  7  8  1  0
  8  9  1  0
  9 10  1  0
  9 11  1  0
 11 12  1  0
 11 13  2  0
  7  2  2  0
  1 14  1  0
  1 15  1  0
  1 16  1  0
  4 17  1  0
  8 18  1  0
  8 19  1  0
  9 20  1  1
 10 21  1  0
 10 22  1  0
 12 23  1  0
M  END
$$$$
[H]c1c([H])c(C2=C(C([H])([H])N3C([H])([H])C([H])([H])N(c4c([H])c([H])c(C(=O)N([H])S(=O)(=O)c5c([H])c([H])c(N([H])C6([H])C([H])([H])C([H])([H])N(C([H])([H])[H])C([H])([H])C6([H])[H])c([N+](=O)[O-])c5[H])c(Oc5c([H])c([H])c6c(c5[H])c([H])c([H])n6[H])c4[H])C([H])([H])C3([H])[H])C([H])([H])C([H])([H])C(C([H])([H])[H])(C([H])([H])[H])C2([H])[H])c([H])c([H])c1Cl
     RDKit          3D

113120  0  0  0  0  0  0  0  0999 V2000
   11.4877   -3.1718   -1.2186 C   0  0  0  0  0  0  0  0  0  0  0  0
   10.6662   -2.9047   -2.3650 N   0  0  0  0  0  0  0  0  0  0  0  0
   10.3648   -1.4978   -2.5604 C   0  0  0  0  0  0  0  0  0  0  0  0
    9.0283   -1.3502   -3.2485 C   0  0  0  0  0  0  0  0  0  0  0  0
    7.9527   -1.6822   -2.2002 C   0  0  0  0  0  0  0  0  0  0  0  0
    8.3250   -3.0109   -1.6456 C   0  0  0  0  0  0  0  0  0  0  0  0
    9.4600   -3.7053   -2.3828 C   0  0  0  0  0  0  0  0  0  0  0  0
    7.8880   -0.6051   -1.2481 N   0  0  0  0  0  0  0  0  0  0  0  0
    6.9367   -0.5092   -0.2142 C   0  0  0  0  0  0  0  0  0  0  0  0
    6.1172   -1.5533    0.2033 C   0  0  0  0  0  0  0  0  0  0  0  0
    5.2556   -1.4731    1.2734 C   0  0  0  0  0  0  0  0  0  0  0  0
    5.1471   -0.3134    2.0219 C   0  0  0  0  0  0  0  0  0  0  0  0
    5.9427    0.7320    1.6277 C   0  0  0  0  0  0  0  0  0  0  0  0
    6.8204    0.6502    0.5368 C   0  0  0  0  0  0  0  0  0  0  0  0
    7.5605    1.8115    0.2194 N   0  0  0  0  0  0  0  0  0  0  0  0
    7.9425    2.6096    1.2930 O   0  0  0  0  0  0  0  0  0  0  0  0
    7.8505    2.1899   -0.9008 O   0  0  0  0  0  0  0  0  0  0  0  0
    4.0992   -0.1882    3.4006 S   0  0  0  0  0  0  0  0  0  0  0  0
    3.8706   -1.6034    3.8957 O   0  0  0  0  0  0  0  0  0  0  0  0
    4.7414    0.5845    4.5213 O   0  0  0  0  0  0  0  0  0  0  0  0
    2.5642    0.4440    2.9863 N   0  0  0  0  0  0  0  0  0  0  0  0
    2.0546    0.5951    1.6912 C   0  0  0  0  0  0  0  0  0  0  0  0
    2.8497    0.1923    0.7665 O   0  0  0  0  0  0  0  0  0  0  0  0
    0.7900    1.1354    1.2396 C   0  0  0  0  0  0  0  0  0  0  0  0
    0.3663    0.8050   -0.0741 C   0  0  0  0  0  0  0  0  0  0  0  0
   -0.8968    1.0745   -0.5303 C   0  0  0  0  0  0  0  0  0  0  0  0
   -1.8495    1.6859    0.2528 C   0  0  0  0  0  0  0  0  0  0  0  0
   -1.4647    2.0197    1.5225 C   0  0  0  0  0  0  0  0  0  0  0  0
   -0.1640    1.7459    1.9894 C   0  0  0  0  0  0  0  0  0  0  0  0
    0.0817    2.1623    3.2987 O   0  0  0  0  0  0  0  0  0  0  0  0
    0.9003    3.2955    3.5157 C   0  0  0  0  0  0  0  0  0  0  0  0
    1.1848    3.7091    4.7886 C   0  0  0  0  0  0  0  0  0  0  0  0
    1.9918    4.8349    5.0205 C   0  0  0  0  0  0  0  0  0  0  0  0
    2.5110    5.5426    3.9751 C   0  0  0  0  0  0  0  0  0  0  0  0
    3.3035    6.6486    3.8730 N   0  0  0  0  0  0  0  0  0  0  0  0
    3.5170    6.9280    2.5730 C   0  0  0  0  0  0  0  0  0  0  0  0
    2.8576    5.9956    1.7990 C   0  0  0  0  0  0  0  0  0  0  0  0
    2.2323    5.1348    2.6794 C   0  0  0  0  0  0  0  0  0  0  0  0
    1.4294    4.0148    2.4681 C   0  0  0  0  0  0  0  0  0  0  0  0
   -3.1374    1.9245   -0.2440 N   0  0  0  0  0  0  0  0  0  0  0  0
   -3.6292    1.3049   -1.4918 C   0  0  0  0  0  0  0  0  0  0  0  0
   -5.1236    1.0501   -1.3375 C   0  0  0  0  0  0  0  0  0  0  0  0
   -5.4269    0.7607    0.0514 N   0  0  0  0  0  0  0  0  0  0  0  0
   -6.7509    0.1599    0.2197 C   0  0  0  0  0  0  0  0  0  0  0  0
   -6.6659   -1.1690   -0.3985 C   0  0  0  0  0  0  0  0  0  0  0  0
   -7.4126   -1.6296   -1.3751 C   0  0  0  0  0  0  0  0  0  0  0  0
   -7.1597   -3.0437   -1.8858 C   0  0  0  0  0  0  0  0  0  0  0  0
   -6.9885   -3.9786   -0.7338 C   0  0  0  0  0  0  0  0  0  0  0  0
   -8.3764   -4.4553   -0.2815 C   0  0  0  0  0  0  0  0  0  0  0  0
   -6.2567   -5.2384   -1.2098 C   0  0  0  0  0  0  0  0  0  0  0  0
   -6.3035   -3.3948    0.4640 C   0  0  0  0  0  0  0  0  0  0  0  0
   -5.5935   -2.0923    0.1683 C   0  0  0  0  0  0  0  0  0  0  0  0
   -8.4932   -0.8510   -1.9258 C   0  0  0  0  0  0  0  0  0  0  0  0
   -9.4825   -0.2228   -1.2200 C   0  0  0  0  0  0  0  0  0  0  0  0
  -10.4983    0.5294   -1.7917 C   0  0  0  0  0  0  0  0  0  0  0  0
  -10.5254    0.6607   -3.1580 C   0  0  0  0  0  0  0  0  0  0  0  0
  -11.8018    1.6035   -3.8892 Cl  0  0  0  0  0  0  0  0  0  0  0  0
   -9.5432    0.0394   -3.9160 C   0  0  0  0  0  0  0  0  0  0  0  0
   -8.5502   -0.6984   -3.3164 C   0  0  0  0  0  0  0  0  0  0  0  0
   -5.2798    1.9365    0.8873 C   0  0  0  0  0  0  0  0  0  0  0  0
   -4.0990    2.7857    0.3984 C   0  0  0  0  0  0  0  0  0  0  0  0
   10.9622   -3.8760   -0.5488 H   0  0  0  0  0  0  0  0  0  0  0  0
   12.4117   -3.7034   -1.5915 H   0  0  0  0  0  0  0  0  0  0  0  0
   11.8057   -2.2558   -0.6650 H   0  0  0  0  0  0  0  0  0  0  0  0
   10.2560   -1.0493   -1.5404 H   0  0  0  0  0  0  0  0  0  0  0  0
   11.1706   -0.9746   -3.1152 H   0  0  0  0  0  0  0  0  0  0  0  0
    8.8822   -0.3376   -3.6503 H   0  0  0  0  0  0  0  0  0  0  0  0
    8.9474   -2.0926   -4.0350 H   0  0  0  0  0  0  0  0  0  0  0  0
    6.9838   -1.7022   -2.7658 H   0  0  0  0  0  0  0  0  0  0  0  0
    7.4374   -3.6962   -1.8522 H   0  0  0  0  0  0  0  0  0  0  0  0
    8.4816   -3.0534   -0.5546 H   0  0  0  0  0  0  0  0  0  0  0  0
    9.1449   -4.0103   -3.4028 H   0  0  0  0  0  0  0  0  0  0  0  0
    9.6738   -4.6419   -1.8261 H   0  0  0  0  0  0  0  0  0  0  0  0
    8.6377    0.1562   -1.3118 H   0  0  0  0  0  0  0  0  0  0  0  0
    6.1661   -2.4834   -0.3818 H   0  0  0  0  0  0  0  0  0  0  0  0
    4.6515   -2.3186    1.5418 H   0  0  0  0  0  0  0  0  0  0  0  0
    5.8878    1.6669    2.1885 H   0  0  0  0  0  0  0  0  0  0  0  0
    1.9123    0.6967    3.8067 H   0  0  0  0  0  0  0  0  0  0  0  0
    1.1040    0.3270   -0.6946 H   0  0  0  0  0  0  0  0  0  0  0  0
   -1.1675    0.7972   -1.5441 H   0  0  0  0  0  0  0  0  0  0  0  0
   -2.1783    2.5024    2.1815 H   0  0  0  0  0  0  0  0  0  0  0  0
    0.8049    3.1949    5.6529 H   0  0  0  0  0  0  0  0  0  0  0  0
    2.1976    5.1389    6.0222 H   0  0  0  0  0  0  0  0  0  0  0  0
    3.6506    7.1480    4.7066 H   0  0  0  0  0  0  0  0  0  0  0  0
    4.1146    7.7589    2.2269 H   0  0  0  0  0  0  0  0  0  0  0  0
    2.8086    5.9139    0.7294 H   0  0  0  0  0  0  0  0  0  0  0  0
    1.2401    3.7404    1.4529 H   0  0  0  0  0  0  0  0  0  0  0  0
   -3.1452    0.3111   -1.5457 H   0  0  0  0  0  0  0  0  0  0  0  0
   -3.4856    1.9355   -2.3650 H   0  0  0  0  0  0  0  0  0  0  0  0
   -5.6957    1.8824   -1.7548 H   0  0  0  0  0  0  0  0  0  0  0  0
   -5.3530    0.1403   -1.9223 H   0  0  0  0  0  0  0  0  0  0  0  0
   -7.4572    0.8666   -0.1907 H   0  0  0  0  0  0  0  0  0  0  0  0
   -6.9016    0.1092    1.3269 H   0  0  0  0  0  0  0  0  0  0  0  0
   -6.1940   -2.9703   -2.4490 H   0  0  0  0  0  0  0  0  0  0  0  0
   -7.9521   -3.3350   -2.5808 H   0  0  0  0  0  0  0  0  0  0  0  0
   -8.8903   -3.5613    0.1223 H   0  0  0  0  0  0  0  0  0  0  0  0
   -8.9169   -4.9362   -1.1023 H   0  0  0  0  0  0  0  0  0  0  0  0
   -8.1921   -5.1846    0.5358 H   0  0  0  0  0  0  0  0  0  0  0  0
   -6.3739   -6.0483   -0.4847 H   0  0  0  0  0  0  0  0  0  0  0  0
   -5.1750   -5.0396   -1.3401 H   0  0  0  0  0  0  0  0  0  0  0  0
   -6.6766   -5.4792   -2.2082 H   0  0  0  0  0  0  0  0  0  0  0  0
   -5.5898   -4.1565    0.8582 H   0  0  0  0  0  0  0  0  0  0  0  0
   -7.0611   -3.1661    1.2389 H   0  0  0  0  0  0  0  0  0  0  0  0
   -5.1936   -1.7045    1.1227 H   0  0  0  0  0  0  0  0  0  0  0  0
   -4.7912   -2.1987   -0.5616 H   0  0  0  0  0  0  0  0  0  0  0  0
   -9.4871   -0.3188   -0.1478 H   0  0  0  0  0  0  0  0  0  0  0  0
  -11.2719    1.0198   -1.2116 H   0  0  0  0  0  0  0  0  0  0  0  0
   -9.6137    0.1756   -4.9953 H   0  0  0  0  0  0  0  0  0  0  0  0
   -7.7739   -1.1885   -3.9198 H   0  0  0  0  0  0  0  0  0  0  0  0
   -5.0215    1.5847    1.9090 H   0  0  0  0  0  0  0  0  0  0  0  0
   -6.1694    2.5615    0.8188 H   0  0  0  0  0  0  0  0  0  0  0  0
   -4.4923    3.5616   -0.3118 H   0  0  0  0  0  0  0  0  0  0  0  0
   -3.7309    3.3390    1.2712 H   0  0  0  0  0  0  0  0  0  0  0  0
  1  2  1  0
  2  3  1  0
  3  4  1  0
  4  5  1  0
  5  6  1  0
  6  7  1  0
  5  8  1  0
  8  9  1  0
  9 10  2  0
 10 11  1  0
 11 12  2  0
 12 13  1  0
 13 14  2  0
 14 15  1  0
 15 16  1  0
 15 17  2  0
 12 18  1  0
 18 19  2  0
 18 20  2  0
 18 21  1  0
 21 22  1  0
 22 23  2  0
 22 24  1  0
 24 25  2  0
 25 26  1  0
 26 27  2  0
 27 28  1  0
 28 29  2  0
 29 30  1  0
 30 31  1  0
 31 32  2  0
 32 33  1  0
 33 34  2  0
 34 35  1  0
 35 36  1  0
 36 37  2  0
 37 38  1  0
 38 39  2  0
 27 40  1  0
 40 41  1  0
 41 42  1  0
 42 43  1  0
 43 44  1  0
 44 45  1  0
 45 46  2  0
 46 47  1  0
 47 48  1  0
 48 49  1  0
 48 50  1  0
 48 51  1  0
 51 52  1  0
 46 53  1  0
 53 54  2  0
 54 55  1  0
 55 56  2  0
 56 57  1  0
 56 58  1  0
 58 59  2  0
 43 60  1  0
 60 61  1  0
  7  2  1  0
 14  9  1  0
 29 24  1  0
 39 31  1  0
 61 40  1  0
 38 34  1  0
 52 45  1  0
 59 53  1  0
  1 62  1  0
  1 63  1  0
  1 64  1  0
  3 65  1  0
  3 66  1  0
  4 67  1  0
  4 68  1  0
  5 69  1  0
  6 70  1  0
  6 71  1  0
  7 72  1  0
  7 73  1  0
  8 74  1  0
 10 75  1  0
 11 76  1  0
 13 77  1  0
 21 78  1  0
 25 79  1  0
 26 80  1  0
 28 81  1  0
 32 82  1  0
 33 83  1  0
 35 84  1  0
 36 85  1  0
 37 86  1  0
 39 87  1  0
 41 88  1  0
 41 89  1  0
 42 90  1  0
 42 91  1  0
 44 92  1  0
 44 93  1  0
 47 94  1  0
 47 95  1  0
 49 96  1  0
 49 97  1  0
 49 98  1  0
 50 99  1  0
 50100  1  0
 50101  1  0
 51102  1  0
 51103  1  0
 52104  1  0
 52105  1  0
 54106  1  0
 55107  1  0
 58108  1  0
 59109  1  0
 60110  1  0
 60111  1  0
 61112  1  0
 61113  1  0
M  CHG  2  15   1  16  -1
M  END
$$$$
[H]c1nc(-c2c([H])nn([H])c2-c2c([H])c([H])nc(N([H])C(=O)c3c([H])c([H])c([H])c(C(F)(F)F)c3[H])c2[H])c([H])c([H])c1[H]
     RDKit          3D

 44 47  0  0  0  0  0  0  0  0999 V2000
    5.7419    2.1522   -0.3205 F   0  0  0  0  0  0  0  0  0  0  0  0
    5.9121    1.0938   -1.1937 C   0  0  0  0  0  0  0  0  0  0  0  0
    7.0666    0.3834   -0.8855 F   0  0  0  0  0  0  0  0  0  0  0  0
    6.0451    1.6090   -2.4582 F   0  0  0  0  0  0  0  0  0  0  0  0
    4.6989    0.2167   -1.1372 C   0  0  0  0  0  0  0  0  0  0  0  0
    4.0088   -0.0624   -2.3072 C   0  0  0  0  0  0  0  0  0  0  0  0
    2.8993   -0.8811   -2.2851 C   0  0  0  0  0  0  0  0  0  0  0  0
    2.4757   -1.4280   -1.0742 C   0  0  0  0  0  0  0  0  0  0  0  0
    3.1234   -1.1805    0.1009 C   0  0  0  0  0  0  0  0  0  0  0  0
    4.2552   -0.3395    0.0525 C   0  0  0  0  0  0  0  0  0  0  0  0
    2.7340   -1.7527    1.3550 C   0  0  0  0  0  0  0  0  0  0  0  0
    3.6566   -2.5928    1.8100 O   0  0  0  0  0  0  0  0  0  0  0  0
    1.6313   -1.6186    2.1695 N   0  0  0  0  0  0  0  0  0  0  0  0
    0.4592   -0.8589    2.1128 C   0  0  0  0  0  0  0  0  0  0  0  0
    0.0944    0.0692    1.1698 C   0  0  0  0  0  0  0  0  0  0  0  0
   -1.1420    0.7369    1.1675 C   0  0  0  0  0  0  0  0  0  0  0  0
   -2.0087    0.4119    2.1964 C   0  0  0  0  0  0  0  0  0  0  0  0
   -1.6678   -0.5081    3.1524 C   0  0  0  0  0  0  0  0  0  0  0  0
   -0.4773   -1.1036    3.0895 N   0  0  0  0  0  0  0  0  0  0  0  0
   -1.4351    1.6626    0.0910 C   0  0  0  0  0  0  0  0  0  0  0  0
   -0.7265    2.7138   -0.3357 N   0  0  0  0  0  0  0  0  0  0  0  0
   -1.3187    3.2963   -1.3721 N   0  0  0  0  0  0  0  0  0  0  0  0
   -2.4532    2.6133   -1.6408 C   0  0  0  0  0  0  0  0  0  0  0  0
   -2.5616    1.5648   -0.7282 C   0  0  0  0  0  0  0  0  0  0  0  0
   -3.5984    0.5660   -0.5971 C   0  0  0  0  0  0  0  0  0  0  0  0
   -3.4385   -0.7922   -0.7313 C   0  0  0  0  0  0  0  0  0  0  0  0
   -4.4872   -1.7076   -0.5931 C   0  0  0  0  0  0  0  0  0  0  0  0
   -5.7423   -1.2146   -0.3093 C   0  0  0  0  0  0  0  0  0  0  0  0
   -5.8875    0.1512   -0.1778 C   0  0  0  0  0  0  0  0  0  0  0  0
   -4.8593    1.0038   -0.3162 N   0  0  0  0  0  0  0  0  0  0  0  0
    4.3820    0.3901   -3.2399 H   0  0  0  0  0  0  0  0  0  0  0  0
    2.3840   -1.0672   -3.2249 H   0  0  0  0  0  0  0  0  0  0  0  0
    1.5842   -2.0776   -1.1015 H   0  0  0  0  0  0  0  0  0  0  0  0
    4.7537   -0.1489    0.9681 H   0  0  0  0  0  0  0  0  0  0  0  0
    1.6829   -2.2363    3.0813 H   0  0  0  0  0  0  0  0  0  0  0  0
    0.8048    0.3155    0.4207 H   0  0  0  0  0  0  0  0  0  0  0  0
   -2.9566    0.8945    2.2333 H   0  0  0  0  0  0  0  0  0  0  0  0
   -2.3485   -0.7739    3.9755 H   0  0  0  0  0  0  0  0  0  0  0  0
    0.1790    3.0645    0.0577 H   0  0  0  0  0  0  0  0  0  0  0  0
   -3.2002    2.8027   -2.4233 H   0  0  0  0  0  0  0  0  0  0  0  0
   -2.4485   -1.1671   -0.9573 H   0  0  0  0  0  0  0  0  0  0  0  0
   -4.3534   -2.7786   -0.6973 H   0  0  0  0  0  0  0  0  0  0  0  0
   -6.5550   -1.9368   -0.2035 H   0  0  0  0  0  0  0  0  0  0  0  0
   -6.9068    0.5146    0.0467 H   0  0  0  0  0  0  0  0  0  0  0  0
  1  2  1  0
  2  3  1  0
  2  4  1  0
  2  5  1  0
  5  6  2  0
  6  7  1  0
  7  8  2  0
  8  9  1  0
  9 10  2  0
  9 11  1  0
 11 12  2  0
 11 13  1  0
 13 14  1  0
 14 15  2  0
 15 16  1  0
 16 17  2  0
 17 18  1  0
 18 19  2  0
 16 20  1  0
 20 21  1  0
 21 22  1  0
 22 23  2  0
 23 24  1  0
 24 25  1  0
 25 26  2  0
 26 27  1  0
 27 28  2  0
 28 29  1  0
 29 30  2  0
 10  5  1  0
 19 14  1  0
 24 20  2  0
 30 25  1  0
  6 31  1  0
  7 32  1  0
  8 33  1  0
 10 34  1  0
 13 35  1  0
 15 36  1  0
 17 37  1  0
 18 38  1  0
 21 39  1  0
 23 40  1  0
 26 41  1  0
 27 42  1  0
 28 43  1  0
 29 44  1  0
M  END
$$$$
[H]c1nc(-c2nonc2N([H])[H])c2nc(-c3nonc3N([H])[H])n(C([H])([H])C([H])([H])[H])c2c1OC([H])([H])C([H])([H])C([H])([H])N([H])[H]
     RDKit          3D

 46 49  0  0  0  0  0  0  0  0999 V2000
   -1.0693   -1.2237   -2.8831 C   0  0  0  0  0  0  0  0  0  0  0  0
   -0.6813   -2.0058   -1.6458 C   0  0  0  0  0  0  0  0  0  0  0  0
   -1.0888   -1.2993   -0.4486 N   0  0  0  0  0  0  0  0  0  0  0  0
   -2.2516   -1.4180    0.1970 C   0  0  0  0  0  0  0  0  0  0  0  0
   -2.2353   -0.5918    1.2766 N   0  0  0  0  0  0  0  0  0  0  0  0
   -1.0411    0.0322    1.2746 C   0  0  0  0  0  0  0  0  0  0  0  0
   -0.4877    0.9776    2.1328 C   0  0  0  0  0  0  0  0  0  0  0  0
    0.7390    1.4523    1.9038 N   0  0  0  0  0  0  0  0  0  0  0  0
    1.4693    1.0259    0.8349 C   0  0  0  0  0  0  0  0  0  0  0  0
    0.9759    0.0860   -0.0586 C   0  0  0  0  0  0  0  0  0  0  0  0
    1.6928   -0.3462   -1.1260 O   0  0  0  0  0  0  0  0  0  0  0  0
    2.9207   -0.0712   -1.6408 C   0  0  0  0  0  0  0  0  0  0  0  0
    3.1992    1.3179   -2.1148 C   0  0  0  0  0  0  0  0  0  0  0  0
    4.6457    1.3075   -2.6342 C   0  0  0  0  0  0  0  0  0  0  0  0
    5.5041    0.9323   -1.5453 N   0  0  0  0  0  0  0  0  0  0  0  0
   -0.2930   -0.3920    0.1972 C   0  0  0  0  0  0  0  0  0  0  0  0
   -1.2705    1.4343    3.2778 C   0  0  0  0  0  0  0  0  0  0  0  0
   -2.4973    1.0435    3.6172 N   0  0  0  0  0  0  0  0  0  0  0  0
   -2.8965    1.6520    4.6948 O   0  0  0  0  0  0  0  0  0  0  0  0
   -1.9384    2.4436    5.0694 N   0  0  0  0  0  0  0  0  0  0  0  0
   -0.8822    2.3521    4.2145 C   0  0  0  0  0  0  0  0  0  0  0  0
    0.3280    3.0684    4.3147 N   0  0  0  0  0  0  0  0  0  0  0  0
   -3.3677   -2.2844   -0.1926 C   0  0  0  0  0  0  0  0  0  0  0  0
   -3.5197   -3.1334   -1.2130 N   0  0  0  0  0  0  0  0  0  0  0  0
   -4.6706   -3.7167   -1.2045 O   0  0  0  0  0  0  0  0  0  0  0  0
   -5.3154   -3.2672   -0.1724 N   0  0  0  0  0  0  0  0  0  0  0  0
   -4.5867   -2.3765    0.5121 C   0  0  0  0  0  0  0  0  0  0  0  0
   -4.8836   -1.6527    1.6712 N   0  0  0  0  0  0  0  0  0  0  0  0
   -1.4010   -0.1863   -2.6224 H   0  0  0  0  0  0  0  0  0  0  0  0
   -0.2485   -1.1973   -3.6047 H   0  0  0  0  0  0  0  0  0  0  0  0
   -1.9514   -1.7019   -3.3986 H   0  0  0  0  0  0  0  0  0  0  0  0
    0.4208   -2.1838   -1.7098 H   0  0  0  0  0  0  0  0  0  0  0  0
   -1.0963   -3.0471   -1.7007 H   0  0  0  0  0  0  0  0  0  0  0  0
    2.4457    1.4589    0.7456 H   0  0  0  0  0  0  0  0  0  0  0  0
    3.0845   -0.7936   -2.5056 H   0  0  0  0  0  0  0  0  0  0  0  0
    3.7523   -0.3942   -0.9314 H   0  0  0  0  0  0  0  0  0  0  0  0
    2.5271    1.5169   -2.9989 H   0  0  0  0  0  0  0  0  0  0  0  0
    3.1361    2.0900   -1.3618 H   0  0  0  0  0  0  0  0  0  0  0  0
    4.9058    2.2395   -3.1290 H   0  0  0  0  0  0  0  0  0  0  0  0
    4.6780    0.4893   -3.3863 H   0  0  0  0  0  0  0  0  0  0  0  0
    6.5049    1.0367   -1.7649 H   0  0  0  0  0  0  0  0  0  0  0  0
    5.2275    1.3844   -0.6352 H   0  0  0  0  0  0  0  0  0  0  0  0
    1.1237    2.7332    4.8893 H   0  0  0  0  0  0  0  0  0  0  0  0
    0.3798    3.9748    3.7664 H   0  0  0  0  0  0  0  0  0  0  0  0
   -5.6591   -0.9711    1.6783 H   0  0  0  0  0  0  0  0  0  0  0  0
   -4.3278   -1.7953    2.5299 H   0  0  0  0  0  0  0  0  0  0  0  0
  1  2  1  0
  2  3  1  0
  3  4  1  0
  4  5  2  0
  5  6  1  0
  6  7  2  0
  7  8  1  0
  8  9  2  0
  9 10  1  0
 10 11  1  0
 11 12  1  0
 12 13  1  0
 13 14  1  0
 14 15  1  0
 10 16  2  0
  7 17  1  0
 17 18  2  0
 18 19  1  0
 19 20  1  0
 20 21  2  0
 21 22  1  0
  4 23  1  0
 23 24  2  0
 24 25  1  0
 25 26  1  0
 26 27  2  0
 27 28  1  0
 16  3  1  0
 21 17  1  0
 27 23  1  0
 16  6  1  0
  1 29  1  0
  1 30  1  0
  1 31  1  0
  2 32  1  0
  2 33  1  0
  9 34  1  0
 12 35  1  0
 12 36  1  0
 13 37  1  0
 13 38  1  0
 14 39  1  0
 14 40  1  0
 15 41  1  0
 15 42  1  0
 22 43  1  0
 22 44  1  0
 28 45  1  0
 28 46  1  0
M  END
$$$$
[H]O[C@@]1([H])[C@]([H])(n2c([H])nc3c(N([H])[H])nc([H])nc32)O[C@]([H])(C([H])([H])OP(=O)(O[H])OP(=O)(O[H])O[H])[C@]1([H])O[H]
     RDKit          3D

 42 44  0  0  0  0  0  0  0  0999 V2000
   -5.5921    2.8350   -0.4478 N   0  0  0  0  0  0  0  0  0  0  0  0
   -5.1824    1.5137   -0.1916 C   0  0  0  0  0  0  0  0  0  0  0  0
   -5.9252    0.4333   -0.3938 N   0  0  0  0  0  0  0  0  0  0  0  0
   -5.4940   -0.8130   -0.1351 C   0  0  0  0  0  0  0  0  0  0  0  0
   -4.2659   -1.0224    0.3500 N   0  0  0  0  0  0  0  0  0  0  0  0
   -3.4650    0.0392    0.5759 C   0  0  0  0  0  0  0  0  0  0  0  0
   -2.1881    0.1241    1.0575 N   0  0  0  0  0  0  0  0  0  0  0  0
   -1.8812    1.4225    1.0769 C   0  0  0  0  0  0  0  0  0  0  0  0
   -2.8975    2.1396    0.6344 N   0  0  0  0  0  0  0  0  0  0  0  0
   -3.9011    1.3047    0.3138 C   0  0  0  0  0  0  0  0  0  0  0  0
   -1.3382   -0.9411    1.4632 C   0  0  2  0  0  0  0  0  0  0  0  0
   -0.0829   -0.4424    1.7340 O   0  0  0  0  0  0  0  0  0  0  0  0
    0.8018   -0.8829    0.7935 C   0  0  2  0  0  0  0  0  0  0  0  0
    1.7182    0.2312    0.3505 C   0  0  0  0  0  0  0  0  0  0  0  0
    2.6289   -0.1779   -0.6024 O   0  0  0  0  0  0  0  0  0  0  0  0
    3.5910    1.1502   -1.0136 P   0  0  0  0  0  0  0  0  0  0  0  0
    2.9274    2.0227   -2.2929 O   0  0  0  0  0  0  0  0  0  0  0  0
    3.6703    2.0465    0.2068 O   0  0  0  0  0  0  0  0  0  0  0  0
    5.1570    0.6887   -1.4219 O   0  0  0  0  0  0  0  0  0  0  0  0
    5.9067   -0.1884   -0.2114 P   0  0  0  0  0  0  0  0  0  0  0  0
    6.4276   -1.6676   -0.8904 O   0  0  0  0  0  0  0  0  0  0  0  0
    7.2736    0.6419    0.3818 O   0  0  0  0  0  0  0  0  0  0  0  0
    4.9840   -0.4753    0.9601 O   0  0  0  0  0  0  0  0  0  0  0  0
    0.0350   -1.5057   -0.3319 C   0  0  2  0  0  0  0  0  0  0  0  0
   -0.4684   -0.5154   -1.1888 O   0  0  0  0  0  0  0  0  0  0  0  0
   -1.1858   -2.0306    0.4389 C   0  0  1  0  0  0  0  0  0  0  0  0
   -0.8360   -3.2116    1.0852 O   0  0  0  0  0  0  0  0  0  0  0  0
   -5.7524    3.4918    0.3323 H   0  0  0  0  0  0  0  0  0  0  0  0
   -5.7338    3.1522   -1.4192 H   0  0  0  0  0  0  0  0  0  0  0  0
   -6.1653   -1.6725   -0.3267 H   0  0  0  0  0  0  0  0  0  0  0  0
   -0.9379    1.8950    1.4018 H   0  0  0  0  0  0  0  0  0  0  0  0
   -1.7378   -1.3356    2.4335 H   0  0  0  0  0  0  0  0  0  0  0  0
    1.4035   -1.7132    1.2671 H   0  0  0  0  0  0  0  0  0  0  0  0
    1.0792    1.0539   -0.0311 H   0  0  0  0  0  0  0  0  0  0  0  0
    2.2877    0.5535    1.2451 H   0  0  0  0  0  0  0  0  0  0  0  0
    2.7877    1.3861   -3.0485 H   0  0  0  0  0  0  0  0  0  0  0  0
    6.3183   -1.6764   -1.8705 H   0  0  0  0  0  0  0  0  0  0  0  0
    7.8041   -0.0377    0.8743 H   0  0  0  0  0  0  0  0  0  0  0  0
    0.5549   -2.2993   -0.8649 H   0  0  0  0  0  0  0  0  0  0  0  0
    0.1173   -0.3196   -1.9405 H   0  0  0  0  0  0  0  0  0  0  0  0
   -2.0053   -2.1314   -0.2590 H   0  0  0  0  0  0  0  0  0  0  0  0
   -0.4379   -3.0656    1.9634 H   0  0  0  0  0  0  0  0  0  0  0  0
  1  2  1  0
  2  3  2  0
  3  4  1  0
  4  5  2  0
  5  6  1  0
  6  7  1  0
  7  8  1  0
  8  9  2  0
  9 10  1  0
  7 11  1  0
 11 12  1  0
 12 13  1  0
 13 14  1  0
 14 15  1  0
 15 16  1  0
 16 17  1  0
 16 18  2  0
 16 19  1  0
 19 20  1  0
 20 21  1  0
 20 22  1  0
 20 23  2  0
 13 24  1  0
 24 25  1  0
 24 26  1  0
 26 27  1  0
 10  2  1  0
 26 11  1  0
 10  6  2  0
  1 28  1  0
  1 29  1  0
  4 30  1  0
  8 31  1  0
 11 32  1  1
 13 33  1  1
 14 34  1  0
 14 35  1  0
 17 36  1  0
 21 37  1  0
 22 38  1  0
 24 39  1  6
 25 40  1  0
 26 41  1  6
 27 42  1  0
M  END
$$$$
[H]c1nc2c(nc([H])c(=O)n2[H])c(Oc2c([H])c([H])c(N([H])C(=O)N([H])c3c([H])c(C(C([H])([H])[H])(C([H])([H])[H])C([H])([H])[H])nn3-c3c([H])c([H])c(C([H])([H])N4C([H])([H])C([H])([H])OC([H])([H])C4([H])[H])c([H])c3[H])c3c([H])c([H])c([H])c([H])c23)c1[H]
     RDKit          3D

 84 90  0  0  0  0  0  0  0  0999 V2000
    1.8967   -5.7942   -0.8384 C   0  0  0  0  0  0  0  0  0  0  0  0
    2.9656   -4.8651   -1.2925 C   0  0  0  0  0  0  0  0  0  0  0  0
    3.0829   -4.8155   -2.8048 C   0  0  0  0  0  0  0  0  0  0  0  0
    4.2968   -5.3351   -0.7100 C   0  0  0  0  0  0  0  0  0  0  0  0
    2.6945   -3.4829   -0.8310 C   0  0  0  0  0  0  0  0  0  0  0  0
    1.4462   -2.9619   -0.4684 C   0  0  0  0  0  0  0  0  0  0  0  0
    1.5973   -1.6504   -0.0994 C   0  0  0  0  0  0  0  0  0  0  0  0
    0.5519   -0.7798    0.2868 N   0  0  0  0  0  0  0  0  0  0  0  0
   -0.8285   -1.0345    0.1889 C   0  0  0  0  0  0  0  0  0  0  0  0
   -1.2040   -2.0756   -0.3564 O   0  0  0  0  0  0  0  0  0  0  0  0
   -1.8352   -0.1347    0.6971 N   0  0  0  0  0  0  0  0  0  0  0  0
   -3.2147   -0.3562    0.5655 C   0  0  0  0  0  0  0  0  0  0  0  0
   -3.7469   -1.0319   -0.5123 C   0  0  0  0  0  0  0  0  0  0  0  0
   -5.1058   -1.1369   -0.6378 C   0  0  0  0  0  0  0  0  0  0  0  0
   -6.0301   -0.5995    0.2657 C   0  0  0  0  0  0  0  0  0  0  0  0
   -7.3273   -0.7513    0.0628 O   0  0  0  0  0  0  0  0  0  0  0  0
   -8.5029   -0.1967   -0.0752 C   0  0  0  0  0  0  0  0  0  0  0  0
   -9.5594   -0.6517    0.7462 C   0  0  0  0  0  0  0  0  0  0  0  0
  -10.8260   -0.1457    0.7000 C   0  0  0  0  0  0  0  0  0  0  0  0
  -11.1115    0.8296   -0.1578 N   0  0  0  0  0  0  0  0  0  0  0  0
  -10.1483    1.3026   -0.9657 C   0  0  0  0  0  0  0  0  0  0  0  0
  -10.5106    2.2931   -1.7982 N   0  0  0  0  0  0  0  0  0  0  0  0
   -9.5846    2.8286   -2.6420 C   0  0  0  0  0  0  0  0  0  0  0  0
   -9.9415    3.7654   -3.4213 O   0  0  0  0  0  0  0  0  0  0  0  0
   -8.2844    2.3352   -2.6211 C   0  0  0  0  0  0  0  0  0  0  0  0
   -7.9211    1.3314   -1.7744 N   0  0  0  0  0  0  0  0  0  0  0  0
   -8.8534    0.8221   -0.9531 C   0  0  0  0  0  0  0  0  0  0  0  0
   -5.4793    0.0776    1.3470 C   0  0  0  0  0  0  0  0  0  0  0  0
   -6.3184    0.6327    2.3098 C   0  0  0  0  0  0  0  0  0  0  0  0
   -5.8052    1.2875    3.4001 C   0  0  0  0  0  0  0  0  0  0  0  0
   -4.4484    1.3948    3.5373 C   0  0  0  0  0  0  0  0  0  0  0  0
   -3.6032    0.8622    2.6038 C   0  0  0  0  0  0  0  0  0  0  0  0
   -4.0928    0.1898    1.4821 C   0  0  0  0  0  0  0  0  0  0  0  0
    2.8968   -1.3642   -0.2275 N   0  0  0  0  0  0  0  0  0  0  0  0
    3.5281   -2.4650   -0.6624 N   0  0  0  0  0  0  0  0  0  0  0  0
    3.5927   -0.1204   -0.0025 C   0  0  0  0  0  0  0  0  0  0  0  0
    4.2426    0.3725   -1.1117 C   0  0  0  0  0  0  0  0  0  0  0  0
    4.9655    1.5598   -0.9972 C   0  0  0  0  0  0  0  0  0  0  0  0
    5.0340    2.2361    0.1992 C   0  0  0  0  0  0  0  0  0  0  0  0
    5.8076    3.4862    0.2772 C   0  0  0  0  0  0  0  0  0  0  0  0
    7.2356    3.2483    0.3426 N   0  0  0  0  0  0  0  0  0  0  0  0
    7.6378    2.4577    1.4670 C   0  0  0  0  0  0  0  0  0  0  0  0
    9.1061    2.1044    1.2823 C   0  0  0  0  0  0  0  0  0  0  0  0
    9.5713    2.5905    0.0406 O   0  0  0  0  0  0  0  0  0  0  0  0
    9.4877    3.9864    0.0818 C   0  0  0  0  0  0  0  0  0  0  0  0
    8.0264    4.4411    0.1481 C   0  0  0  0  0  0  0  0  0  0  0  0
    4.3802    1.7293    1.2900 C   0  0  0  0  0  0  0  0  0  0  0  0
    3.6619    0.5491    1.1741 C   0  0  0  0  0  0  0  0  0  0  0  0
    1.7396   -5.6137    0.2515 H   0  0  0  0  0  0  0  0  0  0  0  0
    0.9673   -5.6879   -1.4276 H   0  0  0  0  0  0  0  0  0  0  0  0
    2.2396   -6.8305   -0.9477 H   0  0  0  0  0  0  0  0  0  0  0  0
    2.4998   -5.6458   -3.2818 H   0  0  0  0  0  0  0  0  0  0  0  0
    2.7204   -3.8439   -3.1887 H   0  0  0  0  0  0  0  0  0  0  0  0
    4.1445   -4.9189   -3.1046 H   0  0  0  0  0  0  0  0  0  0  0  0
    4.8079   -4.4787   -0.2446 H   0  0  0  0  0  0  0  0  0  0  0  0
    4.1379   -6.1472    0.0171 H   0  0  0  0  0  0  0  0  0  0  0  0
    4.9252   -5.7590   -1.5433 H   0  0  0  0  0  0  0  0  0  0  0  0
    0.5579   -3.5759   -0.4981 H   0  0  0  0  0  0  0  0  0  0  0  0
    0.8232    0.1255    0.7501 H   0  0  0  0  0  0  0  0  0  0  0  0
   -1.4715    0.7190    1.1555 H   0  0  0  0  0  0  0  0  0  0  0  0
   -3.1203   -1.4707   -1.3030 H   0  0  0  0  0  0  0  0  0  0  0  0
   -5.5215   -1.6732   -1.4857 H   0  0  0  0  0  0  0  0  0  0  0  0
   -9.3087   -1.4563    1.4480 H   0  0  0  0  0  0  0  0  0  0  0  0
  -11.5895   -0.5503    1.3671 H   0  0  0  0  0  0  0  0  0  0  0  0
  -11.4772    2.6613   -1.8178 H   0  0  0  0  0  0  0  0  0  0  0  0
   -7.5819    2.7988   -3.3206 H   0  0  0  0  0  0  0  0  0  0  0  0
   -7.3829    0.5498    2.2038 H   0  0  0  0  0  0  0  0  0  0  0  0
   -6.4709    1.7240    4.1540 H   0  0  0  0  0  0  0  0  0  0  0  0
   -4.0539    1.9043    4.4025 H   0  0  0  0  0  0  0  0  0  0  0  0
   -2.5135    0.9408    2.7149 H   0  0  0  0  0  0  0  0  0  0  0  0
    4.2182   -0.1310   -2.0920 H   0  0  0  0  0  0  0  0  0  0  0  0
    5.4698    1.9282   -1.8599 H   0  0  0  0  0  0  0  0  0  0  0  0
    5.4625    4.1784    1.0654 H   0  0  0  0  0  0  0  0  0  0  0  0
    5.6619    4.0659   -0.6868 H   0  0  0  0  0  0  0  0  0  0  0  0
    7.0655    1.5149    1.4372 H   0  0  0  0  0  0  0  0  0  0  0  0
    7.4604    2.9297    2.4515 H   0  0  0  0  0  0  0  0  0  0  0  0
    9.7549    2.5924    2.0368 H   0  0  0  0  0  0  0  0  0  0  0  0
    9.2598    1.0077    1.2405 H   0  0  0  0  0  0  0  0  0  0  0  0
   10.0196    4.2967    0.9909 H   0  0  0  0  0  0  0  0  0  0  0  0
    9.9192    4.3760   -0.8495 H   0  0  0  0  0  0  0  0  0  0  0  0
    7.7109    4.9221   -0.7906 H   0  0  0  0  0  0  0  0  0  0  0  0
    7.9362    5.1804    0.9681 H   0  0  0  0  0  0  0  0  0  0  0  0
    4.4250    2.2584    2.2567 H   0  0  0  0  0  0  0  0  0  0  0  0
    3.1414    0.1437    2.0216 H   0  0  0  0  0  0  0  0  0  0  0  0
  1  2  1  0
  2  3  1  0
  2  4  1  0
  2  5  1  0
  5  6  1  0
  6  7  2  0
  7  8  1  0
  8  9  1  0
  9 10  2  0
  9 11  1  0
 11 12  1  0
 12 13  2  0
 13 14  1  0
 14 15  2  0
 15 16  1  0
 16 17  1  0
 17 18  2  0
 18 19  1  0
 19 20  2  0
 20 21  1  0
 21 22  1  0
 22 23  1  0
 23 24  2  0
 23 25  1  0
 25 26  2  0
 26 27  1  0
 15 28  1  0
 28 29  2  0
 29 30  1  0
 30 31  2  0
 31 32  1  0
 32 33  2  0
  7 34  1  0
 34 35  1  0
 34 36  1  0
 36 37  2  0
 37 38  1  0
 38 39  2  0
 39 40  1  0
 40 41  1  0
 41 42  1  0
 42 43  1  0
 43 44  1  0
 44 45  1  0
 45 46  1  0
 39 47  1  0
 47 48  2  0
 35  5  2  0
 48 36  1  0
 33 12  1  0
 46 41  1  0
 27 17  1  0
 33 28  1  0
 27 21  2  0
  1 49  1  0
  1 50  1  0
  1 51  1  0
  3 52  1  0
  3 53  1  0
  3 54  1  0
  4 55  1  0
  4 56  1  0
  4 57  1  0
  6 58  1  0
  8 59  1  0
 11 60  1  0
 13 61  1  0
 14 62  1  0
 18 63  1  0
 19 64  1  0
 22 65  1  0
 25 66  1  0
 29 67  1  0
 30 68  1  0
 31 69  1  0
 32 70  1  0
 37 71  1  0
 38 72  1  0
 40 73  1  0
 40 74  1  0
 42 75  1  0
 42 76  1  0
 43 77  1  0
 43 78  1  0
 45 79  1  0
 45 80  1  0
 46 81  1  0
 46 82  1  0
 47 83  1  0
 48 84  1  0
M  END
$$$$
[H]OC(c1c([H])c([H])c(-c2c([H])c([H])c(C(C([H])([H])[H])(C([H])([H])[H])C([H])([H])[H])c([H])c2[H])c([H])c1[H])(C(F)(F)F)C(F)(F)F
     RDKit          3D

 44 45  0  0  0  0  0  0  0  0999 V2000
   -4.8375   -0.3132   -1.8220 C   0  0  0  0  0  0  0  0  0  0  0  0
   -4.7156   -0.2532   -0.2800 C   0  0  0  0  0  0  0  0  0  0  0  0
   -5.5498    0.9432    0.1191 C   0  0  0  0  0  0  0  0  0  0  0  0
   -5.2351   -1.5218    0.2875 C   0  0  0  0  0  0  0  0  0  0  0  0
   -3.2829   -0.0521    0.0598 C   0  0  0  0  0  0  0  0  0  0  0  0
   -2.7557    1.1312    0.5414 C   0  0  0  0  0  0  0  0  0  0  0  0
   -1.3882    1.2670    0.7925 C   0  0  0  0  0  0  0  0  0  0  0  0
   -0.5328    0.2380    0.5725 C   0  0  0  0  0  0  0  0  0  0  0  0
   -1.0639   -0.9675    0.0878 C   0  0  0  0  0  0  0  0  0  0  0  0
   -2.4121   -1.0898   -0.1597 C   0  0  0  0  0  0  0  0  0  0  0  0
    0.8987    0.2915    0.6287 C   0  0  0  0  0  0  0  0  0  0  0  0
    1.6255   -0.7820    1.1536 C   0  0  0  0  0  0  0  0  0  0  0  0
    3.0123   -0.7890    1.0554 C   0  0  0  0  0  0  0  0  0  0  0  0
    3.7353    0.2166    0.4509 C   0  0  0  0  0  0  0  0  0  0  0  0
    2.9880    1.2526   -0.0517 C   0  0  0  0  0  0  0  0  0  0  0  0
    1.5943    1.3026    0.0310 C   0  0  0  0  0  0  0  0  0  0  0  0
    5.1882    0.0609    0.4102 C   0  0  0  0  0  0  0  0  0  0  0  0
    5.6436    0.0241    1.7156 O   0  0  0  0  0  0  0  0  0  0  0  0
    5.6433   -1.2045   -0.2579 C   0  0  0  0  0  0  0  0  0  0  0  0
    5.2310   -1.3088   -1.5795 F   0  0  0  0  0  0  0  0  0  0  0  0
    5.2063   -2.3685    0.3500 F   0  0  0  0  0  0  0  0  0  0  0  0
    7.0206   -1.2967   -0.2438 F   0  0  0  0  0  0  0  0  0  0  0  0
    5.8883    1.1969   -0.2994 C   0  0  0  0  0  0  0  0  0  0  0  0
    7.2460    0.9473   -0.2540 F   0  0  0  0  0  0  0  0  0  0  0  0
    5.5819    1.2202   -1.6537 F   0  0  0  0  0  0  0  0  0  0  0  0
    5.7251    2.4173    0.3162 F   0  0  0  0  0  0  0  0  0  0  0  0
   -4.1870    0.5252   -2.2106 H   0  0  0  0  0  0  0  0  0  0  0  0
   -4.4422   -1.2573   -2.2062 H   0  0  0  0  0  0  0  0  0  0  0  0
   -5.8739   -0.0993   -2.0670 H   0  0  0  0  0  0  0  0  0  0  0  0
   -5.0504    1.8347   -0.3398 H   0  0  0  0  0  0  0  0  0  0  0  0
   -5.7235    1.0301    1.1940 H   0  0  0  0  0  0  0  0  0  0  0  0
   -6.5096    0.8637   -0.4826 H   0  0  0  0  0  0  0  0  0  0  0  0
   -4.5211   -2.3425    0.1711 H   0  0  0  0  0  0  0  0  0  0  0  0
   -6.1557   -1.8746   -0.2419 H   0  0  0  0  0  0  0  0  0  0  0  0
   -5.4333   -1.4391    1.3858 H   0  0  0  0  0  0  0  0  0  0  0  0
   -3.4311    1.9588    0.7309 H   0  0  0  0  0  0  0  0  0  0  0  0
   -1.0264    2.2197    1.1821 H   0  0  0  0  0  0  0  0  0  0  0  0
   -0.3940   -1.7900   -0.0915 H   0  0  0  0  0  0  0  0  0  0  0  0
   -2.7886   -2.0429   -0.5725 H   0  0  0  0  0  0  0  0  0  0  0  0
    1.0463   -1.5518    1.6143 H   0  0  0  0  0  0  0  0  0  0  0  0
    3.4495   -1.6651    1.5409 H   0  0  0  0  0  0  0  0  0  0  0  0
    3.4509    2.0563   -0.5385 H   0  0  0  0  0  0  0  0  0  0  0  0
    1.0377    2.1356   -0.3801 H   0  0  0  0  0  0  0  0  0  0  0  0
    6.0975    0.8764    1.9777 H   0  0  0  0  0  0  0  0  0  0  0  0
  1  2  1  0
  2  3  1  0
  2  4  1  0
  2  5  1  0
  5  6  2  0
  6  7  1  0
  7  8  2  0
  8  9  1  0
  9 10  2  0
  8 11  1  0
 11 12  2  0
 12 13  1  0
 13 14  2  0
 14 15  1  0
 15 16  2  0
 14 17  1  0
 17 18  1  0
 17 19  1  0
 19 20  1  0
 19 21  1  0
 19 22  1  0
 17 23  1  0
 23 24  1  0
 23 25  1  0
 23 26  1  0
 10  5  1  0
 16 11  1  0
  1 27  1  0
  1 28  1  0
  1 29  1  0
  3 30  1  0
  3 31  1  0
  3 32  1  0
  4 33  1  0
  4 34  1  0
  4 35  1  0
  6 36  1  0
  7 37  1  0
  9 38  1  0
 10 39  1  0
 12 40  1  0
 13 41  1  0
 15 42  1  0
 16 43  1  0
 18 44  1  0
M  END
$$$$
[H]ON([H])C(=O)C([H])([H])[C@]([H])(C(=O)N([H])[C@]([H])(C(=O)N([H])[C@]([H])(C(=O)N([H])[H])C([H])([H])c1c([H])n([H])c2c([H])c([H])c([H])c([H])c12)C([H])([H])C([H])(C([H])([H])[H])C([H])([H])[H])C([H])([H])C([H])(C([H])([H])[H])C([H])([H])[H]
     RDKit          3D

 72 73  0  0  0  0  0  0  0  0999 V2000
   -6.3495   -2.4867   -0.5084 C   0  0  0  0  0  0  0  0  0  0  0  0
   -4.9034   -2.7534   -0.1802 C   0  0  0  0  0  0  0  0  0  0  0  0
   -4.1473   -3.1752   -1.4567 C   0  0  0  0  0  0  0  0  0  0  0  0
   -4.1959   -1.9820    0.7881 C   0  0  0  0  0  0  0  0  0  0  0  0
   -3.7923   -0.6291    0.9925 C   0  0  2  0  0  0  0  0  0  0  0  0
   -4.6272    0.5600    1.0566 C   0  0  0  0  0  0  0  0  0  0  0  0
   -5.3998    0.9964   -0.1204 C   0  0  0  0  0  0  0  0  0  0  0  0
   -5.2399    0.6476   -1.2979 O   0  0  0  0  0  0  0  0  0  0  0  0
   -6.4581    1.9319    0.1228 N   0  0  0  0  0  0  0  0  0  0  0  0
   -7.2111    2.3808   -0.8914 O   0  0  0  0  0  0  0  0  0  0  0  0
   -2.5432   -0.2435    0.2329 C   0  0  0  0  0  0  0  0  0  0  0  0
   -2.1712   -0.8861   -0.7714 O   0  0  0  0  0  0  0  0  0  0  0  0
   -1.7211    0.8645    0.6164 N   0  0  0  0  0  0  0  0  0  0  0  0
   -0.5262    1.2161   -0.1112 C   0  0  1  0  0  0  0  0  0  0  0  0
   -0.2416    2.6463   -0.3084 C   0  0  0  0  0  0  0  0  0  0  0  0
   -1.2271    3.4700   -1.0514 C   0  0  0  0  0  0  0  0  0  0  0  0
   -1.4808    2.9827   -2.4620 C   0  0  0  0  0  0  0  0  0  0  0  0
   -2.5241    3.7419   -0.3852 C   0  0  0  0  0  0  0  0  0  0  0  0
    0.6748    0.5619    0.5507 C   0  0  0  0  0  0  0  0  0  0  0  0
    0.4595   -0.1258    1.5668 O   0  0  0  0  0  0  0  0  0  0  0  0
    1.9852    0.7048    0.0628 N   0  0  0  0  0  0  0  0  0  0  0  0
    3.1495    0.0631    0.7086 C   0  0  1  0  0  0  0  0  0  0  0  0
    3.6861   -1.0027   -0.1576 C   0  0  0  0  0  0  0  0  0  0  0  0
    4.8760   -1.7105    0.3099 C   0  0  0  0  0  0  0  0  0  0  0  0
    4.9025   -2.8169    1.1698 C   0  0  0  0  0  0  0  0  0  0  0  0
    6.1591   -3.1792    1.4318 N   0  0  0  0  0  0  0  0  0  0  0  0
    6.9870   -2.3404    0.7648 C   0  0  0  0  0  0  0  0  0  0  0  0
    8.3647   -2.3233    0.6976 C   0  0  0  0  0  0  0  0  0  0  0  0
    8.9796   -1.3767   -0.0849 C   0  0  0  0  0  0  0  0  0  0  0  0
    8.2432   -0.4663   -0.7859 C   0  0  0  0  0  0  0  0  0  0  0  0
    6.8702   -0.4953   -0.7077 C   0  0  0  0  0  0  0  0  0  0  0  0
    6.2142   -1.4337    0.0708 C   0  0  0  0  0  0  0  0  0  0  0  0
    4.0662    1.0188    1.2697 C   0  0  0  0  0  0  0  0  0  0  0  0
    5.1508    0.7961    2.1436 N   0  0  0  0  0  0  0  0  0  0  0  0
    3.8929    2.2580    0.9531 O   0  0  0  0  0  0  0  0  0  0  0  0
   -6.4783   -1.9536   -1.4811 H   0  0  0  0  0  0  0  0  0  0  0  0
   -6.9326   -3.4227   -0.6525 H   0  0  0  0  0  0  0  0  0  0  0  0
   -6.8003   -1.9622    0.3333 H   0  0  0  0  0  0  0  0  0  0  0  0
   -4.9841   -3.8219    0.2722 H   0  0  0  0  0  0  0  0  0  0  0  0
   -4.7107   -4.0364   -1.9007 H   0  0  0  0  0  0  0  0  0  0  0  0
   -3.1394   -3.5430   -1.1982 H   0  0  0  0  0  0  0  0  0  0  0  0
   -4.0743   -2.4101   -2.2083 H   0  0  0  0  0  0  0  0  0  0  0  0
   -4.6671   -2.3113    1.8259 H   0  0  0  0  0  0  0  0  0  0  0  0
   -3.2207   -2.6073    0.9455 H   0  0  0  0  0  0  0  0  0  0  0  0
   -3.2934   -0.6161    2.0632 H   0  0  0  0  0  0  0  0  0  0  0  0
   -5.2515    0.6457    1.9956 H   0  0  0  0  0  0  0  0  0  0  0  0
   -3.9420    1.4519    1.2270 H   0  0  0  0  0  0  0  0  0  0  0  0
   -6.6484    2.2669    1.0890 H   0  0  0  0  0  0  0  0  0  0  0  0
   -7.1207    3.3551   -1.0219 H   0  0  0  0  0  0  0  0  0  0  0  0
   -1.9672    1.4406    1.4439 H   0  0  0  0  0  0  0  0  0  0  0  0
   -0.5158    0.7032   -1.1266 H   0  0  0  0  0  0  0  0  0  0  0  0
    0.0248    3.1929    0.6291 H   0  0  0  0  0  0  0  0  0  0  0  0
    0.7216    2.7082   -0.9087 H   0  0  0  0  0  0  0  0  0  0  0  0
   -0.7372    4.4939   -1.2076 H   0  0  0  0  0  0  0  0  0  0  0  0
   -2.5730    2.7428   -2.6137 H   0  0  0  0  0  0  0  0  0  0  0  0
   -0.8639    2.0763   -2.6750 H   0  0  0  0  0  0  0  0  0  0  0  0
   -1.2373    3.7339   -3.2404 H   0  0  0  0  0  0  0  0  0  0  0  0
   -2.4833    3.6347    0.7076 H   0  0  0  0  0  0  0  0  0  0  0  0
   -3.3837    3.2162   -0.8649 H   0  0  0  0  0  0  0  0  0  0  0  0
   -2.7801    4.8342   -0.5431 H   0  0  0  0  0  0  0  0  0  0  0  0
    2.1389    1.2840   -0.7853 H   0  0  0  0  0  0  0  0  0  0  0  0
    2.6812   -0.4788    1.6032 H   0  0  0  0  0  0  0  0  0  0  0  0
    3.9046   -0.5239   -1.1595 H   0  0  0  0  0  0  0  0  0  0  0  0
    2.8858   -1.7820   -0.3287 H   0  0  0  0  0  0  0  0  0  0  0  0
    3.9782   -3.2690    1.5346 H   0  0  0  0  0  0  0  0  0  0  0  0
    6.4623   -3.9673    2.0429 H   0  0  0  0  0  0  0  0  0  0  0  0
    8.9526   -3.0568    1.2632 H   0  0  0  0  0  0  0  0  0  0  0  0
   10.0707   -1.3753   -0.1297 H   0  0  0  0  0  0  0  0  0  0  0  0
    8.7097    0.2845   -1.4090 H   0  0  0  0  0  0  0  0  0  0  0  0
    6.2339    0.2173   -1.2538 H   0  0  0  0  0  0  0  0  0  0  0  0
    6.0878    1.1487    1.8771 H   0  0  0  0  0  0  0  0  0  0  0  0
    5.0513    0.2926    3.0461 H   0  0  0  0  0  0  0  0  0  0  0  0
  1  2  1  0
  2  3  1  0
  2  4  1  0
  4  5  1  0
  5  6  1  0
  6  7  1  0
  7  8  2  0
  7  9  1  0
  9 10  1  0
  5 11  1  0
 11 12  2  0
 11 13  1  0
 13 14  1  0
 14 15  1  0
 15 16  1  0
 16 17  1  0
 16 18  1  0
 14 19  1  0
 19 20  2  0
 19 21  1  0
 21 22  1  0
 22 23  1  0
 23 24  1  0
 24 25  2  0
 25 26  1  0
 26 27  1  0
 27 28  2  0
 28 29  1  0
 29 30  2  0
 30 31  1  0
 31 32  2  0
 22 33  1  0
 33 34  1  0
 33 35  2  0
 32 24  1  0
 32 27  1  0
  1 36  1  0
  1 37  1  0
  1 38  1  0
  2 39  1  0
  3 40  1  0
  3 41  1  0
  3 42  1  0
  4 43  1  0
  4 44  1  0
  5 45  1  1
  6 46  1  0
  6 47  1  0
  9 48  1  0
 10 49  1  0
 13 50  1  0
 14 51  1  6
 15 52  1  0
 15 53  1  0
 16 54  1  0
 17 55  1  0
 17 56  1  0
 17 57  1  0
 18 58  1  0
 18 59  1  0
 18 60  1  0
 21 61  1  0
 22 62  1  1
 23 63  1  0
 23 64  1  0
 25 65  1  0
 26 66  1  0
 28 67  1  0
 29 68  1  0
 30 69  1  0
 31 70  1  0
 34 71  1  0
 34 72  1  0
M  END
$$$$
[H]O[C@]1([H])C([H])([H])C2=C([H])[C@@]3([H])[C@]4([H])C([H])([H])C([H])([H])[C@]([H])(O[H])[C@@]4(C([H])([H])[H])C([H])([H])C([H])([H])[C@]3([H])[C@@]2(C([H])([H])[H])C([H])([H])C1([H])[H]
     RDKit          3D

 48 51  0  0  0  0  0  0  0  0999 V2000
   -2.7681   -0.0789    1.3355 C   0  0  0  0  0  0  0  0  0  0  0  0
   -2.4637   -0.5568   -0.0620 C   0  0  2  0  0  0  0  0  0  0  0  0
   -1.7820   -1.8745   -0.0831 C   0  0  0  0  0  0  0  0  0  0  0  0
   -0.4008   -1.8196    0.5590 C   0  0  0  0  0  0  0  0  0  0  0  0
    0.3613   -0.7345   -0.0900 C   0  0  1  0  0  0  0  0  0  0  0  0
   -0.3832    0.5584    0.1580 C   0  0  1  0  0  0  0  0  0  0  0  0
    0.6040    1.5769   -0.0761 C   0  0  0  0  0  0  0  0  0  0  0  0
    1.8057    1.0411    0.1239 C   0  0  0  0  0  0  0  0  0  0  0  0
    3.1844    1.6283    0.0288 C   0  0  0  0  0  0  0  0  0  0  0  0
    3.9061    0.8291   -1.0326 C   0  0  1  0  0  0  0  0  0  0  0  0
    5.1138    1.3807   -1.3872 O   0  0  0  0  0  0  0  0  0  0  0  0
    4.0657   -0.5668   -0.4226 C   0  0  0  0  0  0  0  0  0  0  0  0
    2.7203   -1.1807   -0.2846 C   0  0  0  0  0  0  0  0  0  0  0  0
    1.7076   -0.3976    0.4876 C   0  0  2  0  0  0  0  0  0  0  0  0
    1.8273   -0.6552    1.9469 C   0  0  0  0  0  0  0  0  0  0  0  0
   -1.5589    0.4822   -0.7508 C   0  0  2  0  0  0  0  0  0  0  0  0
   -2.4393    1.6465   -0.8492 C   0  0  0  0  0  0  0  0  0  0  0  0
   -3.8513    1.0705   -1.0148 C   0  0  0  0  0  0  0  0  0  0  0  0
   -3.6827   -0.4507   -0.8901 C   0  0  2  0  0  0  0  0  0  0  0  0
   -4.7840   -0.9197   -0.1653 O   0  0  0  0  0  0  0  0  0  0  0  0
   -2.6523    1.0207    1.4002 H   0  0  0  0  0  0  0  0  0  0  0  0
   -3.8434   -0.2812    1.5789 H   0  0  0  0  0  0  0  0  0  0  0  0
   -2.1822   -0.6112    2.1022 H   0  0  0  0  0  0  0  0  0  0  0  0
   -1.7152   -2.2578   -1.1015 H   0  0  0  0  0  0  0  0  0  0  0  0
   -2.3783   -2.5830    0.5502 H   0  0  0  0  0  0  0  0  0  0  0  0
   -0.5032   -1.6998    1.6567 H   0  0  0  0  0  0  0  0  0  0  0  0
    0.0919   -2.7910    0.3476 H   0  0  0  0  0  0  0  0  0  0  0  0
    0.4650   -0.9553   -1.1661 H   0  0  0  0  0  0  0  0  0  0  0  0
   -0.6694    0.5705    1.2402 H   0  0  0  0  0  0  0  0  0  0  0  0
    0.5121    2.6308   -0.3681 H   0  0  0  0  0  0  0  0  0  0  0  0
    3.1659    2.7081   -0.1729 H   0  0  0  0  0  0  0  0  0  0  0  0
    3.6820    1.4945    1.0326 H   0  0  0  0  0  0  0  0  0  0  0  0
    3.1996    0.7276   -1.8855 H   0  0  0  0  0  0  0  0  0  0  0  0
    5.2018    2.2522   -0.9218 H   0  0  0  0  0  0  0  0  0  0  0  0
    4.6096   -0.4303    0.5247 H   0  0  0  0  0  0  0  0  0  0  0  0
    4.6616   -1.1663   -1.1111 H   0  0  0  0  0  0  0  0  0  0  0  0
    2.3575   -1.4360   -1.3047 H   0  0  0  0  0  0  0  0  0  0  0  0
    2.8267   -2.1720    0.2347 H   0  0  0  0  0  0  0  0  0  0  0  0
    2.9211   -0.6685    2.2082 H   0  0  0  0  0  0  0  0  0  0  0  0
    1.4764   -1.6918    2.1477 H   0  0  0  0  0  0  0  0  0  0  0  0
    1.3099    0.0883    2.5835 H   0  0  0  0  0  0  0  0  0  0  0  0
   -1.2921    0.0541   -1.7246 H   0  0  0  0  0  0  0  0  0  0  0  0
   -2.3817    2.4026   -0.0721 H   0  0  0  0  0  0  0  0  0  0  0  0
   -2.2207    2.1789   -1.8214 H   0  0  0  0  0  0  0  0  0  0  0  0
   -4.2923    1.3089   -1.9820 H   0  0  0  0  0  0  0  0  0  0  0  0
   -4.4597    1.4808   -0.2041 H   0  0  0  0  0  0  0  0  0  0  0  0
   -3.6101   -0.9309   -1.8838 H   0  0  0  0  0  0  0  0  0  0  0  0
   -5.4627   -0.2219   -0.0068 H   0  0  0  0  0  0  0  0  0  0  0  0
  2  1  1  1
  2  3  1  0
  3  4  1  0
  4  5  1  0
  5  6  1  0
  6  7  1  0
  7  8  2  0
  8  9  1  0
  9 10  1  0
 10 11  1  0
 10 12  1  0
 12 13  1  0
 13 14  1  0
 14 15  1  1
  6 16  1  0
 16 17  1  0
 17 18  1  0
 18 19  1  0
 19 20  1  0
 16  2  1  0
 19  2  1  0
 14  5  1  0
 14  8  1  0
  1 21  1  0
  1 22  1  0
  1 23  1  0
  3 24  1  0
  3 25  1  0
  4 26  1  0
  4 27  1  0
  5 28  1  6
  6 29  1  1
  7 30  1  0
  9 31  1  0
  9 32  1  0
 10 33  1  6
 11 34  1  0
 12 35  1  0
 12 36  1  0
 13 37  1  0
 13 38  1  0
 15 39  1  0
 15 40  1  0
 15 41  1  0
 16 42  1  6
 17 43  1  0
 17 44  1  0
 18 45  1  0
 18 46  1  0
 19 47  1  6
 20 48  1  0
M  END
$$$$
[H]Oc1c([H])c(-c2sc([H])c([H])c2[H])nc2c([H])c(OC([H])([H])[H])c(-c3oc([H])nc3[H])c([H])c12
     RDKit          3D

 35 38  0  0  0  0  0  0  0  0999 V2000
   -3.1826    2.6285   -1.3295 C   0  0  0  0  0  0  0  0  0  0  0  0
   -3.2146    1.4400   -0.6072 O   0  0  0  0  0  0  0  0  0  0  0  0
   -2.1417    0.6860   -0.2375 C   0  0  0  0  0  0  0  0  0  0  0  0
   -0.8450    1.0570   -0.5673 C   0  0  0  0  0  0  0  0  0  0  0  0
    0.2779    0.3364   -0.2220 C   0  0  0  0  0  0  0  0  0  0  0  0
    1.5051    0.7840   -0.5925 N   0  0  0  0  0  0  0  0  0  0  0  0
    2.6055    0.0966   -0.2655 C   0  0  0  0  0  0  0  0  0  0  0  0
    2.4578   -1.0561    0.4446 C   0  0  0  0  0  0  0  0  0  0  0  0
    1.2306   -1.5564    0.8470 C   0  0  0  0  0  0  0  0  0  0  0  0
    1.1302   -2.7213    1.5606 O   0  0  0  0  0  0  0  0  0  0  0  0
    0.0959   -0.8350    0.5021 C   0  0  0  0  0  0  0  0  0  0  0  0
   -1.1560   -1.2258    0.8403 C   0  0  0  0  0  0  0  0  0  0  0  0
   -2.2873   -0.4729    0.4761 C   0  0  0  0  0  0  0  0  0  0  0  0
   -3.5937   -0.9678    0.8817 C   0  0  0  0  0  0  0  0  0  0  0  0
   -4.8166   -0.4478    0.6659 C   0  0  0  0  0  0  0  0  0  0  0  0
   -5.7146   -1.2863    1.2465 N   0  0  0  0  0  0  0  0  0  0  0  0
   -5.0273   -2.2845    1.7952 C   0  0  0  0  0  0  0  0  0  0  0  0
   -3.7715   -2.0815    1.5705 O   0  0  0  0  0  0  0  0  0  0  0  0
    3.9427    0.5840   -0.6690 C   0  0  0  0  0  0  0  0  0  0  0  0
    5.1438   -0.0036   -0.4105 C   0  0  0  0  0  0  0  0  0  0  0  0
    6.2458    0.6162   -0.8752 C   0  0  0  0  0  0  0  0  0  0  0  0
    6.0605    1.7853   -1.5682 C   0  0  0  0  0  0  0  0  0  0  0  0
    4.3663    1.9757   -1.5461 S   0  0  0  0  0  0  0  0  0  0  0  0
   -4.1695    2.7078   -1.8723 H   0  0  0  0  0  0  0  0  0  0  0  0
   -2.4209    2.6335   -2.1519 H   0  0  0  0  0  0  0  0  0  0  0  0
   -3.1186    3.5162   -0.6893 H   0  0  0  0  0  0  0  0  0  0  0  0
   -0.7520    1.9763   -1.1315 H   0  0  0  0  0  0  0  0  0  0  0  0
    3.3616   -1.6110    0.7073 H   0  0  0  0  0  0  0  0  0  0  0  0
    0.3067   -3.1329    1.8766 H   0  0  0  0  0  0  0  0  0  0  0  0
   -1.2906   -2.1279    1.3975 H   0  0  0  0  0  0  0  0  0  0  0  0
   -5.1190    0.4282    0.1599 H   0  0  0  0  0  0  0  0  0  0  0  0
   -5.4318   -3.1244    2.3367 H   0  0  0  0  0  0  0  0  0  0  0  0
    5.1988   -0.9599    0.1641 H   0  0  0  0  0  0  0  0  0  0  0  0
    7.2791    0.2176   -0.7176 H   0  0  0  0  0  0  0  0  0  0  0  0
    6.8451    2.4256   -2.0195 H   0  0  0  0  0  0  0  0  0  0  0  0
  1  2  1  0
  2  3  1  0
  3  4  2  0
  4  5  1  0
  5  6  2  0
  6  7  1  0
  7  8  2  0
  8  9  1  0
  9 10  1  0
  9 11  2  0
 11 12  1  0
 12 13  2  0
 13 14  1  0
 14 15  2  0
 15 16  1  0
 16 17  2  0
 17 18  1  0
  7 19  1  0
 19 20  2  0
 20 21  1  0
 21 22  2  0
 22 23  1  0
 13  3  1  0
 18 14  1  0
 23 19  1  0
 11  5  1  0
  1 24  1  0
  1 25  1  0
  1 26  1  0
  4 27  1  0
  8 28  1  0
 10 29  1  0
 12 30  1  0
 15 31  1  0
 17 32  1  0
 20 33  1  0
 21 34  1  0
 22 35  1  0
M  END
$$$$
[H]C1=C(C(=O)[O-])N2C(=O)/C(=C(\[H])c3c([H])n(C([H])([H])c4c([H])c([H])c([H])c([H])c4[H])c4c([H])c([H])c([H])c([H])c34)[C@@]2([H])S1
     RDKit          3D

 43 47  0  0  0  0  0  0  0  0999 V2000
    7.2047    3.4705   -1.1571 O   0  0  0  0  0  0  0  0  0  0  0  0
    6.6611    2.4734   -0.3765 C   0  0  0  0  0  0  0  0  0  0  0  0
    7.3789    1.9446    0.5034 O   0  0  0  0  0  0  0  0  0  0  0  0
    5.2690    2.0727   -0.6059 C   0  0  0  0  0  0  0  0  0  0  0  0
    4.5302    2.6394   -1.5335 C   0  0  0  0  0  0  0  0  0  0  0  0
    2.9325    1.8390   -1.4491 S   0  0  0  0  0  0  0  0  0  0  0  0
    3.5675    0.3730   -0.5416 C   0  0  1  0  0  0  0  0  0  0  0  0
    4.6390    1.0722    0.1583 N   0  0  0  0  0  0  0  0  0  0  0  0
    4.3717    0.2486    1.2840 C   0  0  0  0  0  0  0  0  0  0  0  0
    4.9593   -0.1646    2.3105 O   0  0  0  0  0  0  0  0  0  0  0  0
    3.0087    0.0458    0.7308 C   0  0  0  0  0  0  0  0  0  0  0  0
    1.8964   -0.3202    1.3196 C   0  0  0  0  0  0  0  0  0  0  0  0
    0.6765   -0.5188    0.5891 C   0  0  0  0  0  0  0  0  0  0  0  0
   -0.0845    0.2371   -0.2482 C   0  0  0  0  0  0  0  0  0  0  0  0
   -1.1497   -0.4819   -0.7108 N   0  0  0  0  0  0  0  0  0  0  0  0
   -2.1335    0.0336   -1.6170 C   0  0  0  0  0  0  0  0  0  0  0  0
   -3.3153    0.6292   -0.9482 C   0  0  0  0  0  0  0  0  0  0  0  0
   -4.4686   -0.0995   -0.7573 C   0  0  0  0  0  0  0  0  0  0  0  0
   -5.5780    0.4410   -0.1261 C   0  0  0  0  0  0  0  0  0  0  0  0
   -5.5513    1.7405    0.3326 C   0  0  0  0  0  0  0  0  0  0  0  0
   -4.4087    2.4865    0.1524 C   0  0  0  0  0  0  0  0  0  0  0  0
   -3.3164    1.9196   -0.4822 C   0  0  0  0  0  0  0  0  0  0  0  0
   -1.1120   -1.7106   -0.1929 C   0  0  0  0  0  0  0  0  0  0  0  0
   -1.9500   -2.7976   -0.3458 C   0  0  0  0  0  0  0  0  0  0  0  0
   -1.6785   -3.9724    0.3191 C   0  0  0  0  0  0  0  0  0  0  0  0
   -0.5527   -4.0379    1.1387 C   0  0  0  0  0  0  0  0  0  0  0  0
    0.2740   -2.9454    1.2809 C   0  0  0  0  0  0  0  0  0  0  0  0
    0.0131   -1.7638    0.6213 C   0  0  0  0  0  0  0  0  0  0  0  0
    4.7625    3.4207   -2.2323 H   0  0  0  0  0  0  0  0  0  0  0  0
    3.9121   -0.4385   -1.2088 H   0  0  0  0  0  0  0  0  0  0  0  0
    1.9227   -0.4734    2.4259 H   0  0  0  0  0  0  0  0  0  0  0  0
    0.0970    1.2604   -0.5067 H   0  0  0  0  0  0  0  0  0  0  0  0
   -1.6134    0.7806   -2.2860 H   0  0  0  0  0  0  0  0  0  0  0  0
   -2.4514   -0.7775   -2.3346 H   0  0  0  0  0  0  0  0  0  0  0  0
   -4.5652   -1.1257   -1.0919 H   0  0  0  0  0  0  0  0  0  0  0  0
   -6.4991   -0.1264    0.0303 H   0  0  0  0  0  0  0  0  0  0  0  0
   -6.4368    2.1563    0.8316 H   0  0  0  0  0  0  0  0  0  0  0  0
   -4.4323    3.5004    0.5289 H   0  0  0  0  0  0  0  0  0  0  0  0
   -2.4504    2.5398   -0.5998 H   0  0  0  0  0  0  0  0  0  0  0  0
   -2.8200   -2.7537   -0.9813 H   0  0  0  0  0  0  0  0  0  0  0  0
   -2.3364   -4.8483    0.2086 H   0  0  0  0  0  0  0  0  0  0  0  0
   -0.3128   -4.9507    1.6754 H   0  0  0  0  0  0  0  0  0  0  0  0
    1.1406   -3.0180    1.9197 H   0  0  0  0  0  0  0  0  0  0  0  0
  1  2  1  0
  2  3  2  0
  2  4  1  0
  4  5  2  0
  5  6  1  0
  6  7  1  0
  7  8  1  0
  8  9  1  0
  9 10  2  0
  9 11  1  0
 11 12  2  0
 12 13  1  0
 13 14  2  0
 14 15  1  0
 15 16  1  0
 16 17  1  0
 17 18  2  0
 18 19  1  0
 19 20  2  0
 20 21  1  0
 21 22  2  0
 15 23  1  0
 23 24  2  0
 24 25  1  0
 25 26  2  0
 26 27  1  0
 27 28  2  0
  8  4  1  0
 28 13  1  0
 11  7  1  0
 22 17  1  0
 28 23  1  0
  5 29  1  0
  7 30  1  6
 12 31  1  0
 14 32  1  0
 16 33  1  0
 16 34  1  0
 18 35  1  0
 19 36  1  0
 20 37  1  0
 21 38  1  0
 22 39  1  0
 24 40  1  0
 25 41  1  0
 26 42  1  0
 27 43  1  0
M  CHG  1   1  -1
M  END
$$$$
[H]O[C@]1([H])[C@@]([H])(C([H])([H])OP(=O)(O[H])OP(=O)(O[H])O[H])O[C@@]([H])(n2c([H])nc3c(N([H])[H])nc(N([H])[H])nc32)[C@]1([H])O[H]
     RDKit          3D

 44 46  0  0  0  0  0  0  0  0999 V2000
   -5.3714   -3.2221    1.0084 N   0  0  0  0  0  0  0  0  0  0  0  0
   -5.0397   -1.8445    0.8393 C   0  0  0  0  0  0  0  0  0  0  0  0
   -6.0074   -0.9202    0.9411 N   0  0  0  0  0  0  0  0  0  0  0  0
   -5.7586    0.3981    0.7916 C   0  0  0  0  0  0  0  0  0  0  0  0
   -6.7932    1.3332    0.9046 N   0  0  0  0  0  0  0  0  0  0  0  0
   -4.4832    0.8451    0.5256 C   0  0  0  0  0  0  0  0  0  0  0  0
   -3.9001    2.0385    0.3256 N   0  0  0  0  0  0  0  0  0  0  0  0
   -2.5797    1.8854    0.0989 C   0  0  0  0  0  0  0  0  0  0  0  0
   -2.3533    0.5692    0.1623 N   0  0  0  0  0  0  0  0  0  0  0  0
   -1.0694   -0.0596   -0.0201 C   0  0  2  0  0  0  0  0  0  0  0  0
   -0.0157    0.8679    0.1500 O   0  0  0  0  0  0  0  0  0  0  0  0
    1.0696    0.0689   -0.2139 C   0  0  2  0  0  0  0  0  0  0  0  0
    2.3442    0.8639   -0.3407 C   0  0  0  0  0  0  0  0  0  0  0  0
    3.3501   -0.0385   -0.7061 O   0  0  0  0  0  0  0  0  0  0  0  0
    4.8401    0.7427   -0.8799 P   0  0  0  0  0  0  0  0  0  0  0  0
    4.7456    2.2402   -0.1303 O   0  0  0  0  0  0  0  0  0  0  0  0
    5.1538    0.9557   -2.3560 O   0  0  0  0  0  0  0  0  0  0  0  0
    6.1009   -0.1726   -0.2397 O   0  0  0  0  0  0  0  0  0  0  0  0
    6.5192    0.2832    1.3152 P   0  0  0  0  0  0  0  0  0  0  0  0
    8.0347    1.0656    1.3512 O   0  0  0  0  0  0  0  0  0  0  0  0
    6.6951   -1.1312    2.2391 O   0  0  0  0  0  0  0  0  0  0  0  0
    5.4361    1.1624    1.8772 O   0  0  0  0  0  0  0  0  0  0  0  0
    0.6495   -0.4176   -1.5761 C   0  0  1  0  0  0  0  0  0  0  0  0
    1.2868   -1.6080   -1.8468 O   0  0  0  0  0  0  0  0  0  0  0  0
   -0.8566   -0.5913   -1.4074 C   0  0  1  0  0  0  0  0  0  0  0  0
   -1.1836   -1.9595   -1.4913 O   0  0  0  0  0  0  0  0  0  0  0  0
   -3.4887   -0.1050    0.4210 C   0  0  0  0  0  0  0  0  0  0  0  0
   -3.7927   -1.4202    0.5802 N   0  0  0  0  0  0  0  0  0  0  0  0
   -5.3366   -3.6842    1.9306 H   0  0  0  0  0  0  0  0  0  0  0  0
   -5.6611   -3.7961    0.1812 H   0  0  0  0  0  0  0  0  0  0  0  0
   -6.8224    2.0099    1.6881 H   0  0  0  0  0  0  0  0  0  0  0  0
   -7.5477    1.3593    0.1999 H   0  0  0  0  0  0  0  0  0  0  0  0
   -1.8657    2.6946   -0.0943 H   0  0  0  0  0  0  0  0  0  0  0  0
   -0.8914   -0.8627    0.6957 H   0  0  0  0  0  0  0  0  0  0  0  0
    1.1786   -0.7232    0.5274 H   0  0  0  0  0  0  0  0  0  0  0  0
    2.6145    1.2450    0.6660 H   0  0  0  0  0  0  0  0  0  0  0  0
    2.2563    1.6523   -1.1019 H   0  0  0  0  0  0  0  0  0  0  0  0
    5.2280    2.8977   -0.6695 H   0  0  0  0  0  0  0  0  0  0  0  0
    8.3069    1.3803    0.4662 H   0  0  0  0  0  0  0  0  0  0  0  0
    5.8503   -1.5173    2.5186 H   0  0  0  0  0  0  0  0  0  0  0  0
    0.8158    0.3691   -2.3127 H   0  0  0  0  0  0  0  0  0  0  0  0
    0.7968   -2.4081   -1.5837 H   0  0  0  0  0  0  0  0  0  0  0  0
   -1.4051   -0.0291   -2.1735 H   0  0  0  0  0  0  0  0  0  0  0  0
   -1.0494   -2.4171   -0.6236 H   0  0  0  0  0  0  0  0  0  0  0  0
  1  2  1  0
  2  3  2  0
  3  4  1  0
  4  5  1  0
  4  6  2  0
  6  7  1  0
  7  8  2  0
  8  9  1  0
  9 10  1  0
 10 11  1  0
 11 12  1  0
 12 13  1  0
 13 14  1  0
 14 15  1  0
 15 16  1  0
 15 17  2  0
 15 18  1  0
 18 19  1  0
 19 20  1  0
 19 21  1  0
 19 22  2  0
 12 23  1  0
 23 24  1  0
 23 25  1  0
 25 26  1  0
  9 27  1  0
 27 28  2  0
 28  2  1  0
 27  6  1  0
 25 10  1  0
  1 29  1  0
  1 30  1  0
  5 31  1  0
  5 32  1  0
  8 33  1  0
 10 34  1  1
 12 35  1  1
 13 36  1  0
 13 37  1  0
 16 38  1  0
 20 39  1  0
 21 40  1  0
 23 41  1  6
 24 42  1  0
 25 43  1  6
 26 44  1  0
M  END
$$$$
[H]c1nc(N([H])[H])c(C(=O)N([H])c2nc([H])c([H])c([H])c2N2C([H])([H])C([H])([H])C(N([H])[H])(C([H])([H])[H])C([H])([H])C2([H])[H])nc1-c1nc(N2C([H])([H])C([H])([H])OC([H])([H])C2([H])[H])nc([H])c1C(F)(F)F
     RDKit          3D

 69 73  0  0  0  0  0  0  0  0999 V2000
   -6.1325    2.1512   -0.3579 C   0  0  0  0  0  0  0  0  0  0  0  0
   -5.2681    1.3446    0.5498 C   0  0  0  0  0  0  0  0  0  0  0  0
   -5.7499    1.4539    1.9120 N   0  0  0  0  0  0  0  0  0  0  0  0
   -5.2285   -0.0770    0.0927 C   0  0  0  0  0  0  0  0  0  0  0  0
   -4.2944   -0.9668    0.8595 C   0  0  0  0  0  0  0  0  0  0  0  0
   -3.0361   -0.3475    1.1323 N   0  0  0  0  0  0  0  0  0  0  0  0
   -3.0021    1.0856    1.3498 C   0  0  0  0  0  0  0  0  0  0  0  0
   -3.8470    1.8726    0.3988 C   0  0  0  0  0  0  0  0  0  0  0  0
   -1.7789   -0.9994    1.2357 C   0  0  0  0  0  0  0  0  0  0  0  0
   -1.2712   -1.3297    2.5027 C   0  0  0  0  0  0  0  0  0  0  0  0
   -0.0718   -1.9754    2.6792 C   0  0  0  0  0  0  0  0  0  0  0  0
    0.6247   -2.2883    1.5334 C   0  0  0  0  0  0  0  0  0  0  0  0
    0.1701   -1.9877    0.3217 N   0  0  0  0  0  0  0  0  0  0  0  0
   -1.0283   -1.3454    0.1396 C   0  0  0  0  0  0  0  0  0  0  0  0
   -1.5578   -1.1458   -1.1512 N   0  0  0  0  0  0  0  0  0  0  0  0
   -0.9596   -1.3329   -2.4013 C   0  0  0  0  0  0  0  0  0  0  0  0
   -1.8355   -1.3237   -3.4123 O   0  0  0  0  0  0  0  0  0  0  0  0
    0.3776   -1.5352   -2.8463 C   0  0  0  0  0  0  0  0  0  0  0  0
    1.4277   -1.1781   -2.1430 N   0  0  0  0  0  0  0  0  0  0  0  0
    2.7321   -1.2339   -2.5613 C   0  0  0  0  0  0  0  0  0  0  0  0
    2.8922   -1.7078   -3.8105 C   0  0  0  0  0  0  0  0  0  0  0  0
    1.8162   -2.0898   -4.5760 N   0  0  0  0  0  0  0  0  0  0  0  0
    0.5695   -2.0243   -4.1546 C   0  0  0  0  0  0  0  0  0  0  0  0
   -0.5375   -2.4345   -4.9698 N   0  0  0  0  0  0  0  0  0  0  0  0
    3.7281   -0.6635   -1.6407 C   0  0  0  0  0  0  0  0  0  0  0  0
    3.2082   -0.1183   -0.4764 N   0  0  0  0  0  0  0  0  0  0  0  0
    3.9427    0.4043    0.4803 C   0  0  0  0  0  0  0  0  0  0  0  0
    5.3029    0.4371    0.3792 N   0  0  0  0  0  0  0  0  0  0  0  0
    5.8233   -0.0763   -0.7193 C   0  0  0  0  0  0  0  0  0  0  0  0
    5.0681   -0.6436   -1.7730 C   0  0  0  0  0  0  0  0  0  0  0  0
    5.8115   -1.0991   -2.9426 C   0  0  0  0  0  0  0  0  0  0  0  0
    5.6319   -0.3923   -4.0900 F   0  0  0  0  0  0  0  0  0  0  0  0
    5.8889   -2.4919   -3.0733 F   0  0  0  0  0  0  0  0  0  0  0  0
    7.1863   -0.8185   -2.6606 F   0  0  0  0  0  0  0  0  0  0  0  0
    3.4199    1.0189    1.6442 N   0  0  0  0  0  0  0  0  0  0  0  0
    4.3186    1.4497    2.7300 C   0  0  0  0  0  0  0  0  0  0  0  0
    3.4445    1.6061    3.9435 C   0  0  0  0  0  0  0  0  0  0  0  0
    2.4337    2.5307    3.7847 O   0  0  0  0  0  0  0  0  0  0  0  0
    1.9497    2.6629    2.5089 C   0  0  0  0  0  0  0  0  0  0  0  0
    2.0331    1.2893    1.8504 C   0  0  0  0  0  0  0  0  0  0  0  0
   -5.9398    1.8632   -1.4230 H   0  0  0  0  0  0  0  0  0  0  0  0
   -7.1873    2.0437   -0.0810 H   0  0  0  0  0  0  0  0  0  0  0  0
   -5.8519    3.2328   -0.2115 H   0  0  0  0  0  0  0  0  0  0  0  0
   -6.7483    1.8235    1.8839 H   0  0  0  0  0  0  0  0  0  0  0  0
   -5.1570    2.1444    2.4515 H   0  0  0  0  0  0  0  0  0  0  0  0
   -4.9206   -0.0468   -0.9964 H   0  0  0  0  0  0  0  0  0  0  0  0
   -6.2685   -0.4616    0.0726 H   0  0  0  0  0  0  0  0  0  0  0  0
   -4.8257   -1.2619    1.8075 H   0  0  0  0  0  0  0  0  0  0  0  0
   -4.2267   -1.9196    0.2916 H   0  0  0  0  0  0  0  0  0  0  0  0
   -3.2689    1.3001    2.4257 H   0  0  0  0  0  0  0  0  0  0  0  0
   -1.9588    1.4837    1.2552 H   0  0  0  0  0  0  0  0  0  0  0  0
   -3.5385    1.5790   -0.6280 H   0  0  0  0  0  0  0  0  0  0  0  0
   -3.7447    2.9313    0.6160 H   0  0  0  0  0  0  0  0  0  0  0  0
   -1.8981   -1.0384    3.3569 H   0  0  0  0  0  0  0  0  0  0  0  0
    0.2877   -2.2157    3.6615 H   0  0  0  0  0  0  0  0  0  0  0  0
    1.5902   -2.8063    1.6811 H   0  0  0  0  0  0  0  0  0  0  0  0
   -2.6304   -0.9822   -1.1784 H   0  0  0  0  0  0  0  0  0  0  0  0
    3.8289   -1.8176   -4.2527 H   0  0  0  0  0  0  0  0  0  0  0  0
   -0.8380   -1.8237   -5.7418 H   0  0  0  0  0  0  0  0  0  0  0  0
   -1.0452   -3.3267   -4.8096 H   0  0  0  0  0  0  0  0  0  0  0  0
    6.8943   -0.0700   -0.8322 H   0  0  0  0  0  0  0  0  0  0  0  0
    4.7442    2.4585    2.4701 H   0  0  0  0  0  0  0  0  0  0  0  0
    5.0745    0.6801    2.9098 H   0  0  0  0  0  0  0  0  0  0  0  0
    4.0273    1.8954    4.8465 H   0  0  0  0  0  0  0  0  0  0  0  0
    2.9752    0.6114    4.1565 H   0  0  0  0  0  0  0  0  0  0  0  0
    0.8717    2.9163    2.5708 H   0  0  0  0  0  0  0  0  0  0  0  0
    2.4753    3.3932    1.8945 H   0  0  0  0  0  0  0  0  0  0  0  0
    1.4106    1.2102    0.9424 H   0  0  0  0  0  0  0  0  0  0  0  0
    1.6658    0.5237    2.5730 H   0  0  0  0  0  0  0  0  0  0  0  0
  1  2  1  0
  2  3  1  0
  2  4  1  0
  4  5  1  0
  5  6  1  0
  6  7  1  0
  7  8  1  0
  6  9  1  0
  9 10  2  0
 10 11  1  0
 11 12  2  0
 12 13  1  0
 13 14  2  0
 14 15  1  0
 15 16  1  0
 16 17  2  0
 16 18  1  0
 18 19  2  0
 19 20  1  0
 20 21  2  0
 21 22  1  0
 22 23  2  0
 23 24  1  0
 20 25  1  0
 25 26  2  0
 26 27  1  0
 27 28  2  0
 28 29  1  0
 29 30  2  0
 30 31  1  0
 31 32  1  0
 31 33  1  0
 31 34  1  0
 27 35  1  0
 35 36  1  0
 36 37  1  0
 37 38  1  0
 38 39  1  0
 39 40  1  0
  8  2  1  0
 14  9  1  0
 23 18  1  0
 30 25  1  0
 40 35  1  0
  1 41  1  0
  1 42  1  0
  1 43  1  0
  3 44  1  0
  3 45  1  0
  4 46  1  0
  4 47  1  0
  5 48  1  0
  5 49  1  0
  7 50  1  0
  7 51  1  0
  8 52  1  0
  8 53  1  0
 10 54  1  0
 11 55  1  0
 12 56  1  0
 15 57  1  0
 21 58  1  0
 24 59  1  0
 24 60  1  0
 29 61  1  0
 36 62  1  0
 36 63  1  0
 37 64  1  0
 37 65  1  0
 39 66  1  0
 39 67  1  0
 40 68  1  0
 40 69  1  0
M  END
$$$$
[H]OC(=O)C([H])([H])C([H])([H])[C@@]([H])(C(=O)N([H])[C@]([H])(C(=O)N([H])[C@]([H])(C(=O)N([H])[C@]([H])(C(=O)N([H])[H])C([H])([H])c1c([H])n([H])c2c([H])c([H])c([H])c([H])c12)C([H])([H])c1c([H])c([H])c([H])c([H])c1[H])C([H])([H])C([H])([H])C(=O)O[H])N([H])[H]
     RDKit          3D

 80 82  0  0  0  0  0  0  0  0999 V2000
   -7.3149    1.0017    2.5456 N   0  0  0  0  0  0  0  0  0  0  0  0
   -6.5043    1.2274    1.3682 C   0  0  1  0  0  0  0  0  0  0  0  0
   -5.9022    2.6012    1.4320 C   0  0  0  0  0  0  0  0  0  0  0  0
   -5.0229    2.7753    2.6648 C   0  0  0  0  0  0  0  0  0  0  0  0
   -4.5055    4.1805    2.5752 C   0  0  0  0  0  0  0  0  0  0  0  0
   -4.9978    5.1555    3.4485 O   0  0  0  0  0  0  0  0  0  0  0  0
   -3.6346    4.5246    1.7403 O   0  0  0  0  0  0  0  0  0  0  0  0
   -5.5037    0.1393    1.2171 C   0  0  0  0  0  0  0  0  0  0  0  0
   -5.5403   -0.8336    1.9862 O   0  0  0  0  0  0  0  0  0  0  0  0
   -4.4956    0.1816    0.2073 N   0  0  0  0  0  0  0  0  0  0  0  0
   -3.5063   -0.8312   -0.0016 C   0  0  1  0  0  0  0  0  0  0  0  0
   -3.5487   -1.3192   -1.4082 C   0  0  0  0  0  0  0  0  0  0  0  0
   -4.9383   -1.8933   -1.6769 C   0  0  0  0  0  0  0  0  0  0  0  0
   -5.0168   -2.4047   -3.0748 C   0  0  0  0  0  0  0  0  0  0  0  0
   -3.9430   -2.3796   -3.9538 O   0  0  0  0  0  0  0  0  0  0  0  0
   -6.0803   -2.8903   -3.5195 O   0  0  0  0  0  0  0  0  0  0  0  0
   -2.1471   -0.3326    0.4099 C   0  0  0  0  0  0  0  0  0  0  0  0
   -2.0184    0.7940    0.9507 O   0  0  0  0  0  0  0  0  0  0  0  0
   -1.0042   -1.1446    0.1816 N   0  0  0  0  0  0  0  0  0  0  0  0
    0.3572   -0.7812    0.5381 C   0  0  1  0  0  0  0  0  0  0  0  0
    1.0720   -1.7619    1.3537 C   0  0  0  0  0  0  0  0  0  0  0  0
    1.2804   -3.0942    0.8596 C   0  0  0  0  0  0  0  0  0  0  0  0
    2.4107   -3.4503    0.1764 C   0  0  0  0  0  0  0  0  0  0  0  0
    2.6203   -4.7305   -0.3159 C   0  0  0  0  0  0  0  0  0  0  0  0
    1.6183   -5.6864   -0.0909 C   0  0  0  0  0  0  0  0  0  0  0  0
    0.4683   -5.3530    0.5964 C   0  0  0  0  0  0  0  0  0  0  0  0
    0.3214   -4.0574    1.0600 C   0  0  0  0  0  0  0  0  0  0  0  0
    1.0839   -0.1305   -0.5532 C   0  0  0  0  0  0  0  0  0  0  0  0
    0.3742    0.1097   -1.5998 O   0  0  0  0  0  0  0  0  0  0  0  0
    2.4212    0.2583   -0.6044 N   0  0  0  0  0  0  0  0  0  0  0  0
    3.0031    0.9352   -1.7618 C   0  0  1  0  0  0  0  0  0  0  0  0
    3.5981    2.2518   -1.3417 C   0  0  0  0  0  0  0  0  0  0  0  0
    4.6392    2.2054   -0.3378 C   0  0  0  0  0  0  0  0  0  0  0  0
    4.3635    2.3203    1.0361 C   0  0  0  0  0  0  0  0  0  0  0  0
    5.4871    2.1902    1.7466 N   0  0  0  0  0  0  0  0  0  0  0  0
    6.5036    1.9932    0.8826 C   0  0  0  0  0  0  0  0  0  0  0  0
    7.8398    1.8167    1.1135 C   0  0  0  0  0  0  0  0  0  0  0  0
    8.7082    1.6439    0.0644 C   0  0  0  0  0  0  0  0  0  0  0  0
    8.2104    1.6512   -1.2357 C   0  0  0  0  0  0  0  0  0  0  0  0
    6.8800    1.8272   -1.4679 C   0  0  0  0  0  0  0  0  0  0  0  0
    5.9944    2.0012   -0.4113 C   0  0  0  0  0  0  0  0  0  0  0  0
    3.8040    0.0445   -2.5705 C   0  0  0  0  0  0  0  0  0  0  0  0
    4.3359    0.3905   -3.8538 N   0  0  0  0  0  0  0  0  0  0  0  0
    4.0966   -1.1479   -2.1959 O   0  0  0  0  0  0  0  0  0  0  0  0
   -6.7862    0.6126    3.3338 H   0  0  0  0  0  0  0  0  0  0  0  0
   -8.1365    0.4125    2.3681 H   0  0  0  0  0  0  0  0  0  0  0  0
   -7.2335    1.2224    0.5111 H   0  0  0  0  0  0  0  0  0  0  0  0
   -6.7149    3.3400    1.4792 H   0  0  0  0  0  0  0  0  0  0  0  0
   -5.2767    2.8496    0.5682 H   0  0  0  0  0  0  0  0  0  0  0  0
   -5.6001    2.6933    3.5976 H   0  0  0  0  0  0  0  0  0  0  0  0
   -4.1510    2.1002    2.6383 H   0  0  0  0  0  0  0  0  0  0  0  0
   -5.7871    5.7021    3.0745 H   0  0  0  0  0  0  0  0  0  0  0  0
   -4.4607    1.0167   -0.4454 H   0  0  0  0  0  0  0  0  0  0  0  0
   -3.7530   -1.6744    0.7126 H   0  0  0  0  0  0  0  0  0  0  0  0
   -3.3407   -0.5650   -2.1655 H   0  0  0  0  0  0  0  0  0  0  0  0
   -2.8678   -2.2225   -1.4825 H   0  0  0  0  0  0  0  0  0  0  0  0
   -5.6991   -1.0820   -1.6046 H   0  0  0  0  0  0  0  0  0  0  0  0
   -5.2037   -2.7060   -0.9810 H   0  0  0  0  0  0  0  0  0  0  0  0
   -3.3162   -1.6030   -3.9273 H   0  0  0  0  0  0  0  0  0  0  0  0
   -1.2104   -2.0788   -0.2868 H   0  0  0  0  0  0  0  0  0  0  0  0
    0.1773    0.1124    1.2513 H   0  0  0  0  0  0  0  0  0  0  0  0
    2.0939   -1.3237    1.5844 H   0  0  0  0  0  0  0  0  0  0  0  0
    0.5986   -1.8309    2.3593 H   0  0  0  0  0  0  0  0  0  0  0  0
    3.1511   -2.6878    0.0310 H   0  0  0  0  0  0  0  0  0  0  0  0
    3.5172   -4.9971   -0.8566 H   0  0  0  0  0  0  0  0  0  0  0  0
    1.7500   -6.7046   -0.4592 H   0  0  0  0  0  0  0  0  0  0  0  0
   -0.3046   -6.0948    0.7624 H   0  0  0  0  0  0  0  0  0  0  0  0
   -0.6041   -3.8331    1.6006 H   0  0  0  0  0  0  0  0  0  0  0  0
    3.0517    0.0721    0.1963 H   0  0  0  0  0  0  0  0  0  0  0  0
    2.0934    1.2022   -2.4028 H   0  0  0  0  0  0  0  0  0  0  0  0
    2.7218    2.8973   -1.0466 H   0  0  0  0  0  0  0  0  0  0  0  0
    3.9796    2.7470   -2.2769 H   0  0  0  0  0  0  0  0  0  0  0  0
    3.3737    2.4902    1.4873 H   0  0  0  0  0  0  0  0  0  0  0  0
    5.6159    2.2263    2.7823 H   0  0  0  0  0  0  0  0  0  0  0  0
    8.2528    1.8065    2.1265 H   0  0  0  0  0  0  0  0  0  0  0  0
    9.7774    1.5003    0.1680 H   0  0  0  0  0  0  0  0  0  0  0  0
    8.8843    1.5175   -2.0915 H   0  0  0  0  0  0  0  0  0  0  0  0
    6.4560    1.8571   -2.4854 H   0  0  0  0  0  0  0  0  0  0  0  0
    5.1992   -0.0848   -4.2163 H   0  0  0  0  0  0  0  0  0  0  0  0
    3.8855    1.1126   -4.4537 H   0  0  0  0  0  0  0  0  0  0  0  0
  1  2  1  0
  2  3  1  0
  3  4  1  0
  4  5  1  0
  5  6  1  0
  5  7  2  0
  2  8  1  0
  8  9  2  0
  8 10  1  0
 10 11  1  0
 11 12  1  0
 12 13  1  0
 13 14  1  0
 14 15  1  0
 14 16  2  0
 11 17  1  0
 17 18  2  0
 17 19  1  0
 19 20  1  0
 20 21  1  0
 21 22  1  0
 22 23  2  0
 23 24  1  0
 24 25  2  0
 25 26  1  0
 26 27  2  0
 20 28  1  0
 28 29  2  0
 28 30  1  0
 30 31  1  0
 31 32  1  0
 32 33  1  0
 33 34  2  0
 34 35  1  0
 35 36  1  0
 36 37  2  0
 37 38  1  0
 38 39  2  0
 39 40  1  0
 40 41  2  0
 31 42  1  0
 42 43  1  0
 42 44  2  0
 27 22  1  0
 41 33  1  0
 41 36  1  0
  1 45  1  0
  1 46  1  0
  2 47  1  6
  3 48  1  0
  3 49  1  0
  4 50  1  0
  4 51  1  0
  6 52  1  0
 10 53  1  0
 11 54  1  1
 12 55  1  0
 12 56  1  0
 13 57  1  0
 13 58  1  0
 15 59  1  0
 19 60  1  0
 20 61  1  1
 21 62  1  0
 21 63  1  0
 23 64  1  0
 24 65  1  0
 25 66  1  0
 26 67  1  0
 27 68  1  0
 30 69  1  0
 31 70  1  6
 32 71  1  0
 32 72  1  0
 34 73  1  0
 35 74  1  0
 37 75  1  0
 38 76  1  0
 39 77  1  0
 40 78  1  0
 43 79  1  0
 43 80  1  0
M  END
$$$$
[H]ON([H])C(=O)C([H])([H])[C@]([H])(C(=O)N([H])[C@]([H])(C(=O)N1C([H])([H])C([H])([H])C([H])([H])C([H])([H])C1([H])[H])C([H])([H])c1c([H])n([H])c2c([H])c([H])c([H])c([H])c12)C([H])([H])C([H])(C([H])([H])[H])C([H])([H])[H]
     RDKit          3D

 66 68  0  0  0  0  0  0  0  0999 V2000
    5.1110   -2.7240    1.8702 C   0  0  0  0  0  0  0  0  0  0  0  0
    3.8955   -2.5832    0.9105 C   0  0  0  0  0  0  0  0  0  0  0  0
    2.7614   -2.1989    1.8140 C   0  0  0  0  0  0  0  0  0  0  0  0
    4.2175   -1.6079   -0.1652 C   0  0  0  0  0  0  0  0  0  0  0  0
    3.2289   -1.3248   -1.2111 C   0  0  2  0  0  0  0  0  0  0  0  0
    3.6988   -0.3616   -2.2713 C   0  0  0  0  0  0  0  0  0  0  0  0
    4.1164    0.9629   -1.9037 C   0  0  0  0  0  0  0  0  0  0  0  0
    4.2113    1.3687   -0.7201 O   0  0  0  0  0  0  0  0  0  0  0  0
    4.4688    1.9551   -2.9021 N   0  0  0  0  0  0  0  0  0  0  0  0
    4.8561    3.1848   -2.5618 O   0  0  0  0  0  0  0  0  0  0  0  0
    1.8173   -1.1210   -0.8819 C   0  0  0  0  0  0  0  0  0  0  0  0
    1.0074   -2.0550   -1.3293 O   0  0  0  0  0  0  0  0  0  0  0  0
    1.2100   -0.0810   -0.1726 N   0  0  0  0  0  0  0  0  0  0  0  0
   -0.2730    0.0008    0.0505 C   0  0  1  0  0  0  0  0  0  0  0  0
   -0.5134    0.0198    1.4613 C   0  0  0  0  0  0  0  0  0  0  0  0
   -1.8349    0.0266    2.0675 C   0  0  0  0  0  0  0  0  0  0  0  0
   -2.4142    0.9629    2.8750 C   0  0  0  0  0  0  0  0  0  0  0  0
   -3.6078    0.5407    3.3022 N   0  0  0  0  0  0  0  0  0  0  0  0
   -3.8806   -0.6624    2.8181 C   0  0  0  0  0  0  0  0  0  0  0  0
   -4.9663   -1.4965    2.9734 C   0  0  0  0  0  0  0  0  0  0  0  0
   -4.9792   -2.7225    2.3398 C   0  0  0  0  0  0  0  0  0  0  0  0
   -3.8937   -3.0987    1.5522 C   0  0  0  0  0  0  0  0  0  0  0  0
   -2.8213   -2.2380    1.4179 C   0  0  0  0  0  0  0  0  0  0  0  0
   -2.7758   -1.0106    2.0342 C   0  0  0  0  0  0  0  0  0  0  0  0
   -0.7499    0.8539   -0.9968 C   0  0  0  0  0  0  0  0  0  0  0  0
   -0.2054    0.4126   -2.1837 O   0  0  0  0  0  0  0  0  0  0  0  0
   -1.5374    1.9349   -1.2472 N   0  0  0  0  0  0  0  0  0  0  0  0
   -1.7938    2.3196   -2.6737 C   0  0  0  0  0  0  0  0  0  0  0  0
   -3.1075    3.0462   -2.7492 C   0  0  0  0  0  0  0  0  0  0  0  0
   -4.1141    2.4539   -1.8037 C   0  0  0  0  0  0  0  0  0  0  0  0
   -3.6652    2.6641   -0.3673 C   0  0  0  0  0  0  0  0  0  0  0  0
   -2.1369    2.8518   -0.3389 C   0  0  0  0  0  0  0  0  0  0  0  0
    5.5438   -1.7413    2.0857 H   0  0  0  0  0  0  0  0  0  0  0  0
    4.7842   -3.1779    2.8241 H   0  0  0  0  0  0  0  0  0  0  0  0
    5.8836   -3.3093    1.3315 H   0  0  0  0  0  0  0  0  0  0  0  0
    3.6703   -3.5930    0.4991 H   0  0  0  0  0  0  0  0  0  0  0  0
    2.8973   -2.8068    2.7697 H   0  0  0  0  0  0  0  0  0  0  0  0
    2.7705   -1.1649    2.1538 H   0  0  0  0  0  0  0  0  0  0  0  0
    1.7992   -2.5608    1.3990 H   0  0  0  0  0  0  0  0  0  0  0  0
    4.6299   -0.6856    0.3599 H   0  0  0  0  0  0  0  0  0  0  0  0
    5.1834   -2.0140   -0.6356 H   0  0  0  0  0  0  0  0  0  0  0  0
    3.2123   -2.3265   -1.8314 H   0  0  0  0  0  0  0  0  0  0  0  0
    2.8603   -0.2910   -3.0094 H   0  0  0  0  0  0  0  0  0  0  0  0
    4.5368   -0.8167   -2.8851 H   0  0  0  0  0  0  0  0  0  0  0  0
    4.4105    1.6791   -3.8915 H   0  0  0  0  0  0  0  0  0  0  0  0
    5.6186    3.4993   -3.1344 H   0  0  0  0  0  0  0  0  0  0  0  0
    1.7362    0.6825    0.2479 H   0  0  0  0  0  0  0  0  0  0  0  0
   -0.5647   -1.0848   -0.3408 H   0  0  0  0  0  0  0  0  0  0  0  0
    0.1441    0.8340    1.9239 H   0  0  0  0  0  0  0  0  0  0  0  0
    0.0148   -0.9105    1.9022 H   0  0  0  0  0  0  0  0  0  0  0  0
   -2.0019    1.9394    3.1645 H   0  0  0  0  0  0  0  0  0  0  0  0
   -4.2702    1.0686    3.9399 H   0  0  0  0  0  0  0  0  0  0  0  0
   -5.8279   -1.2441    3.5747 H   0  0  0  0  0  0  0  0  0  0  0  0
   -5.8330   -3.3719    2.4652 H   0  0  0  0  0  0  0  0  0  0  0  0
   -3.9425   -4.0630    1.0751 H   0  0  0  0  0  0  0  0  0  0  0  0
   -2.0000   -2.5642    0.8046 H   0  0  0  0  0  0  0  0  0  0  0  0
   -1.9683    1.3238   -3.1677 H   0  0  0  0  0  0  0  0  0  0  0  0
   -0.9433    2.8411   -3.0947 H   0  0  0  0  0  0  0  0  0  0  0  0
   -3.4560    2.9840   -3.8100 H   0  0  0  0  0  0  0  0  0  0  0  0
   -2.9623    4.1316   -2.5369 H   0  0  0  0  0  0  0  0  0  0  0  0
   -4.2075    1.3790   -1.9909 H   0  0  0  0  0  0  0  0  0  0  0  0
   -5.1006    2.9252   -2.0081 H   0  0  0  0  0  0  0  0  0  0  0  0
   -3.9831    1.8183    0.2463 H   0  0  0  0  0  0  0  0  0  0  0  0
   -4.1267    3.5978   -0.0249 H   0  0  0  0  0  0  0  0  0  0  0  0
   -1.8100    2.8263    0.6835 H   0  0  0  0  0  0  0  0  0  0  0  0
   -2.0275    3.9231   -0.7513 H   0  0  0  0  0  0  0  0  0  0  0  0
  1  2  1  0
  2  3  1  0
  2  4  1  0
  4  5  1  0
  5  6  1  0
  6  7  1  0
  7  8  2  0
  7  9  1  0
  9 10  1  0
  5 11  1  0
 11 12  2  0
 11 13  1  0
 13 14  1  0
 14 15  1  0
 15 16  1  0
 16 17  2  0
 17 18  1  0
 18 19  1  0
 19 20  2  0
 20 21  1  0
 21 22  2  0
 22 23  1  0
 23 24  2  0
 14 25  1  0
 25 26  2  0
 25 27  1  0
 27 28  1  0
 28 29  1  0
 29 30  1  0
 30 31  1  0
 31 32  1  0
 24 16  1  0
 32 27  1  0
 24 19  1  0
  1 33  1  0
  1 34  1  0
  1 35  1  0
  2 36  1  0
  3 37  1  0
  3 38  1  0
  3 39  1  0
  4 40  1  0
  4 41  1  0
  5 42  1  6
  6 43  1  0
  6 44  1  0
  9 45  1  0
 10 46  1  0
 13 47  1  0
 14 48  1  6
 15 49  1  0
 15 50  1  0
 17 51  1  0
 18 52  1  0
 20 53  1  0
 21 54  1  0
 22 55  1  0
 23 56  1  0
 28 57  1  0
 28 58  1  0
 29 59  1  0
 29 60  1  0
 30 61  1  0
 30 62  1  0
 31 63  1  0
 31 64  1  0
 32 65  1  0
 32 66  1  0
M  END
$$$$
[H]C#Cc1c([H])c([H])c([H])c(N([H])c2nc3c([H])c(C(=O)O[H])c([H])c([H])c3c3c([H])nc([H])c([H])c23)c1[H]
     RDKit          3D

 39 42  0  0  0  0  0  0  0  0999 V2000
    5.8436   -2.4642    1.5030 O   0  0  0  0  0  0  0  0  0  0  0  0
    4.4830   -2.4650    1.3416 C   0  0  0  0  0  0  0  0  0  0  0  0
    3.8531   -3.5054    1.6613 O   0  0  0  0  0  0  0  0  0  0  0  0
    3.7739   -1.3124    0.8201 C   0  0  0  0  0  0  0  0  0  0  0  0
    4.5091   -0.1760    0.4765 C   0  0  0  0  0  0  0  0  0  0  0  0
    3.8551    0.9277   -0.0199 C   0  0  0  0  0  0  0  0  0  0  0  0
    2.4877    0.9131   -0.1769 C   0  0  0  0  0  0  0  0  0  0  0  0
    1.7571   -0.2324    0.1707 C   0  0  0  0  0  0  0  0  0  0  0  0
    2.4161   -1.3444    0.6708 C   0  0  0  0  0  0  0  0  0  0  0  0
    0.4394   -0.2451    0.0190 N   0  0  0  0  0  0  0  0  0  0  0  0
   -0.3168    0.7586   -0.4514 C   0  0  0  0  0  0  0  0  0  0  0  0
   -1.7024    0.6746   -0.5538 N   0  0  0  0  0  0  0  0  0  0  0  0
   -2.5397   -0.4369   -0.2586 C   0  0  0  0  0  0  0  0  0  0  0  0
   -2.1226   -1.7305   -0.2125 C   0  0  0  0  0  0  0  0  0  0  0  0
   -3.0315   -2.7603    0.1181 C   0  0  0  0  0  0  0  0  0  0  0  0
   -4.3479   -2.4724    0.3967 C   0  0  0  0  0  0  0  0  0  0  0  0
   -4.7924   -1.1673    0.3550 C   0  0  0  0  0  0  0  0  0  0  0  0
   -3.8872   -0.2095    0.0338 C   0  0  0  0  0  0  0  0  0  0  0  0
   -6.1760   -0.8903    0.6503 C   0  0  0  0  0  0  0  0  0  0  0  0
   -7.3343   -0.6399    0.8924 C   0  0  0  0  0  0  0  0  0  0  0  0
    0.3564    1.9279   -0.8153 C   0  0  0  0  0  0  0  0  0  0  0  0
   -0.3006    3.0319   -1.3144 C   0  0  0  0  0  0  0  0  0  0  0  0
    0.3960    4.1605   -1.6616 C   0  0  0  0  0  0  0  0  0  0  0  0
    1.7163    4.2058   -1.5216 N   0  0  0  0  0  0  0  0  0  0  0  0
    2.4006    3.1323   -1.0310 C   0  0  0  0  0  0  0  0  0  0  0  0
    1.7503    1.9765   -0.6680 C   0  0  0  0  0  0  0  0  0  0  0  0
    6.3643   -3.0423    2.1207 H   0  0  0  0  0  0  0  0  0  0  0  0
    5.5862   -0.2048    0.6155 H   0  0  0  0  0  0  0  0  0  0  0  0
    4.4258    1.7862   -0.2776 H   0  0  0  0  0  0  0  0  0  0  0  0
    1.8357   -2.2409    0.9419 H   0  0  0  0  0  0  0  0  0  0  0  0
   -2.2233    1.5489   -0.8978 H   0  0  0  0  0  0  0  0  0  0  0  0
   -1.1046   -2.0167   -0.4381 H   0  0  0  0  0  0  0  0  0  0  0  0
   -2.6706   -3.7939    0.1490 H   0  0  0  0  0  0  0  0  0  0  0  0
   -4.9976   -3.3018    0.6435 H   0  0  0  0  0  0  0  0  0  0  0  0
   -4.2270    0.8113    0.0003 H   0  0  0  0  0  0  0  0  0  0  0  0
   -8.3586   -0.4046    1.1098 H   0  0  0  0  0  0  0  0  0  0  0  0
   -1.3965    3.0205   -1.4432 H   0  0  0  0  0  0  0  0  0  0  0  0
   -0.1837    4.9941   -2.0484 H   0  0  0  0  0  0  0  0  0  0  0  0
    3.4637    3.1873   -0.9254 H   0  0  0  0  0  0  0  0  0  0  0  0
  1  2  1  0
  2  3  2  0
  2  4  1  0
  4  5  2  0
  5  6  1  0
  6  7  2  0
  7  8  1  0
  8  9  2  0
  8 10  1  0
 10 11  2  0
 11 12  1  0
 12 13  1  0
 13 14  2  0
 14 15  1  0
 15 16  2  0
 16 17  1  0
 17 18  2  0
 17 19  1  0
 19 20  3  0
 11 21  1  0
 21 22  2  0
 22 23  1  0
 23 24  2  0
 24 25  1  0
 25 26  2  0
  9  4  1  0
 18 13  1  0
 26 21  1  0
 26  7  1  0
  1 27  1  0
  5 28  1  0
  6 29  1  0
  9 30  1  0
 12 31  1  0
 14 32  1  0
 15 33  1  0
 16 34  1  0
 18 35  1  0
 20 36  1  0
 22 37  1  0
 23 38  1  0
 25 39  1  0
M  END
$$$$
[H]Oc1c([H])c([H])c(C(=O)/C([H])=C(\[H])c2c([H])c([H])c(O[H])c(O[H])c2[H])c([H])c1[H]
     RDKit          3D

 31 32  0  0  0  0  0  0  0  0999 V2000
   -6.2261   -0.2927   -0.7213 O   0  0  0  0  0  0  0  0  0  0  0  0
   -4.8301   -0.2509   -0.5186 C   0  0  0  0  0  0  0  0  0  0  0  0
   -3.9536   -0.2738   -1.5652 C   0  0  0  0  0  0  0  0  0  0  0  0
   -2.6072   -0.2336   -1.3734 C   0  0  0  0  0  0  0  0  0  0  0  0
   -2.0575   -0.1667   -0.0898 C   0  0  0  0  0  0  0  0  0  0  0  0
   -0.5949   -0.1256    0.0584 C   0  0  0  0  0  0  0  0  0  0  0  0
    0.0059   -0.0629    1.2024 C   0  0  0  0  0  0  0  0  0  0  0  0
    1.3839   -0.0114    1.5218 C   0  0  0  0  0  0  0  0  0  0  0  0
    1.6353   -0.0315    2.8047 O   0  0  0  0  0  0  0  0  0  0  0  0
    2.5473    0.0557    0.7006 C   0  0  0  0  0  0  0  0  0  0  0  0
    3.8125   -0.2436    1.2722 C   0  0  0  0  0  0  0  0  0  0  0  0
    4.9825   -0.1488    0.5890 C   0  0  0  0  0  0  0  0  0  0  0  0
    4.9766    0.2532   -0.7201 C   0  0  0  0  0  0  0  0  0  0  0  0
    6.1754    0.3575   -1.4473 O   0  0  0  0  0  0  0  0  0  0  0  0
    3.8012    0.5581   -1.3354 C   0  0  0  0  0  0  0  0  0  0  0  0
    2.6182    0.4529   -0.6106 C   0  0  0  0  0  0  0  0  0  0  0  0
   -2.9216   -0.1434    0.9580 C   0  0  0  0  0  0  0  0  0  0  0  0
   -4.3077   -0.1855    0.7447 C   0  0  0  0  0  0  0  0  0  0  0  0
   -5.1329   -0.1587    1.8555 O   0  0  0  0  0  0  0  0  0  0  0  0
   -6.8447   -0.2739    0.0792 H   0  0  0  0  0  0  0  0  0  0  0  0
   -4.3991   -0.3266   -2.5716 H   0  0  0  0  0  0  0  0  0  0  0  0
   -1.9140   -0.2514   -2.1966 H   0  0  0  0  0  0  0  0  0  0  0  0
    0.0080   -0.1894   -0.8254 H   0  0  0  0  0  0  0  0  0  0  0  0
   -0.7060   -0.0447    2.1007 H   0  0  0  0  0  0  0  0  0  0  0  0
    3.8288   -0.5716    2.3253 H   0  0  0  0  0  0  0  0  0  0  0  0
    5.9327   -0.3890    1.0686 H   0  0  0  0  0  0  0  0  0  0  0  0
    6.6314    1.2588   -1.4053 H   0  0  0  0  0  0  0  0  0  0  0  0
    3.7818    0.8819   -2.3852 H   0  0  0  0  0  0  0  0  0  0  0  0
    1.7226    0.7603   -1.1591 H   0  0  0  0  0  0  0  0  0  0  0  0
   -2.5591   -0.0918    1.9832 H   0  0  0  0  0  0  0  0  0  0  0  0
   -4.7894   -0.1111    2.7954 H   0  0  0  0  0  0  0  0  0  0  0  0
  1  2  1  0
  2  3  2  0
  3  4  1  0
  4  5  2  0
  5  6  1  0
  6  7  2  0
  7  8  1  0
  8  9  2  0
  8 10  1  0
 10 11  2  0
 11 12  1  0
 12 13  2  0
 13 14  1  0
 13 15  1  0
 15 16  2  0
  5 17  1  0
 17 18  2  0
 18 19  1  0
 18  2  1  0
 16 10  1  0
  1 20  1  0
  3 21  1  0
  4 22  1  0
  6 23  1  0
  7 24  1  0
 11 25  1  0
 12 26  1  0
 14 27  1  0
 15 28  1  0
 16 29  1  0
 17 30  1  0
 19 31  1  0
M  END
$$$$
[H]c1c([H])c(Cl)c(-c2c([H])c3c([H])nc(N([H])c4c([H])c([H])c(N5C([H])([H])C([H])([H])N(C([H])([H])[H])C([H])([H])C5([H])[H])c([H])c4[H])nc3n2C([H])([H])[H])c(Cl)c1[H]
     RDKit          3D

 56 60  0  0  0  0  0  0  0  0999 V2000
    7.4507    1.7500   -0.0002 C   0  0  0  0  0  0  0  0  0  0  0  0
    7.7559    0.3490   -0.1170 N   0  0  0  0  0  0  0  0  0  0  0  0
    7.4361   -0.2096   -1.3939 C   0  0  0  0  0  0  0  0  0  0  0  0
    5.9798   -0.5578   -1.5852 C   0  0  0  0  0  0  0  0  0  0  0  0
    5.4191   -0.9085   -0.2952 N   0  0  0  0  0  0  0  0  0  0  0  0
    6.3424   -1.5075    0.6357 C   0  0  0  0  0  0  0  0  0  0  0  0
    7.3403   -0.4336    1.0044 C   0  0  0  0  0  0  0  0  0  0  0  0
    4.0656   -0.6922    0.0445 C   0  0  0  0  0  0  0  0  0  0  0  0
    3.1540   -0.2792   -0.8958 C   0  0  0  0  0  0  0  0  0  0  0  0
    1.8375   -0.0567   -0.5869 C   0  0  0  0  0  0  0  0  0  0  0  0
    1.3436   -0.2324    0.6815 C   0  0  0  0  0  0  0  0  0  0  0  0
    0.0175   -0.0568    1.0891 N   0  0  0  0  0  0  0  0  0  0  0  0
   -1.1478   -0.0062    0.2754 C   0  0  0  0  0  0  0  0  0  0  0  0
   -1.1749   -0.1318   -1.0506 N   0  0  0  0  0  0  0  0  0  0  0  0
   -2.2588   -0.0866   -1.8248 C   0  0  0  0  0  0  0  0  0  0  0  0
   -3.4983    0.1102   -1.2139 C   0  0  0  0  0  0  0  0  0  0  0  0
   -4.7802    0.2128   -1.6359 C   0  0  0  0  0  0  0  0  0  0  0  0
   -5.6031    0.4140   -0.5058 C   0  0  0  0  0  0  0  0  0  0  0  0
   -7.0712    0.4425   -0.5807 C   0  0  0  0  0  0  0  0  0  0  0  0
   -7.8478    1.3104    0.1290 C   0  0  0  0  0  0  0  0  0  0  0  0
   -7.1935    2.7307    0.9646 Cl  0  0  0  0  0  0  0  0  0  0  0  0
   -9.2486    1.1940    0.1413 C   0  0  0  0  0  0  0  0  0  0  0  0
   -9.8294    0.1833   -0.5845 C   0  0  0  0  0  0  0  0  0  0  0  0
   -9.0401   -0.6844   -1.2994 C   0  0  0  0  0  0  0  0  0  0  0  0
   -7.6682   -0.5882   -1.3216 C   0  0  0  0  0  0  0  0  0  0  0  0
   -6.7029   -1.7262   -2.1991 Cl  0  0  0  0  0  0  0  0  0  0  0  0
   -4.7871    0.4223    0.5453 N   0  0  0  0  0  0  0  0  0  0  0  0
   -5.1169    0.5084    1.9661 C   0  0  0  0  0  0  0  0  0  0  0  0
   -3.4790    0.2402    0.1483 C   0  0  0  0  0  0  0  0  0  0  0  0
   -2.3606    0.1872    0.8815 N   0  0  0  0  0  0  0  0  0  0  0  0
    2.2674   -0.6537    1.6491 C   0  0  0  0  0  0  0  0  0  0  0  0
    3.5669   -0.8670    1.3176 C   0  0  0  0  0  0  0  0  0  0  0  0
    6.5356    1.9411    0.6012 H   0  0  0  0  0  0  0  0  0  0  0  0
    8.2884    2.2310    0.5480 H   0  0  0  0  0  0  0  0  0  0  0  0
    7.3958    2.2230   -0.9894 H   0  0  0  0  0  0  0  0  0  0  0  0
    7.6834    0.5532   -2.1658 H   0  0  0  0  0  0  0  0  0  0  0  0
    8.0741   -1.0854   -1.6091 H   0  0  0  0  0  0  0  0  0  0  0  0
    5.8914   -1.4554   -2.2307 H   0  0  0  0  0  0  0  0  0  0  0  0
    5.4357    0.2599   -2.0965 H   0  0  0  0  0  0  0  0  0  0  0  0
    5.9110   -2.0403    1.4727 H   0  0  0  0  0  0  0  0  0  0  0  0
    6.8959   -2.2991    0.0393 H   0  0  0  0  0  0  0  0  0  0  0  0
    6.9176    0.2356    1.7809 H   0  0  0  0  0  0  0  0  0  0  0  0
    8.2237   -0.9332    1.4494 H   0  0  0  0  0  0  0  0  0  0  0  0
    3.4530   -0.1167   -1.9211 H   0  0  0  0  0  0  0  0  0  0  0  0
    1.1624    0.2872   -1.3836 H   0  0  0  0  0  0  0  0  0  0  0  0
   -0.1389    0.0593    2.1465 H   0  0  0  0  0  0  0  0  0  0  0  0
   -2.2475   -0.1916   -2.8940 H   0  0  0  0  0  0  0  0  0  0  0  0
   -5.0789    0.1671   -2.6640 H   0  0  0  0  0  0  0  0  0  0  0  0
   -9.8545    1.8914    0.7146 H   0  0  0  0  0  0  0  0  0  0  0  0
  -10.9243    0.0746   -0.5890 H   0  0  0  0  0  0  0  0  0  0  0  0
   -9.5368   -1.4764   -1.8674 H   0  0  0  0  0  0  0  0  0  0  0  0
   -4.8289    1.4591    2.4081 H   0  0  0  0  0  0  0  0  0  0  0  0
   -4.4763   -0.3143    2.4586 H   0  0  0  0  0  0  0  0  0  0  0  0
   -6.1382    0.1563    2.1709 H   0  0  0  0  0  0  0  0  0  0  0  0
    1.9503   -0.8137    2.6737 H   0  0  0  0  0  0  0  0  0  0  0  0
    4.2375   -1.1893    2.1108 H   0  0  0  0  0  0  0  0  0  0  0  0
  1  2  1  0
  2  3  1  0
  3  4  1  0
  4  5  1  0
  5  6  1  0
  6  7  1  0
  5  8  1  0
  8  9  2  0
  9 10  1  0
 10 11  2  0
 11 12  1  0
 12 13  1  0
 13 14  2  0
 14 15  1  0
 15 16  2  0
 16 17  1  0
 17 18  2  0
 18 19  1  0
 19 20  2  0
 20 21  1  0
 20 22  1  0
 22 23  2  0
 23 24  1  0
 24 25  2  0
 25 26  1  0
 18 27  1  0
 27 28  1  0
 27 29  1  0
 29 30  2  0
 11 31  1  0
 31 32  2  0
  7  2  1  0
 32  8  1  0
 30 13  1  0
 29 16  1  0
 25 19  1  0
  1 33  1  0
  1 34  1  0
  1 35  1  0
  3 36  1  0
  3 37  1  0
  4 38  1  0
  4 39  1  0
  6 40  1  0
  6 41  1  0
  7 42  1  0
  7 43  1  0
  9 44  1  0
 10 45  1  0
 12 46  1  0
 15 47  1  0
 17 48  1  0
 22 49  1  0
 23 50  1  0
 24 51  1  0
 28 52  1  0
 28 53  1  0
 28 54  1  0
 31 55  1  0
 32 56  1  0
M  END
$$$$
