[H]c1nc(Cl)c([H])c([H])c1N1C([H])([H])C([H])([H])[C@@]([H])(OC([H])([H])C([H])([H])N([H])C(=O)c2c([H])c(Cl)nc(Cl)c2[H])[C@@]([H])(OC([H])([H])[H])C1([H])[H]
     RDKit          3D

 50 52  0  0  0  0  0  0  0  0999 V2000
   -0.6697    3.0327    0.9331 C   0  0  0  0  0  0  0  0  0  0  0  0
   -1.1088    1.9659    0.1711 O   0  0  0  0  0  0  0  0  0  0  0  0
   -1.6216    0.9170    0.9259 C   0  0  1  0  0  0  0  0  0  0  0  0
   -3.0878    0.7433    0.7220 C   0  0  0  0  0  0  0  0  0  0  0  0
   -3.5117   -0.4573    0.0902 N   0  0  0  0  0  0  0  0  0  0  0  0
   -2.7197   -1.6635   -0.0016 C   0  0  0  0  0  0  0  0  0  0  0  0
   -1.6994   -1.5663    1.1107 C   0  0  0  0  0  0  0  0  0  0  0  0
   -0.8025   -0.3457    0.8301 C   0  0  1  0  0  0  0  0  0  0  0  0
   -0.3166   -0.4519   -0.4324 O   0  0  0  0  0  0  0  0  0  0  0  0
    1.0063   -0.6548   -0.5973 C   0  0  0  0  0  0  0  0  0  0  0  0
    1.9551    0.3549   -0.0649 C   0  0  0  0  0  0  0  0  0  0  0  0
    3.3127   -0.0999   -0.3712 N   0  0  0  0  0  0  0  0  0  0  0  0
    4.4515    0.6557    0.0119 C   0  0  0  0  0  0  0  0  0  0  0  0
    4.2313    1.7411    0.6301 O   0  0  0  0  0  0  0  0  0  0  0  0
    5.8111    0.2520   -0.2648 C   0  0  0  0  0  0  0  0  0  0  0  0
    6.1200   -0.9262   -0.9005 C   0  0  0  0  0  0  0  0  0  0  0  0
    7.4639   -1.2053   -1.1110 C   0  0  0  0  0  0  0  0  0  0  0  0
    7.9243   -2.6896   -1.9148 Cl  0  0  0  0  0  0  0  0  0  0  0  0
    8.4481   -0.3744   -0.7193 N   0  0  0  0  0  0  0  0  0  0  0  0
    8.1667    0.7846   -0.0949 C   0  0  0  0  0  0  0  0  0  0  0  0
    9.4529    1.8723    0.4184 Cl  0  0  0  0  0  0  0  0  0  0  0  0
    6.8475    1.0815    0.1237 C   0  0  0  0  0  0  0  0  0  0  0  0
   -4.8278   -0.4908   -0.5001 C   0  0  0  0  0  0  0  0  0  0  0  0
   -5.6871    0.5559   -0.3333 C   0  0  0  0  0  0  0  0  0  0  0  0
   -6.9073    0.5181   -0.8896 N   0  0  0  0  0  0  0  0  0  0  0  0
   -7.3340   -0.5267   -1.6208 C   0  0  0  0  0  0  0  0  0  0  0  0
   -8.9383   -0.4797   -2.3020 Cl  0  0  0  0  0  0  0  0  0  0  0  0
   -6.4784   -1.5903   -1.7980 C   0  0  0  0  0  0  0  0  0  0  0  0
   -5.2304   -1.5766   -1.2421 C   0  0  0  0  0  0  0  0  0  0  0  0
   -1.4507    3.4921    1.5572 H   0  0  0  0  0  0  0  0  0  0  0  0
    0.1538    2.7197    1.6080 H   0  0  0  0  0  0  0  0  0  0  0  0
   -0.2983    3.8301    0.2573 H   0  0  0  0  0  0  0  0  0  0  0  0
   -1.5121    1.2589    2.0011 H   0  0  0  0  0  0  0  0  0  0  0  0
   -3.6953    0.8656    1.6542 H   0  0  0  0  0  0  0  0  0  0  0  0
   -3.4218    1.5933    0.0549 H   0  0  0  0  0  0  0  0  0  0  0  0
   -3.3679   -2.5411    0.2421 H   0  0  0  0  0  0  0  0  0  0  0  0
   -2.1859   -1.7750   -0.9539 H   0  0  0  0  0  0  0  0  0  0  0  0
   -2.2130   -1.3776    2.0724 H   0  0  0  0  0  0  0  0  0  0  0  0
   -1.0879   -2.4672    1.2195 H   0  0  0  0  0  0  0  0  0  0  0  0
   -0.0363   -0.4179    1.6315 H   0  0  0  0  0  0  0  0  0  0  0  0
    1.1913   -0.7007   -1.7150 H   0  0  0  0  0  0  0  0  0  0  0  0
    1.2499   -1.6977   -0.2622 H   0  0  0  0  0  0  0  0  0  0  0  0
    1.9066    0.5218    1.0182 H   0  0  0  0  0  0  0  0  0  0  0  0
    1.8677    1.3470   -0.5518 H   0  0  0  0  0  0  0  0  0  0  0  0
    3.4773   -0.9942   -0.8809 H   0  0  0  0  0  0  0  0  0  0  0  0
    5.3575   -1.6137   -1.2267 H   0  0  0  0  0  0  0  0  0  0  0  0
    6.6111    2.0119    0.6255 H   0  0  0  0  0  0  0  0  0  0  0  0
   -5.4275    1.4414    0.2430 H   0  0  0  0  0  0  0  0  0  0  0  0
   -6.8051   -2.4467   -2.3880 H   0  0  0  0  0  0  0  0  0  0  0  0
   -4.5634   -2.4260   -1.3928 H   0  0  0  0  0  0  0  0  0  0  0  0
  1  2  1  0
  2  3  1  0
  3  4  1  0
  4  5  1  0
  5  6  1  0
  6  7  1  0
  7  8  1  0
  8  9  1  0
  9 10  1  0
 10 11  1  0
 11 12  1  0
 12 13  1  0
 13 14  2  0
 13 15  1  0
 15 16  2  0
 16 17  1  0
 17 18  1  0
 17 19  2  0
 19 20  1  0
 20 21  1  0
 20 22  2  0
  5 23  1  0
 23 24  2  0
 24 25  1  0
 25 26  2  0
 26 27  1  0
 26 28  1  0
 28 29  2  0
  8  3  1  0
 22 15  1  0
 29 23  1  0
  1 30  1  0
  1 31  1  0
  1 32  1  0
  3 33  1  1
  4 34  1  0
  4 35  1  0
  6 36  1  0
  6 37  1  0
  7 38  1  0
  7 39  1  0
  8 40  1  1
 10 41  1  0
 10 42  1  0
 11 43  1  0
 11 44  1  0
 12 45  1  0
 16 46  1  0
 22 47  1  0
 24 48  1  0
 28 49  1  0
 29 50  1  0
M  END
$$$$
[H]c1nc(C([H])([H])N2C(=O)[C@]([H])(C(=O)N([H])C3([H])C([H])([H])C([H])([H])N(C(=O)c4c([H])c(OC([H])([H])[H])c(OC([H])([H])[H])c(OC([H])([H])[H])c4[H])C([H])([H])C3([H])[H])C([H])([H])C([H])([H])C2([H])[H])c([H])c([H])c1[H]
     RDKit          3D

 71 74  0  0  0  0  0  0  0  0999 V2000
   -7.7085   -3.3678    2.3558 C   0  0  0  0  0  0  0  0  0  0  0  0
   -8.1367   -2.2210    1.6050 O   0  0  0  0  0  0  0  0  0  0  0  0
   -7.1909   -1.3647    1.0478 C   0  0  0  0  0  0  0  0  0  0  0  0
   -5.8473   -1.5766    1.1987 C   0  0  0  0  0  0  0  0  0  0  0  0
   -4.8522   -0.7410    0.6517 C   0  0  0  0  0  0  0  0  0  0  0  0
   -5.3156    0.3298   -0.0607 C   0  0  0  0  0  0  0  0  0  0  0  0
   -6.6807    0.5787   -0.2342 C   0  0  0  0  0  0  0  0  0  0  0  0
   -7.0416    1.6904   -0.9723 O   0  0  0  0  0  0  0  0  0  0  0  0
   -6.0796    2.5516   -1.5401 C   0  0  0  0  0  0  0  0  0  0  0  0
   -7.6116   -0.2712    0.3214 C   0  0  0  0  0  0  0  0  0  0  0  0
   -8.9808   -0.0127    0.1416 O   0  0  0  0  0  0  0  0  0  0  0  0
   -9.5584   -0.6321   -1.0050 C   0  0  0  0  0  0  0  0  0  0  0  0
   -3.4723   -1.0485    0.8861 C   0  0  0  0  0  0  0  0  0  0  0  0
   -3.2876   -2.0950    1.6661 O   0  0  0  0  0  0  0  0  0  0  0  0
   -2.3195   -0.4427    0.4390 N   0  0  0  0  0  0  0  0  0  0  0  0
   -1.0385   -1.0467    0.9208 C   0  0  0  0  0  0  0  0  0  0  0  0
   -0.3168    0.1534    1.5694 C   0  0  0  0  0  0  0  0  0  0  0  0
    0.2060    1.0544    0.4698 C   0  0  0  0  0  0  0  0  0  0  0  0
   -0.6132    0.8291   -0.7923 C   0  0  0  0  0  0  0  0  0  0  0  0
   -2.0932    0.6738   -0.4331 C   0  0  0  0  0  0  0  0  0  0  0  0
    1.6043    0.7951    0.1858 N   0  0  0  0  0  0  0  0  0  0  0  0
    2.5896    1.8067    0.1639 C   0  0  0  0  0  0  0  0  0  0  0  0
    2.1416    2.9872    0.4140 O   0  0  0  0  0  0  0  0  0  0  0  0
    4.0141    1.6878   -0.0964 C   0  0  2  0  0  0  0  0  0  0  0  0
    4.3163    0.9848   -1.3909 C   0  0  0  0  0  0  0  0  0  0  0  0
    4.3833   -0.4911   -1.3522 C   0  0  0  0  0  0  0  0  0  0  0  0
    4.8299   -1.1404   -0.0982 C   0  0  0  0  0  0  0  0  0  0  0  0
    5.4420   -0.1942    0.7837 N   0  0  0  0  0  0  0  0  0  0  0  0
    6.6803   -0.5554    1.4646 C   0  0  0  0  0  0  0  0  0  0  0  0
    7.8745   -0.2175    0.6433 C   0  0  0  0  0  0  0  0  0  0  0  0
    8.4798    1.0236    0.6520 C   0  0  0  0  0  0  0  0  0  0  0  0
    9.5906    1.3024   -0.1100 C   0  0  0  0  0  0  0  0  0  0  0  0
   10.1553    0.3435   -0.9263 C   0  0  0  0  0  0  0  0  0  0  0  0
    9.5261   -0.8985   -0.9175 C   0  0  0  0  0  0  0  0  0  0  0  0
    8.4451   -1.1556   -0.1704 N   0  0  0  0  0  0  0  0  0  0  0  0
    4.8171    1.0581    0.9715 C   0  0  0  0  0  0  0  0  0  0  0  0
    4.9344    1.6680    2.0660 O   0  0  0  0  0  0  0  0  0  0  0  0
   -7.0746   -3.0907    3.2081 H   0  0  0  0  0  0  0  0  0  0  0  0
   -7.0378   -3.9186    1.6233 H   0  0  0  0  0  0  0  0  0  0  0  0
   -8.5386   -4.0345    2.5953 H   0  0  0  0  0  0  0  0  0  0  0  0
   -5.5733   -2.4577    1.7838 H   0  0  0  0  0  0  0  0  0  0  0  0
   -4.6482    1.0249   -0.5080 H   0  0  0  0  0  0  0  0  0  0  0  0
   -6.5301    3.4025   -2.0672 H   0  0  0  0  0  0  0  0  0  0  0  0
   -5.3915    2.9739   -0.7630 H   0  0  0  0  0  0  0  0  0  0  0  0
   -5.3927    1.9660   -2.2160 H   0  0  0  0  0  0  0  0  0  0  0  0
  -10.5932   -0.8941   -0.7488 H   0  0  0  0  0  0  0  0  0  0  0  0
   -8.9863   -1.5647   -1.2886 H   0  0  0  0  0  0  0  0  0  0  0  0
   -9.5324    0.0112   -1.8938 H   0  0  0  0  0  0  0  0  0  0  0  0
   -0.5364   -1.4068    0.0286 H   0  0  0  0  0  0  0  0  0  0  0  0
   -1.2207   -1.7925    1.6855 H   0  0  0  0  0  0  0  0  0  0  0  0
   -1.0977    0.6727    2.1668 H   0  0  0  0  0  0  0  0  0  0  0  0
    0.4596   -0.1812    2.2828 H   0  0  0  0  0  0  0  0  0  0  0  0
    0.0912    2.1102    0.7470 H   0  0  0  0  0  0  0  0  0  0  0  0
   -0.5405    1.7643   -1.3884 H   0  0  0  0  0  0  0  0  0  0  0  0
   -0.2735   -0.0009   -1.4062 H   0  0  0  0  0  0  0  0  0  0  0  0
   -2.5906    0.5900   -1.4284 H   0  0  0  0  0  0  0  0  0  0  0  0
   -2.4695    1.5957    0.0448 H   0  0  0  0  0  0  0  0  0  0  0  0
    1.9173   -0.1832   -0.0100 H   0  0  0  0  0  0  0  0  0  0  0  0
    4.4053    2.7532   -0.2676 H   0  0  0  0  0  0  0  0  0  0  0  0
    3.5490    1.2884   -2.1416 H   0  0  0  0  0  0  0  0  0  0  0  0
    5.3128    1.4048   -1.7606 H   0  0  0  0  0  0  0  0  0  0  0  0
    5.1418   -0.7942   -2.1440 H   0  0  0  0  0  0  0  0  0  0  0  0
    3.4035   -0.9201   -1.6710 H   0  0  0  0  0  0  0  0  0  0  0  0
    3.9236   -1.5229    0.4596 H   0  0  0  0  0  0  0  0  0  0  0  0
    5.4428   -2.0541   -0.2555 H   0  0  0  0  0  0  0  0  0  0  0  0
    6.7048   -0.0680    2.4649 H   0  0  0  0  0  0  0  0  0  0  0  0
    6.6697   -1.6489    1.6115 H   0  0  0  0  0  0  0  0  0  0  0  0
    8.0388    1.7948    1.2986 H   0  0  0  0  0  0  0  0  0  0  0  0
   10.0731    2.2809   -0.1096 H   0  0  0  0  0  0  0  0  0  0  0  0
   11.0254    0.5041   -1.5429 H   0  0  0  0  0  0  0  0  0  0  0  0
    9.9839   -1.6502   -1.5685 H   0  0  0  0  0  0  0  0  0  0  0  0
  1  2  1  0
  2  3  1  0
  3  4  2  0
  4  5  1  0
  5  6  2  0
  6  7  1  0
  7  8  1  0
  8  9  1  0
  7 10  2  0
 10 11  1  0
 11 12  1  0
  5 13  1  0
 13 14  2  0
 13 15  1  0
 15 16  1  0
 16 17  1  0
 17 18  1  0
 18 19  1  0
 19 20  1  0
 18 21  1  0
 21 22  1  0
 22 23  2  0
 22 24  1  0
 24 25  1  0
 25 26  1  0
 26 27  1  0
 27 28  1  0
 28 29  1  0
 29 30  1  0
 30 31  2  0
 31 32  1  0
 32 33  2  0
 33 34  1  0
 34 35  2  0
 28 36  1  0
 36 37  2  0
 10  3  1  0
 20 15  1  0
 36 24  1  0
 35 30  1  0
  1 38  1  0
  1 39  1  0
  1 40  1  0
  4 41  1  0
  6 42  1  0
  9 43  1  0
  9 44  1  0
  9 45  1  0
 12 46  1  0
 12 47  1  0
 12 48  1  0
 16 49  1  0
 16 50  1  0
 17 51  1  0
 17 52  1  0
 18 53  1  0
 19 54  1  0
 19 55  1  0
 20 56  1  0
 20 57  1  0
 21 58  1  0
 24 59  1  6
 25 60  1  0
 25 61  1  0
 26 62  1  0
 26 63  1  0
 27 64  1  0
 27 65  1  0
 29 66  1  0
 29 67  1  0
 31 68  1  0
 32 69  1  0
 33 70  1  0
 34 71  1  0
M  END
$$$$
[H]c1nc2c(c([H])c1C(=O)N([H])[C@]([H])(C(=O)N([H])[C@]1([H])C([H])([H])C([H])([H])[C@@]([H])(N3C([H])([H])C([H])([H])OC([H])([H])C3([H])[H])C([H])([H])C1([H])[H])C([H])([H])[H])c([H])c([H])n2[H]
     RDKit          3D

 58 61  0  0  0  0  0  0  0  0999 V2000
    2.3129    2.0890   -2.5004 C   0  0  0  0  0  0  0  0  0  0  0  0
    2.1226    2.0999   -1.0171 C   0  0  2  0  0  0  0  0  0  0  0  0
    3.2307    1.4854   -0.3441 N   0  0  0  0  0  0  0  0  0  0  0  0
    4.0053    2.0791    0.6571 C   0  0  0  0  0  0  0  0  0  0  0  0
    3.7005    3.2685    0.9983 O   0  0  0  0  0  0  0  0  0  0  0  0
    5.1176    1.4365    1.3205 C   0  0  0  0  0  0  0  0  0  0  0  0
    5.9409    2.1878    2.1490 C   0  0  0  0  0  0  0  0  0  0  0  0
    6.9858    1.6112    2.7835 N   0  0  0  0  0  0  0  0  0  0  0  0
    7.2445    0.3036    2.6218 C   0  0  0  0  0  0  0  0  0  0  0  0
    8.2214   -0.4468    3.1544 N   0  0  0  0  0  0  0  0  0  0  0  0
    8.0778   -1.7171    2.6988 C   0  0  0  0  0  0  0  0  0  0  0  0
    6.9878   -1.7465    1.8668 C   0  0  0  0  0  0  0  0  0  0  0  0
    6.4634   -0.4741    1.8181 C   0  0  0  0  0  0  0  0  0  0  0  0
    5.3834    0.0933    1.1555 C   0  0  0  0  0  0  0  0  0  0  0  0
    0.8695    1.3877   -0.6118 C   0  0  0  0  0  0  0  0  0  0  0  0
    0.8782    0.7971    0.4952 O   0  0  0  0  0  0  0  0  0  0  0  0
   -0.2948    1.3459   -1.4022 N   0  0  0  0  0  0  0  0  0  0  0  0
   -1.4745    0.6468   -0.9663 C   0  0  1  0  0  0  0  0  0  0  0  0
   -2.7599    1.3375   -1.3324 C   0  0  0  0  0  0  0  0  0  0  0  0
   -3.8573    0.5724   -0.6220 C   0  0  0  0  0  0  0  0  0  0  0  0
   -3.9118   -0.8065   -1.1583 C   0  0  1  0  0  0  0  0  0  0  0  0
   -2.6223   -1.5715   -1.1959 C   0  0  0  0  0  0  0  0  0  0  0  0
   -1.4269   -0.7571   -1.5574 C   0  0  0  0  0  0  0  0  0  0  0  0
   -4.8654   -1.5908   -0.4395 N   0  0  0  0  0  0  0  0  0  0  0  0
   -6.2261   -1.1945   -0.5202 C   0  0  0  0  0  0  0  0  0  0  0  0
   -7.0225   -2.2514    0.2690 C   0  0  0  0  0  0  0  0  0  0  0  0
   -6.8002   -2.0207    1.6138 O   0  0  0  0  0  0  0  0  0  0  0  0
   -5.5872   -1.3577    1.8317 C   0  0  0  0  0  0  0  0  0  0  0  0
   -4.4864   -1.8576    0.9236 C   0  0  0  0  0  0  0  0  0  0  0  0
    1.5853    2.7355   -3.0087 H   0  0  0  0  0  0  0  0  0  0  0  0
    3.3148    2.5271   -2.7286 H   0  0  0  0  0  0  0  0  0  0  0  0
    2.3368    1.0576   -2.9215 H   0  0  0  0  0  0  0  0  0  0  0  0
    1.9974    3.1728   -0.6997 H   0  0  0  0  0  0  0  0  0  0  0  0
    3.4791    0.4923   -0.6420 H   0  0  0  0  0  0  0  0  0  0  0  0
    5.7171    3.2507    2.2683 H   0  0  0  0  0  0  0  0  0  0  0  0
    8.9465   -0.0911    3.7977 H   0  0  0  0  0  0  0  0  0  0  0  0
    8.7328   -2.5366    2.9717 H   0  0  0  0  0  0  0  0  0  0  0  0
    6.5980   -2.6120    1.3354 H   0  0  0  0  0  0  0  0  0  0  0  0
    4.7773   -0.5251    0.5282 H   0  0  0  0  0  0  0  0  0  0  0  0
   -0.3271    1.8219   -2.3297 H   0  0  0  0  0  0  0  0  0  0  0  0
   -1.4395    0.4953    0.1258 H   0  0  0  0  0  0  0  0  0  0  0  0
   -2.6945    2.4014   -0.9725 H   0  0  0  0  0  0  0  0  0  0  0  0
   -2.9107    1.3078   -2.4400 H   0  0  0  0  0  0  0  0  0  0  0  0
   -4.8174    1.0737   -0.8281 H   0  0  0  0  0  0  0  0  0  0  0  0
   -3.5858    0.6098    0.4640 H   0  0  0  0  0  0  0  0  0  0  0  0
   -4.2941   -0.7228   -2.2230 H   0  0  0  0  0  0  0  0  0  0  0  0
   -2.4782   -2.1191   -0.2442 H   0  0  0  0  0  0  0  0  0  0  0  0
   -2.7357   -2.3470   -1.9867 H   0  0  0  0  0  0  0  0  0  0  0  0
   -0.5111   -1.2293   -1.1703 H   0  0  0  0  0  0  0  0  0  0  0  0
   -1.2951   -0.6301   -2.6491 H   0  0  0  0  0  0  0  0  0  0  0  0
   -6.4624   -0.2248   -0.0483 H   0  0  0  0  0  0  0  0  0  0  0  0
   -6.6315   -1.2170   -1.5589 H   0  0  0  0  0  0  0  0  0  0  0  0
   -6.5208   -3.2243    0.0231 H   0  0  0  0  0  0  0  0  0  0  0  0
   -8.0673   -2.2996   -0.0366 H   0  0  0  0  0  0  0  0  0  0  0  0
   -5.6946   -0.2622    1.8221 H   0  0  0  0  0  0  0  0  0  0  0  0
   -5.2930   -1.6363    2.8779 H   0  0  0  0  0  0  0  0  0  0  0  0
   -3.5813   -1.2798    1.2307 H   0  0  0  0  0  0  0  0  0  0  0  0
   -4.3520   -2.9380    1.0457 H   0  0  0  0  0  0  0  0  0  0  0  0
  1  2  1  0
  2  3  1  0
  3  4  1  0
  4  5  2  0
  4  6  1  0
  6  7  2  0
  7  8  1  0
  8  9  2  0
  9 10  1  0
 10 11  1  0
 11 12  2  0
 12 13  1  0
 13 14  2  0
  2 15  1  0
 15 16  2  0
 15 17  1  0
 17 18  1  0
 18 19  1  0
 19 20  1  0
 20 21  1  0
 21 22  1  0
 22 23  1  0
 21 24  1  0
 24 25  1  0
 25 26  1  0
 26 27  1  0
 27 28  1  0
 28 29  1  0
 14  6  1  0
 23 18  1  0
 29 24  1  0
 13  9  1  0
  1 30  1  0
  1 31  1  0
  1 32  1  0
  2 33  1  1
  3 34  1  0
  7 35  1  0
 10 36  1  0
 11 37  1  0
 12 38  1  0
 14 39  1  0
 17 40  1  0
 18 41  1  1
 19 42  1  0
 19 43  1  0
 20 44  1  0
 20 45  1  0
 21 46  1  6
 22 47  1  0
 22 48  1  0
 23 49  1  0
 23 50  1  0
 25 51  1  0
 25 52  1  0
 26 53  1  0
 26 54  1  0
 28 55  1  0
 28 56  1  0
 29 57  1  0
 29 58  1  0
M  END
$$$$
[H]OC(=O)C1([H])C([H])([H])C([H])([H])N(c2nc([H])c([H])nc2Oc2c([H])c([H])c(N([H])c3nc([H])c([H])c([H])c3[H])c([H])c2[H])C([H])([H])C1([H])[H]
     RDKit          3D

 50 53  0  0  0  0  0  0  0  0999 V2000
    7.1206    2.6214    0.5805 O   0  0  0  0  0  0  0  0  0  0  0  0
    6.7753    1.3087    0.8687 C   0  0  0  0  0  0  0  0  0  0  0  0
    7.5673    0.6714    1.6107 O   0  0  0  0  0  0  0  0  0  0  0  0
    5.5325    0.7111    0.3187 C   0  0  0  0  0  0  0  0  0  0  0  0
    4.3041    1.4770    0.7728 C   0  0  0  0  0  0  0  0  0  0  0  0
    3.0790    0.8442    0.1916 C   0  0  0  0  0  0  0  0  0  0  0  0
    3.2712   -0.5037   -0.2591 N   0  0  0  0  0  0  0  0  0  0  0  0
    4.2256   -1.4193    0.3275 C   0  0  0  0  0  0  0  0  0  0  0  0
    5.4118   -0.6900    0.9199 C   0  0  0  0  0  0  0  0  0  0  0  0
    2.4883   -0.9770   -1.3407 C   0  0  0  0  0  0  0  0  0  0  0  0
    3.0089   -1.4050   -2.5112 N   0  0  0  0  0  0  0  0  0  0  0  0
    2.2715   -1.8538   -3.5411 C   0  0  0  0  0  0  0  0  0  0  0  0
    0.9057   -1.8791   -3.3954 C   0  0  0  0  0  0  0  0  0  0  0  0
    0.3665   -1.4585   -2.2411 N   0  0  0  0  0  0  0  0  0  0  0  0
    1.1206   -1.0052   -1.2022 C   0  0  0  0  0  0  0  0  0  0  0  0
    0.5715   -0.5698   -0.0078 O   0  0  0  0  0  0  0  0  0  0  0  0
   -0.8090   -0.6064    0.1113 C   0  0  0  0  0  0  0  0  0  0  0  0
   -1.4684   -1.7126    0.6005 C   0  0  0  0  0  0  0  0  0  0  0  0
   -2.8316   -1.7660    0.7254 C   0  0  0  0  0  0  0  0  0  0  0  0
   -3.6433   -0.6681    0.3514 C   0  0  0  0  0  0  0  0  0  0  0  0
   -5.0510   -0.8086    0.4903 N   0  0  0  0  0  0  0  0  0  0  0  0
   -5.9739    0.2545    0.5160 C   0  0  0  0  0  0  0  0  0  0  0  0
   -7.3399   -0.0685    0.6192 C   0  0  0  0  0  0  0  0  0  0  0  0
   -8.3097    0.8924    0.6701 C   0  0  0  0  0  0  0  0  0  0  0  0
   -7.9565    2.2079    0.6202 C   0  0  0  0  0  0  0  0  0  0  0  0
   -6.5979    2.5282    0.5175 C   0  0  0  0  0  0  0  0  0  0  0  0
   -5.7057    1.5475    0.4725 N   0  0  0  0  0  0  0  0  0  0  0  0
   -2.9890    0.4166   -0.1296 C   0  0  0  0  0  0  0  0  0  0  0  0
   -1.5950    0.4597   -0.2524 C   0  0  0  0  0  0  0  0  0  0  0  0
    6.5068    3.2696    0.1066 H   0  0  0  0  0  0  0  0  0  0  0  0
    5.6211    0.6762   -0.7741 H   0  0  0  0  0  0  0  0  0  0  0  0
    4.3568    2.5269    0.4647 H   0  0  0  0  0  0  0  0  0  0  0  0
    4.2930    1.3800    1.8901 H   0  0  0  0  0  0  0  0  0  0  0  0
    2.3009    0.8515    0.9944 H   0  0  0  0  0  0  0  0  0  0  0  0
    2.6699    1.5023   -0.6109 H   0  0  0  0  0  0  0  0  0  0  0  0
    3.6964   -1.9653    1.1364 H   0  0  0  0  0  0  0  0  0  0  0  0
    4.5179   -2.1508   -0.4234 H   0  0  0  0  0  0  0  0  0  0  0  0
    6.3068   -1.2880    0.7545 H   0  0  0  0  0  0  0  0  0  0  0  0
    5.2300   -0.5287    2.0072 H   0  0  0  0  0  0  0  0  0  0  0  0
    2.7323   -2.1920   -4.4736 H   0  0  0  0  0  0  0  0  0  0  0  0
    0.2795   -2.2429   -4.2261 H   0  0  0  0  0  0  0  0  0  0  0  0
   -0.8346   -2.5582    0.8878 H   0  0  0  0  0  0  0  0  0  0  0  0
   -3.3364   -2.6482    1.1139 H   0  0  0  0  0  0  0  0  0  0  0  0
   -5.4541   -1.7945    0.5827 H   0  0  0  0  0  0  0  0  0  0  0  0
   -7.6244   -1.1263    0.6589 H   0  0  0  0  0  0  0  0  0  0  0  0
   -9.3432    0.5510    0.7500 H   0  0  0  0  0  0  0  0  0  0  0  0
   -8.6815    2.9840    0.6571 H   0  0  0  0  0  0  0  0  0  0  0  0
   -6.3601    3.5813    0.4807 H   0  0  0  0  0  0  0  0  0  0  0  0
   -3.5244    1.2857   -0.4505 H   0  0  0  0  0  0  0  0  0  0  0  0
   -1.1022    1.3375   -0.6383 H   0  0  0  0  0  0  0  0  0  0  0  0
  1  2  1  0
  2  3  2  0
  2  4  1  0
  4  5  1  0
  5  6  1  0
  6  7  1  0
  7  8  1  0
  8  9  1  0
  7 10  1  0
 10 11  2  0
 11 12  1  0
 12 13  2  0
 13 14  1  0
 14 15  2  0
 15 16  1  0
 16 17  1  0
 17 18  2  0
 18 19  1  0
 19 20  2  0
 20 21  1  0
 21 22  1  0
 22 23  2  0
 23 24  1  0
 24 25  2  0
 25 26  1  0
 26 27  2  0
 20 28  1  0
 28 29  2  0
  9  4  1  0
 15 10  1  0
 29 17  1  0
 27 22  1  0
  1 30  1  0
  4 31  1  0
  5 32  1  0
  5 33  1  0
  6 34  1  0
  6 35  1  0
  8 36  1  0
  8 37  1  0
  9 38  1  0
  9 39  1  0
 12 40  1  0
 13 41  1  0
 18 42  1  0
 19 43  1  0
 21 44  1  0
 23 45  1  0
 24 46  1  0
 25 47  1  0
 26 48  1  0
 28 49  1  0
 29 50  1  0
M  END
$$$$
[H]N=C(N([H])[H])N([H])C([H])([H])C([H])([H])C([H])([H])[C@@]([H])(C([H])=O)N([H])C(=O)[C@@]1([H])N(C(=O)[C@@]([H])(N([H])C(=O)OC(C([H])([H])[H])(C([H])([H])[H])C([H])([H])[H])C([H])([H])C([H])([H])C(=O)O[H])C([H])([H])C([H])([H])C1([H])[H]
     RDKit          3D

 70 70  0  0  0  0  0  0  0  0999 V2000
   -8.4941    0.7645   -0.6658 C   0  0  0  0  0  0  0  0  0  0  0  0
   -7.3278    0.1974    0.1276 C   0  0  0  0  0  0  0  0  0  0  0  0
   -7.3514   -1.3033   -0.0365 C   0  0  0  0  0  0  0  0  0  0  0  0
   -7.5082    0.5280    1.5740 C   0  0  0  0  0  0  0  0  0  0  0  0
   -6.1051    0.6826   -0.3953 O   0  0  0  0  0  0  0  0  0  0  0  0
   -4.8812    0.3488    0.1089 C   0  0  0  0  0  0  0  0  0  0  0  0
   -4.8549   -0.4413    1.1007 O   0  0  0  0  0  0  0  0  0  0  0  0
   -3.6496    0.8350   -0.4137 N   0  0  0  0  0  0  0  0  0  0  0  0
   -2.3454    0.4702    0.1348 C   0  0  1  0  0  0  0  0  0  0  0  0
   -1.5440   -0.3542   -0.8110 C   0  0  0  0  0  0  0  0  0  0  0  0
   -2.3035   -1.6468   -1.1746 C   0  0  0  0  0  0  0  0  0  0  0  0
   -1.4921   -2.4512   -2.1171 C   0  0  0  0  0  0  0  0  0  0  0  0
   -1.9771   -3.6484   -2.5747 O   0  0  0  0  0  0  0  0  0  0  0  0
   -0.3604   -2.0168   -2.4847 O   0  0  0  0  0  0  0  0  0  0  0  0
   -1.6888    1.6287    0.7507 C   0  0  0  0  0  0  0  0  0  0  0  0
   -2.4835    2.4504    1.3966 O   0  0  0  0  0  0  0  0  0  0  0  0
   -0.3459    2.0122    0.7681 N   0  0  0  0  0  0  0  0  0  0  0  0
    0.1101    3.2118    1.5357 C   0  0  0  0  0  0  0  0  0  0  0  0
    0.9520    3.9274    0.5024 C   0  0  0  0  0  0  0  0  0  0  0  0
    1.5439    2.8181   -0.2967 C   0  0  0  0  0  0  0  0  0  0  0  0
    0.8726    1.5436    0.1773 C   0  0  1  0  0  0  0  0  0  0  0  0
    1.7074    0.7765    1.1386 C   0  0  0  0  0  0  0  0  0  0  0  0
    1.2788    0.5258    2.2906 O   0  0  0  0  0  0  0  0  0  0  0  0
    3.0044    0.3005    0.8063 N   0  0  0  0  0  0  0  0  0  0  0  0
    3.8327   -0.4450    1.7202 C   0  0  1  0  0  0  0  0  0  0  0  0
    4.1525   -1.8319    1.3065 C   0  0  0  0  0  0  0  0  0  0  0  0
    4.8628   -2.0438    0.0298 C   0  0  0  0  0  0  0  0  0  0  0  0
    6.2114   -1.4423   -0.1241 C   0  0  0  0  0  0  0  0  0  0  0  0
    6.7382   -1.7874   -1.4293 N   0  0  0  0  0  0  0  0  0  0  0  0
    8.0151   -1.3487   -1.8548 C   0  0  0  0  0  0  0  0  0  0  0  0
    8.4779   -0.0472   -1.4700 N   0  0  0  0  0  0  0  0  0  0  0  0
    8.8082   -2.0569   -2.5830 N   0  0  0  0  0  0  0  0  0  0  0  0
    5.0000    0.3360    2.1515 C   0  0  0  0  0  0  0  0  0  0  0  0
    5.1846    1.5038    1.7928 O   0  0  0  0  0  0  0  0  0  0  0  0
   -9.3341    0.8884    0.0360 H   0  0  0  0  0  0  0  0  0  0  0  0
   -8.2610    1.7496   -1.1010 H   0  0  0  0  0  0  0  0  0  0  0  0
   -8.8060    0.0244   -1.4411 H   0  0  0  0  0  0  0  0  0  0  0  0
   -7.5495   -1.7668    0.9425 H   0  0  0  0  0  0  0  0  0  0  0  0
   -8.1411   -1.6208   -0.7774 H   0  0  0  0  0  0  0  0  0  0  0  0
   -6.3654   -1.6617   -0.4138 H   0  0  0  0  0  0  0  0  0  0  0  0
   -8.5986    0.5890    1.7773 H   0  0  0  0  0  0  0  0  0  0  0  0
   -7.1210   -0.2869    2.2249 H   0  0  0  0  0  0  0  0  0  0  0  0
   -7.1018    1.5304    1.8496 H   0  0  0  0  0  0  0  0  0  0  0  0
   -3.7265    1.4888   -1.2387 H   0  0  0  0  0  0  0  0  0  0  0  0
   -2.6152   -0.2384    0.9885 H   0  0  0  0  0  0  0  0  0  0  0  0
   -0.6299   -0.7732   -0.2853 H   0  0  0  0  0  0  0  0  0  0  0  0
   -1.2666    0.1377   -1.7529 H   0  0  0  0  0  0  0  0  0  0  0  0
   -2.4612   -2.1702   -0.2045 H   0  0  0  0  0  0  0  0  0  0  0  0
   -3.2813   -1.3474   -1.5864 H   0  0  0  0  0  0  0  0  0  0  0  0
   -2.0519   -4.4554   -1.9632 H   0  0  0  0  0  0  0  0  0  0  0  0
    0.7094    2.8986    2.4115 H   0  0  0  0  0  0  0  0  0  0  0  0
   -0.7546    3.8216    1.8534 H   0  0  0  0  0  0  0  0  0  0  0  0
    0.2215    4.5408   -0.1041 H   0  0  0  0  0  0  0  0  0  0  0  0
    1.6859    4.5619    1.0145 H   0  0  0  0  0  0  0  0  0  0  0  0
    1.2726    2.9817   -1.3584 H   0  0  0  0  0  0  0  0  0  0  0  0
    2.6421    2.7610   -0.2602 H   0  0  0  0  0  0  0  0  0  0  0  0
    0.7503    0.9419   -0.7507 H   0  0  0  0  0  0  0  0  0  0  0  0
    3.4019    0.4867   -0.1423 H   0  0  0  0  0  0  0  0  0  0  0  0
    3.1973   -0.5577    2.6643 H   0  0  0  0  0  0  0  0  0  0  0  0
    3.2434   -2.4825    1.3541 H   0  0  0  0  0  0  0  0  0  0  0  0
    4.8148   -2.2552    2.1263 H   0  0  0  0  0  0  0  0  0  0  0  0
    4.9913   -3.1630   -0.0987 H   0  0  0  0  0  0  0  0  0  0  0  0
    4.2730   -1.7542   -0.8711 H   0  0  0  0  0  0  0  0  0  0  0  0
    6.2232   -0.3244   -0.1021 H   0  0  0  0  0  0  0  0  0  0  0  0
    6.9465   -1.8235    0.6327 H   0  0  0  0  0  0  0  0  0  0  0  0
    6.1725   -2.3681   -2.0691 H   0  0  0  0  0  0  0  0  0  0  0  0
    8.2352    0.2481   -0.4818 H   0  0  0  0  0  0  0  0  0  0  0  0
    9.0120    0.5621   -2.1129 H   0  0  0  0  0  0  0  0  0  0  0  0
    8.5025   -3.0252   -2.8892 H   0  0  0  0  0  0  0  0  0  0  0  0
    5.7306   -0.1348    2.8136 H   0  0  0  0  0  0  0  0  0  0  0  0
  1  2  1  0
  2  3  1  0
  2  4  1  0
  2  5  1  0
  5  6  1  0
  6  7  2  0
  6  8  1  0
  8  9  1  0
  9 10  1  0
 10 11  1  0
 11 12  1  0
 12 13  1  0
 12 14  2  0
  9 15  1  0
 15 16  2  0
 15 17  1  0
 17 18  1  0
 18 19  1  0
 19 20  1  0
 20 21  1  0
 21 22  1  0
 22 23  2  0
 22 24  1  0
 24 25  1  0
 25 26  1  0
 26 27  1  0
 27 28  1  0
 28 29  1  0
 29 30  1  0
 30 31  1  0
 30 32  2  3
 25 33  1  0
 33 34  2  0
 21 17  1  0
  1 35  1  0
  1 36  1  0
  1 37  1  0
  3 38  1  0
  3 39  1  0
  3 40  1  0
  4 41  1  0
  4 42  1  0
  4 43  1  0
  8 44  1  0
  9 45  1  1
 10 46  1  0
 10 47  1  0
 11 48  1  0
 11 49  1  0
 13 50  1  0
 18 51  1  0
 18 52  1  0
 19 53  1  0
 19 54  1  0
 20 55  1  0
 20 56  1  0
 21 57  1  6
 24 58  1  0
 25 59  1  1
 26 60  1  0
 26 61  1  0
 27 62  1  0
 27 63  1  0
 28 64  1  0
 28 65  1  0
 29 66  1  0
 31 67  1  0
 31 68  1  0
 32 69  1  0
 33 70  1  0
M  END
$$$$
[H]O[C@@]1([H])[C@]([H])(O[H])[C@@]2([H])OC(=O)[C@@]3(O[H])[C@@]([H])(O[C@]([H])(OP(=O)(O[H])O[H])[C@@]([H])(O[H])[C@@]3([H])O[H])[C@]2([H])O[C@@]1([H])n1c([H])nc2c(N([H])[H])nc([H])nc21
     RDKit          3D

 55 59  0  0  0  0  0  0  0  0999 V2000
    2.2471    3.7796   -1.4614 O   0  0  0  0  0  0  0  0  0  0  0  0
    3.5353    2.8176   -1.9741 P   0  0  0  0  0  0  0  0  0  0  0  0
    4.0405    3.3784   -3.2791 O   0  0  0  0  0  0  0  0  0  0  0  0
    4.7479    2.9156   -0.8118 O   0  0  0  0  0  0  0  0  0  0  0  0
    3.0570    1.2228   -2.2458 O   0  0  0  0  0  0  0  0  0  0  0  0
    2.9948    0.4932   -1.0597 C   0  0  2  0  0  0  0  0  0  0  0  0
    4.0049   -0.6364   -1.1036 C   0  0  1  0  0  0  0  0  0  0  0  0
    5.2726   -0.1426   -1.2898 O   0  0  0  0  0  0  0  0  0  0  0  0
    3.9013   -1.4035    0.2212 C   0  0  1  0  0  0  0  0  0  0  0  0
    4.2494   -0.5464    1.2370 O   0  0  0  0  0  0  0  0  0  0  0  0
    2.4820   -1.8761    0.3284 C   0  0  1  0  0  0  0  0  0  0  0  0
    2.1898   -2.6698    1.5206 C   0  0  0  0  0  0  0  0  0  0  0  0
    3.0938   -3.3769    2.0297 O   0  0  0  0  0  0  0  0  0  0  0  0
    0.9447   -2.6755    2.1197 O   0  0  0  0  0  0  0  0  0  0  0  0
    0.0896   -1.5917    1.9190 C   0  0  2  0  0  0  0  0  0  0  0  0
   -1.3746   -1.9406    2.1957 C   0  0  1  0  0  0  0  0  0  0  0  0
   -1.5428   -2.4258    3.4797 O   0  0  0  0  0  0  0  0  0  0  0  0
   -2.0819   -0.5899    2.0677 C   0  0  2  0  0  0  0  0  0  0  0  0
   -3.4733   -0.7655    2.2478 O   0  0  0  0  0  0  0  0  0  0  0  0
   -1.7573    0.1283    0.8221 C   0  0  2  0  0  0  0  0  0  0  0  0
   -2.9791    0.1579   -0.0007 N   0  0  0  0  0  0  0  0  0  0  0  0
   -3.5437    1.2038   -0.6206 C   0  0  0  0  0  0  0  0  0  0  0  0
   -4.6826    0.7980   -1.2870 C   0  0  0  0  0  0  0  0  0  0  0  0
   -4.8006   -0.5107   -1.0620 N   0  0  0  0  0  0  0  0  0  0  0  0
   -3.7737   -0.9008   -0.2856 C   0  0  0  0  0  0  0  0  0  0  0  0
   -5.4707    1.6761   -2.0172 C   0  0  0  0  0  0  0  0  0  0  0  0
   -6.6405    1.2554   -2.7008 N   0  0  0  0  0  0  0  0  0  0  0  0
   -5.0564    2.9610   -2.0388 N   0  0  0  0  0  0  0  0  0  0  0  0
   -3.9424    3.3723   -1.3903 C   0  0  0  0  0  0  0  0  0  0  0  0
   -3.1882    2.5079   -0.6860 N   0  0  0  0  0  0  0  0  0  0  0  0
   -0.7595   -0.3050    0.0531 O   0  0  0  0  0  0  0  0  0  0  0  0
    0.1662   -1.1577    0.4929 C   0  0  1  0  0  0  0  0  0  0  0  0
    1.5955   -0.6396    0.2761 C   0  0  2  0  0  0  0  0  0  0  0  0
    1.7017    0.0019   -0.9490 O   0  0  0  0  0  0  0  0  0  0  0  0
    2.1698   -2.6391   -0.7955 O   0  0  0  0  0  0  0  0  0  0  0  0
    2.5403    4.5592   -0.9588 H   0  0  0  0  0  0  0  0  0  0  0  0
    5.1008    3.8274   -0.8074 H   0  0  0  0  0  0  0  0  0  0  0  0
    3.2755    1.1275   -0.1930 H   0  0  0  0  0  0  0  0  0  0  0  0
    3.6767   -1.3141   -1.9213 H   0  0  0  0  0  0  0  0  0  0  0  0
    5.8996   -0.3912   -0.5609 H   0  0  0  0  0  0  0  0  0  0  0  0
    4.5981   -2.2639    0.2266 H   0  0  0  0  0  0  0  0  0  0  0  0
    5.1932   -0.7384    1.5377 H   0  0  0  0  0  0  0  0  0  0  0  0
    0.3374   -0.7434    2.6160 H   0  0  0  0  0  0  0  0  0  0  0  0
   -1.7375   -2.6497    1.4357 H   0  0  0  0  0  0  0  0  0  0  0  0
   -1.6764   -3.4108    3.4051 H   0  0  0  0  0  0  0  0  0  0  0  0
   -1.7555   -0.0105    2.9696 H   0  0  0  0  0  0  0  0  0  0  0  0
   -3.6183   -1.6678    2.5810 H   0  0  0  0  0  0  0  0  0  0  0  0
   -1.5714    1.2113    1.0866 H   0  0  0  0  0  0  0  0  0  0  0  0
   -3.6241   -1.9133    0.0494 H   0  0  0  0  0  0  0  0  0  0  0  0
   -7.4117    1.9263   -2.8861 H   0  0  0  0  0  0  0  0  0  0  0  0
   -6.7620    0.2784   -3.0330 H   0  0  0  0  0  0  0  0  0  0  0  0
   -3.6585    4.4311   -1.4465 H   0  0  0  0  0  0  0  0  0  0  0  0
    0.1188   -2.1002   -0.1317 H   0  0  0  0  0  0  0  0  0  0  0  0
    1.8514    0.0181    1.1271 H   0  0  0  0  0  0  0  0  0  0  0  0
    1.8070   -2.0523   -1.5231 H   0  0  0  0  0  0  0  0  0  0  0  0
  1  2  1  0
  2  3  2  0
  2  4  1  0
  2  5  1  0
  5  6  1  0
  6  7  1  0
  7  8  1  0
  7  9  1  0
  9 10  1  0
  9 11  1  0
 11 12  1  0
 12 13  2  0
 12 14  1  0
 14 15  1  0
 15 16  1  0
 16 17  1  0
 16 18  1  0
 18 19  1  0
 18 20  1  0
 20 21  1  0
 21 22  1  0
 22 23  2  0
 23 24  1  0
 24 25  2  0
 23 26  1  0
 26 27  1  0
 26 28  2  0
 28 29  1  0
 29 30  2  0
 20 31  1  0
 31 32  1  0
 32 33  1  0
 33 34  1  0
 11 35  1  6
 34  6  1  0
 33 11  1  0
 32 15  1  0
 25 21  1  0
 30 22  1  0
  1 36  1  0
  4 37  1  0
  6 38  1  1
  7 39  1  6
  8 40  1  0
  9 41  1  6
 10 42  1  0
 15 43  1  1
 16 44  1  6
 17 45  1  0
 18 46  1  1
 19 47  1  0
 20 48  1  1
 25 49  1  0
 27 50  1  0
 27 51  1  0
 29 52  1  0
 32 53  1  6
 33 54  1  1
 35 55  1  0
M  END
$$$$
[H]Oc1c([H])c([H])c(C([H])([H])[C@@]2([H])C(=O)N([H])[C@@]([H])(C([H])([H])C([H])([H])C([H])([H])C([H])([H])N([H])[H])C(=O)N([H])[C@@]([H])(C([H])([H])[H])C(=O)N3C([H])([H])C([H])([H])C([H])([H])[C@]3([H])C(=O)N([H])[C@@]([H])(C([H])([H])C([H])([H])C([H])([H])C([H])([H])N([H])[H])C(=O)N2[H])c([H])c1[H]
     RDKit          3D

 87 89  0  0  0  0  0  0  0  0999 V2000
   -0.4103   -3.1698    1.2588 C   0  0  0  0  0  0  0  0  0  0  0  0
   -0.2823   -2.5964   -0.1629 C   0  0  2  0  0  0  0  0  0  0  0  0
   -1.5730   -2.8420   -0.7919 N   0  0  0  0  0  0  0  0  0  0  0  0
   -2.3871   -1.8224   -1.3204 C   0  0  0  0  0  0  0  0  0  0  0  0
   -3.1574   -2.0557   -2.2751 O   0  0  0  0  0  0  0  0  0  0  0  0
   -2.3429   -0.4598   -0.7529 C   0  0  2  0  0  0  0  0  0  0  0  0
   -3.7285   -0.1784   -0.1983 C   0  0  0  0  0  0  0  0  0  0  0  0
   -4.1344   -1.1453    0.8663 C   0  0  0  0  0  0  0  0  0  0  0  0
   -5.5304   -0.7459    1.3247 C   0  0  0  0  0  0  0  0  0  0  0  0
   -6.0614   -1.6472    2.4053 C   0  0  0  0  0  0  0  0  0  0  0  0
   -5.2274   -1.6372    3.5803 N   0  0  0  0  0  0  0  0  0  0  0  0
   -2.0579    0.4936   -1.8127 N   0  0  0  0  0  0  0  0  0  0  0  0
   -0.9554    1.3694   -1.8408 C   0  0  0  0  0  0  0  0  0  0  0  0
   -0.6308    1.8476   -2.9747 O   0  0  0  0  0  0  0  0  0  0  0  0
   -0.1675    1.7617   -0.6665 C   0  0  2  0  0  0  0  0  0  0  0  0
   -0.9227    2.7179    0.2352 C   0  0  0  0  0  0  0  0  0  0  0  0
   -1.3147    3.9712   -0.4038 C   0  0  0  0  0  0  0  0  0  0  0  0
   -2.5283    4.0767   -1.0473 C   0  0  0  0  0  0  0  0  0  0  0  0
   -2.9320    5.2467   -1.6602 C   0  0  0  0  0  0  0  0  0  0  0  0
   -2.1287    6.3668   -1.6527 C   0  0  0  0  0  0  0  0  0  0  0  0
   -2.5259    7.5486   -2.2666 O   0  0  0  0  0  0  0  0  0  0  0  0
   -0.9110    6.2761   -1.0127 C   0  0  0  0  0  0  0  0  0  0  0  0
   -0.5177    5.0957   -0.4010 C   0  0  0  0  0  0  0  0  0  0  0  0
    1.1382    2.2871   -1.0176 N   0  0  0  0  0  0  0  0  0  0  0  0
    2.3759    1.6643   -0.8124 C   0  0  0  0  0  0  0  0  0  0  0  0
    3.3476    1.9821   -1.5407 O   0  0  0  0  0  0  0  0  0  0  0  0
    2.6424    0.6144    0.2427 C   0  0  2  0  0  0  0  0  0  0  0  0
    3.0148    1.2479    1.5339 C   0  0  0  0  0  0  0  0  0  0  0  0
    3.2899    0.3945    2.6979 C   0  0  0  0  0  0  0  0  0  0  0  0
    4.3971   -0.5897    2.6099 C   0  0  0  0  0  0  0  0  0  0  0  0
    4.5757   -1.3674    3.9159 C   0  0  0  0  0  0  0  0  0  0  0  0
    5.6876   -2.2883    3.6823 N   0  0  0  0  0  0  0  0  0  0  0  0
    3.6775   -0.2497   -0.3175 N   0  0  0  0  0  0  0  0  0  0  0  0
    3.4078   -1.3319   -1.1961 C   0  0  0  0  0  0  0  0  0  0  0  0
    4.3486   -2.1350   -1.4235 O   0  0  0  0  0  0  0  0  0  0  0  0
    2.1079   -1.5824   -1.8604 C   0  0  1  0  0  0  0  0  0  0  0  0
    2.2999   -1.3886   -3.3722 C   0  0  0  0  0  0  0  0  0  0  0  0
    2.8499   -2.7129   -3.8283 C   0  0  0  0  0  0  0  0  0  0  0  0
    2.4829   -3.6916   -2.7416 C   0  0  0  0  0  0  0  0  0  0  0  0
    1.7009   -2.9643   -1.7613 N   0  0  0  0  0  0  0  0  0  0  0  0
    0.7222   -3.4395   -0.8542 C   0  0  0  0  0  0  0  0  0  0  0  0
    0.6796   -4.6907   -0.5934 O   0  0  0  0  0  0  0  0  0  0  0  0
   -0.6942   -4.2334    1.1291 H   0  0  0  0  0  0  0  0  0  0  0  0
    0.5654   -3.1496    1.7712 H   0  0  0  0  0  0  0  0  0  0  0  0
   -1.2136   -2.6705    1.8154 H   0  0  0  0  0  0  0  0  0  0  0  0
   -0.0229   -1.5389   -0.1350 H   0  0  0  0  0  0  0  0  0  0  0  0
   -1.8870   -3.8478   -0.8400 H   0  0  0  0  0  0  0  0  0  0  0  0
   -1.6475   -0.3411    0.0797 H   0  0  0  0  0  0  0  0  0  0  0  0
   -4.4708   -0.2354   -1.0214 H   0  0  0  0  0  0  0  0  0  0  0  0
   -3.7815    0.8415    0.2450 H   0  0  0  0  0  0  0  0  0  0  0  0
   -3.4690   -1.0246    1.7491 H   0  0  0  0  0  0  0  0  0  0  0  0
   -4.0906   -2.2010    0.5557 H   0  0  0  0  0  0  0  0  0  0  0  0
   -5.4510    0.2825    1.6992 H   0  0  0  0  0  0  0  0  0  0  0  0
   -6.1911   -0.8290    0.4428 H   0  0  0  0  0  0  0  0  0  0  0  0
   -6.1515   -2.6903    2.0395 H   0  0  0  0  0  0  0  0  0  0  0  0
   -7.0482   -1.2569    2.6985 H   0  0  0  0  0  0  0  0  0  0  0  0
   -4.8300   -0.7141    3.7972 H   0  0  0  0  0  0  0  0  0  0  0  0
   -4.5592   -2.4297    3.6255 H   0  0  0  0  0  0  0  0  0  0  0  0
   -2.7486    0.5116   -2.6149 H   0  0  0  0  0  0  0  0  0  0  0  0
   -0.0026    0.8503   -0.0576 H   0  0  0  0  0  0  0  0  0  0  0  0
   -0.2507    2.8786    1.1269 H   0  0  0  0  0  0  0  0  0  0  0  0
   -1.7910    2.1557    0.6419 H   0  0  0  0  0  0  0  0  0  0  0  0
   -3.2022    3.2258   -1.0847 H   0  0  0  0  0  0  0  0  0  0  0  0
   -3.9068    5.3140   -2.1704 H   0  0  0  0  0  0  0  0  0  0  0  0
   -3.0445    8.2763   -1.7928 H   0  0  0  0  0  0  0  0  0  0  0  0
   -0.2796    7.1636   -1.0098 H   0  0  0  0  0  0  0  0  0  0  0  0
    0.4302    5.0322    0.0946 H   0  0  0  0  0  0  0  0  0  0  0  0
    1.0935    3.2505   -1.4775 H   0  0  0  0  0  0  0  0  0  0  0  0
    1.7586   -0.0301    0.3960 H   0  0  0  0  0  0  0  0  0  0  0  0
    3.9746    1.8245    1.3215 H   0  0  0  0  0  0  0  0  0  0  0  0
    2.3083    2.0809    1.8181 H   0  0  0  0  0  0  0  0  0  0  0  0
    2.3370   -0.0666    3.0762 H   0  0  0  0  0  0  0  0  0  0  0  0
    3.5655    1.0949    3.5508 H   0  0  0  0  0  0  0  0  0  0  0  0
    4.1121   -1.3817    1.8610 H   0  0  0  0  0  0  0  0  0  0  0  0
    5.3713   -0.1600    2.3651 H   0  0  0  0  0  0  0  0  0  0  0  0
    4.7593   -0.6857    4.7523 H   0  0  0  0  0  0  0  0  0  0  0  0
    3.6815   -1.9827    4.0391 H   0  0  0  0  0  0  0  0  0  0  0  0
    6.5497   -1.9967    4.1861 H   0  0  0  0  0  0  0  0  0  0  0  0
    5.8279   -2.4908    2.6734 H   0  0  0  0  0  0  0  0  0  0  0  0
    4.6649   -0.0080   -0.0177 H   0  0  0  0  0  0  0  0  0  0  0  0
    1.3129   -0.9068   -1.5038 H   0  0  0  0  0  0  0  0  0  0  0  0
    1.3680   -1.0921   -3.8672 H   0  0  0  0  0  0  0  0  0  0  0  0
    3.0966   -0.6310   -3.4763 H   0  0  0  0  0  0  0  0  0  0  0  0
    2.4510   -3.0020   -4.8232 H   0  0  0  0  0  0  0  0  0  0  0  0
    3.9553   -2.7137   -3.9209 H   0  0  0  0  0  0  0  0  0  0  0  0
    3.3553   -4.2101   -2.2987 H   0  0  0  0  0  0  0  0  0  0  0  0
    1.8765   -4.4929   -3.2332 H   0  0  0  0  0  0  0  0  0  0  0  0
  1  2  1  0
  2  3  1  0
  3  4  1  0
  4  5  2  0
  4  6  1  0
  6  7  1  0
  7  8  1  0
  8  9  1  0
  9 10  1  0
 10 11  1  0
  6 12  1  0
 12 13  1  0
 13 14  2  0
 13 15  1  0
 15 16  1  0
 16 17  1  0
 17 18  2  0
 18 19  1  0
 19 20  2  0
 20 21  1  0
 20 22  1  0
 22 23  2  0
 15 24  1  0
 24 25  1  0
 25 26  2  0
 25 27  1  0
 27 28  1  0
 28 29  1  0
 29 30  1  0
 30 31  1  0
 31 32  1  0
 27 33  1  0
 33 34  1  0
 34 35  2  0
 34 36  1  0
 36 37  1  0
 37 38  1  0
 38 39  1  0
 39 40  1  0
 40 41  1  0
 41 42  2  0
 41  2  1  0
 23 17  1  0
 40 36  1  0
  1 43  1  0
  1 44  1  0
  1 45  1  0
  2 46  1  1
  3 47  1  0
  6 48  1  1
  7 49  1  0
  7 50  1  0
  8 51  1  0
  8 52  1  0
  9 53  1  0
  9 54  1  0
 10 55  1  0
 10 56  1  0
 11 57  1  0
 11 58  1  0
 12 59  1  0
 15 60  1  1
 16 61  1  0
 16 62  1  0
 18 63  1  0
 19 64  1  0
 21 65  1  0
 22 66  1  0
 23 67  1  0
 24 68  1  0
 27 69  1  1
 28 70  1  0
 28 71  1  0
 29 72  1  0
 29 73  1  0
 30 74  1  0
 30 75  1  0
 31 76  1  0
 31 77  1  0
 32 78  1  0
 32 79  1  0
 33 80  1  0
 36 81  1  1
 37 82  1  0
 37 83  1  0
 38 84  1  0
 38 85  1  0
 39 86  1  0
 39 87  1  0
M  END
$$$$
[H]C1=C2[C@](C([H])([H])[H])(C([H])([H])C([H])([H])C1=O)C([H])([H])[C@]1([H])[C@@]([H])(C([H])(C([H])([H])[H])C([H])([H])[H])C([H])([H])C([H])([H])[C@@]1([H])[C@@]2([H])C([H])([H])[H]
     RDKit          3D

 47 49  0  0  0  0  0  0  0  0999 V2000
    4.4632    0.2638   -0.5339 C   0  0  0  0  0  0  0  0  0  0  0  0
    3.1613    0.3811    0.2350 C   0  0  0  0  0  0  0  0  0  0  0  0
    3.0233    1.7367    0.7973 C   0  0  0  0  0  0  0  0  0  0  0  0
    2.0605   -0.0597   -0.6817 C   0  0  1  0  0  0  0  0  0  0  0  0
    2.3643   -1.4973   -1.0635 C   0  0  0  0  0  0  0  0  0  0  0  0
    1.2495   -2.2934   -0.3670 C   0  0  0  0  0  0  0  0  0  0  0  0
    0.1215   -1.3587   -0.6073 C   0  0  1  0  0  0  0  0  0  0  0  0
   -1.1785   -1.7120   -0.0504 C   0  0  1  0  0  0  0  0  0  0  0  0
   -1.1607   -2.3711    1.2990 C   0  0  0  0  0  0  0  0  0  0  0  0
   -2.0651   -0.5201   -0.0421 C   0  0  0  0  0  0  0  0  0  0  0  0
   -3.3695   -0.7454    0.0244 C   0  0  0  0  0  0  0  0  0  0  0  0
   -4.3496    0.3275    0.0402 C   0  0  0  0  0  0  0  0  0  0  0  0
   -5.5356    0.1413    0.3963 O   0  0  0  0  0  0  0  0  0  0  0  0
   -3.9370    1.6794   -0.3759 C   0  0  0  0  0  0  0  0  0  0  0  0
   -2.5321    1.6592   -0.9771 C   0  0  0  0  0  0  0  0  0  0  0  0
   -1.5963    0.8604   -0.1008 C   0  0  1  0  0  0  0  0  0  0  0  0
   -1.6557    1.4243    1.3186 C   0  0  0  0  0  0  0  0  0  0  0  0
   -0.1990    1.0302   -0.6257 C   0  0  0  0  0  0  0  0  0  0  0  0
    0.6989   -0.0400   -0.0808 C   0  0  2  0  0  0  0  0  0  0  0  0
    4.3238   -0.2195   -1.5242 H   0  0  0  0  0  0  0  0  0  0  0  0
    5.2431   -0.2783    0.0306 H   0  0  0  0  0  0  0  0  0  0  0  0
    4.8394    1.2986   -0.7623 H   0  0  0  0  0  0  0  0  0  0  0  0
    3.2277   -0.3945    1.0525 H   0  0  0  0  0  0  0  0  0  0  0  0
    2.4175    2.4416    0.2287 H   0  0  0  0  0  0  0  0  0  0  0  0
    4.0467    2.2054    0.8920 H   0  0  0  0  0  0  0  0  0  0  0  0
    2.6757    1.6391    1.8658 H   0  0  0  0  0  0  0  0  0  0  0  0
    2.0691    0.6032   -1.5681 H   0  0  0  0  0  0  0  0  0  0  0  0
    2.2268   -1.5829   -2.1692 H   0  0  0  0  0  0  0  0  0  0  0  0
    3.3505   -1.8326   -0.7417 H   0  0  0  0  0  0  0  0  0  0  0  0
    1.1239   -3.2878   -0.8254 H   0  0  0  0  0  0  0  0  0  0  0  0
    1.5530   -2.3444    0.6996 H   0  0  0  0  0  0  0  0  0  0  0  0
    0.0287   -1.2107   -1.7123 H   0  0  0  0  0  0  0  0  0  0  0  0
   -1.6779   -2.4458   -0.7495 H   0  0  0  0  0  0  0  0  0  0  0  0
   -2.0333   -2.0023    1.8765 H   0  0  0  0  0  0  0  0  0  0  0  0
   -1.2855   -3.4761    1.2290 H   0  0  0  0  0  0  0  0  0  0  0  0
   -0.2644   -2.1125    1.8953 H   0  0  0  0  0  0  0  0  0  0  0  0
   -3.7456   -1.7564    0.0696 H   0  0  0  0  0  0  0  0  0  0  0  0
   -4.6316    2.0655   -1.1378 H   0  0  0  0  0  0  0  0  0  0  0  0
   -3.8991    2.3750    0.5048 H   0  0  0  0  0  0  0  0  0  0  0  0
   -2.2208    2.7170   -1.0766 H   0  0  0  0  0  0  0  0  0  0  0  0
   -2.6118    1.1285   -1.9405 H   0  0  0  0  0  0  0  0  0  0  0  0
   -0.7628    1.0735    1.8783 H   0  0  0  0  0  0  0  0  0  0  0  0
   -2.5377    1.0642    1.8684 H   0  0  0  0  0  0  0  0  0  0  0  0
   -1.6281    2.5207    1.2978 H   0  0  0  0  0  0  0  0  0  0  0  0
   -0.2352    0.8978   -1.7304 H   0  0  0  0  0  0  0  0  0  0  0  0
    0.1172    2.0560   -0.3622 H   0  0  0  0  0  0  0  0  0  0  0  0
    0.7271   -0.0484    1.0329 H   0  0  0  0  0  0  0  0  0  0  0  0
  1  2  1  0
  2  3  1  0
  2  4  1  0
  4  5  1  0
  5  6  1  0
  6  7  1  0
  7  8  1  0
  8  9  1  0
  8 10  1  0
 10 11  2  0
 11 12  1  0
 12 13  2  0
 12 14  1  0
 14 15  1  0
 15 16  1  0
 16 17  1  1
 16 18  1  0
 18 19  1  0
 19  4  1  0
 19  7  1  0
 16 10  1  0
  1 20  1  0
  1 21  1  0
  1 22  1  0
  2 23  1  0
  3 24  1  0
  3 25  1  0
  3 26  1  0
  4 27  1  6
  5 28  1  0
  5 29  1  0
  6 30  1  0
  6 31  1  0
  7 32  1  6
  8 33  1  6
  9 34  1  0
  9 35  1  0
  9 36  1  0
 11 37  1  0
 14 38  1  0
 14 39  1  0
 15 40  1  0
 15 41  1  0
 17 42  1  0
 17 43  1  0
 17 44  1  0
 18 45  1  0
 18 46  1  0
 19 47  1  1
M  END
$$$$
[H]c1c([H])c([H])c(C([H])([H])OC(=O)N([H])[C@@]([H])(C(=O)N([H])[C@]([H])(C(=O)N([H])[C@]([H])(C(=O)N([H])[C@]([H])(C(=O)N([H])C([H])([H])[H])C([H])([H])c2c([H])c([H])c([H])c([H])c2[H])C([H])([H])c2c([H])c([H])c([H])c([H])c2[H])C([H])([H])C([H])(C([H])([H])[H])C([H])([H])[H])C([H])([H])c2c([H])c([H])c([H])c([H])c2[H])c([H])c1[H]
     RDKit          3D

102105  0  0  0  0  0  0  0  0999 V2000
   -6.8845    1.4436    3.3222 C   0  0  0  0  0  0  0  0  0  0  0  0
   -6.0725    2.0583    2.2674 N   0  0  0  0  0  0  0  0  0  0  0  0
   -5.5444    1.2361    1.2138 C   0  0  0  0  0  0  0  0  0  0  0  0
   -5.7600    0.0186    1.1996 O   0  0  0  0  0  0  0  0  0  0  0  0
   -4.7142    1.8382    0.1129 C   0  0  2  0  0  0  0  0  0  0  0  0
   -5.5461    2.5988   -0.8799 C   0  0  0  0  0  0  0  0  0  0  0  0
   -6.3424    3.7061   -0.3792 C   0  0  0  0  0  0  0  0  0  0  0  0
   -5.7867    4.9586   -0.2296 C   0  0  0  0  0  0  0  0  0  0  0  0
   -6.5524    6.0305    0.2117 C   0  0  0  0  0  0  0  0  0  0  0  0
   -7.8781    5.8845    0.5114 C   0  0  0  0  0  0  0  0  0  0  0  0
   -8.4526    4.6131    0.3609 C   0  0  0  0  0  0  0  0  0  0  0  0
   -7.6955    3.5648   -0.0715 C   0  0  0  0  0  0  0  0  0  0  0  0
   -4.1366    0.7331   -0.6709 N   0  0  0  0  0  0  0  0  0  0  0  0
   -3.0640   -0.0646   -0.2621 C   0  0  0  0  0  0  0  0  0  0  0  0
   -2.6047    0.1915    0.9080 O   0  0  0  0  0  0  0  0  0  0  0  0
   -2.4437   -1.1159   -1.0202 C   0  0  2  0  0  0  0  0  0  0  0  0
   -3.2141   -2.0219   -1.8800 C   0  0  0  0  0  0  0  0  0  0  0  0
   -4.2331   -2.8844   -1.3206 C   0  0  0  0  0  0  0  0  0  0  0  0
   -5.5444   -2.4772   -1.2470 C   0  0  0  0  0  0  0  0  0  0  0  0
   -6.5659   -3.2672   -0.7183 C   0  0  0  0  0  0  0  0  0  0  0  0
   -6.2170   -4.5102   -0.2553 C   0  0  0  0  0  0  0  0  0  0  0  0
   -4.9060   -4.9226   -0.3276 C   0  0  0  0  0  0  0  0  0  0  0  0
   -3.9027   -4.1521   -0.8449 C   0  0  0  0  0  0  0  0  0  0  0  0
   -1.4563   -1.8327   -0.1634 N   0  0  0  0  0  0  0  0  0  0  0  0
   -0.1049   -1.8528   -0.4458 C   0  0  0  0  0  0  0  0  0  0  0  0
    0.2595   -1.1928   -1.5004 O   0  0  0  0  0  0  0  0  0  0  0  0
    0.9622   -2.5057    0.2755 C   0  0  2  0  0  0  0  0  0  0  0  0
    0.5991   -3.2424    1.4891 C   0  0  0  0  0  0  0  0  0  0  0  0
   -0.2767   -4.4248    1.2526 C   0  0  0  0  0  0  0  0  0  0  0  0
   -0.6190   -5.1051    2.5934 C   0  0  0  0  0  0  0  0  0  0  0  0
    0.5348   -5.5201    0.5098 C   0  0  0  0  0  0  0  0  0  0  0  0
    2.1241   -1.6099    0.4132 N   0  0  0  0  0  0  0  0  0  0  0  0
    3.1328   -1.5599   -0.5617 C   0  0  0  0  0  0  0  0  0  0  0  0
    3.0111   -2.2877   -1.5738 O   0  0  0  0  0  0  0  0  0  0  0  0
    4.3486   -0.6999   -0.4804 C   0  0  1  0  0  0  0  0  0  0  0  0
    5.4451   -1.6345    0.0084 C   0  0  0  0  0  0  0  0  0  0  0  0
    6.7590   -1.0155    0.1569 C   0  0  0  0  0  0  0  0  0  0  0  0
    7.2639   -0.4209    1.2873 C   0  0  0  0  0  0  0  0  0  0  0  0
    8.5324    0.1213    1.3403 C   0  0  0  0  0  0  0  0  0  0  0  0
    9.3761    0.0993    0.2564 C   0  0  0  0  0  0  0  0  0  0  0  0
    8.8849   -0.4985   -0.9069 C   0  0  0  0  0  0  0  0  0  0  0  0
    7.6248   -1.0343   -0.9562 C   0  0  0  0  0  0  0  0  0  0  0  0
    4.6996   -0.0930   -1.7332 N   0  0  0  0  0  0  0  0  0  0  0  0
    4.7428    1.3293   -1.7909 C   0  0  0  0  0  0  0  0  0  0  0  0
    4.4769    2.0273   -0.7643 O   0  0  0  0  0  0  0  0  0  0  0  0
    5.0681    2.0457   -2.9362 O   0  0  0  0  0  0  0  0  0  0  0  0
    5.0762    3.4911   -2.8917 C   0  0  0  0  0  0  0  0  0  0  0  0
    6.0675    3.8858   -1.8619 C   0  0  0  0  0  0  0  0  0  0  0  0
    5.8097    4.8221   -0.8740 C   0  0  0  0  0  0  0  0  0  0  0  0
    6.7717    5.1494    0.0643 C   0  0  0  0  0  0  0  0  0  0  0  0
    8.0184    4.5452    0.0350 C   0  0  0  0  0  0  0  0  0  0  0  0
    8.2593    3.6202   -0.9479 C   0  0  0  0  0  0  0  0  0  0  0  0
    7.2976    3.2903   -1.8888 C   0  0  0  0  0  0  0  0  0  0  0  0
   -6.6400    1.8983    4.3124 H   0  0  0  0  0  0  0  0  0  0  0  0
   -7.9545    1.6400    3.1205 H   0  0  0  0  0  0  0  0  0  0  0  0
   -6.6794    0.3530    3.3826 H   0  0  0  0  0  0  0  0  0  0  0  0
   -5.8540    3.0600    2.2683 H   0  0  0  0  0  0  0  0  0  0  0  0
   -3.9434    2.4040    0.6430 H   0  0  0  0  0  0  0  0  0  0  0  0
   -6.2038    1.8370   -1.3973 H   0  0  0  0  0  0  0  0  0  0  0  0
   -4.8370    2.9953   -1.6442 H   0  0  0  0  0  0  0  0  0  0  0  0
   -4.7341    5.0623   -0.4672 H   0  0  0  0  0  0  0  0  0  0  0  0
   -6.1140    7.0234    0.3270 H   0  0  0  0  0  0  0  0  0  0  0  0
   -8.4943    6.7006    0.8568 H   0  0  0  0  0  0  0  0  0  0  0  0
   -9.4823    4.5305    0.6021 H   0  0  0  0  0  0  0  0  0  0  0  0
   -8.1154    2.5755   -0.1954 H   0  0  0  0  0  0  0  0  0  0  0  0
   -4.5437    0.5050   -1.6234 H   0  0  0  0  0  0  0  0  0  0  0  0
   -1.7225   -0.5695   -1.7517 H   0  0  0  0  0  0  0  0  0  0  0  0
   -3.7416   -1.3736   -2.6600 H   0  0  0  0  0  0  0  0  0  0  0  0
   -2.4940   -2.6173   -2.5126 H   0  0  0  0  0  0  0  0  0  0  0  0
   -5.8867   -1.5080   -1.6071 H   0  0  0  0  0  0  0  0  0  0  0  0
   -7.5946   -2.9504   -0.6606 H   0  0  0  0  0  0  0  0  0  0  0  0
   -6.9961   -5.1357    0.1591 H   0  0  0  0  0  0  0  0  0  0  0  0
   -4.6582   -5.9206    0.0505 H   0  0  0  0  0  0  0  0  0  0  0  0
   -2.8920   -4.5137   -0.8957 H   0  0  0  0  0  0  0  0  0  0  0  0
   -1.9327   -2.2676    0.6659 H   0  0  0  0  0  0  0  0  0  0  0  0
    1.3693   -3.3595   -0.4493 H   0  0  0  0  0  0  0  0  0  0  0  0
    0.0682   -2.6077    2.2522 H   0  0  0  0  0  0  0  0  0  0  0  0
    1.5100   -3.6082    2.0455 H   0  0  0  0  0  0  0  0  0  0  0  0
   -1.1713   -4.2954    0.6794 H   0  0  0  0  0  0  0  0  0  0  0  0
    0.3177   -5.2456    3.1419 H   0  0  0  0  0  0  0  0  0  0  0  0
   -1.0210   -6.1015    2.3304 H   0  0  0  0  0  0  0  0  0  0  0  0
   -1.3339   -4.4583    3.1371 H   0  0  0  0  0  0  0  0  0  0  0  0
    0.0568   -6.4851    0.7520 H   0  0  0  0  0  0  0  0  0  0  0  0
    1.5625   -5.5304    0.8893 H   0  0  0  0  0  0  0  0  0  0  0  0
    0.4495   -5.3892   -0.5885 H   0  0  0  0  0  0  0  0  0  0  0  0
    2.1946   -0.9993    1.2528 H   0  0  0  0  0  0  0  0  0  0  0  0
    4.1765    0.0668    0.2812 H   0  0  0  0  0  0  0  0  0  0  0  0
    5.5238   -2.4695   -0.7253 H   0  0  0  0  0  0  0  0  0  0  0  0
    5.1409   -2.0676    0.9783 H   0  0  0  0  0  0  0  0  0  0  0  0
    6.6119   -0.3921    2.1640 H   0  0  0  0  0  0  0  0  0  0  0  0
    8.9323    0.5923    2.2376 H   0  0  0  0  0  0  0  0  0  0  0  0
   10.3866    0.5058    0.2404 H   0  0  0  0  0  0  0  0  0  0  0  0
    9.5618   -0.5089   -1.7721 H   0  0  0  0  0  0  0  0  0  0  0  0
    7.2321   -1.5004   -1.8598 H   0  0  0  0  0  0  0  0  0  0  0  0
    4.9230   -0.6108   -2.6005 H   0  0  0  0  0  0  0  0  0  0  0  0
    4.0967    3.8737   -2.5885 H   0  0  0  0  0  0  0  0  0  0  0  0
    5.3085    3.9041   -3.8771 H   0  0  0  0  0  0  0  0  0  0  0  0
    4.8462    5.2838   -0.8581 H   0  0  0  0  0  0  0  0  0  0  0  0
    6.6065    5.8792    0.8552 H   0  0  0  0  0  0  0  0  0  0  0  0
    8.8029    4.7594    0.7329 H   0  0  0  0  0  0  0  0  0  0  0  0
    9.2239    3.1251   -1.0008 H   0  0  0  0  0  0  0  0  0  0  0  0
    7.5105    2.5544   -2.6557 H   0  0  0  0  0  0  0  0  0  0  0  0
  1  2  1  0
  2  3  1  0
  3  4  2  0
  3  5  1  0
  5  6  1  0
  6  7  1  0
  7  8  2  0
  8  9  1  0
  9 10  2  0
 10 11  1  0
 11 12  2  0
  5 13  1  0
 13 14  1  0
 14 15  2  0
 14 16  1  0
 16 17  1  0
 17 18  1  0
 18 19  2  0
 19 20  1  0
 20 21  2  0
 21 22  1  0
 22 23  2  0
 16 24  1  0
 24 25  1  0
 25 26  2  0
 25 27  1  0
 27 28  1  0
 28 29  1  0
 29 30  1  0
 29 31  1  0
 27 32  1  0
 32 33  1  0
 33 34  2  0
 33 35  1  0
 35 36  1  0
 36 37  1  0
 37 38  2  0
 38 39  1  0
 39 40  2  0
 40 41  1  0
 41 42  2  0
 35 43  1  0
 43 44  1  0
 44 45  2  0
 44 46  1  0
 46 47  1  0
 47 48  1  0
 48 49  2  0
 49 50  1  0
 50 51  2  0
 51 52  1  0
 52 53  2  0
 12  7  1  0
 23 18  1  0
 42 37  1  0
 53 48  1  0
  1 54  1  0
  1 55  1  0
  1 56  1  0
  2 57  1  0
  5 58  1  1
  6 59  1  0
  6 60  1  0
  8 61  1  0
  9 62  1  0
 10 63  1  0
 11 64  1  0
 12 65  1  0
 13 66  1  0
 16 67  1  6
 17 68  1  0
 17 69  1  0
 19 70  1  0
 20 71  1  0
 21 72  1  0
 22 73  1  0
 23 74  1  0
 24 75  1  0
 27 76  1  6
 28 77  1  0
 28 78  1  0
 29 79  1  0
 30 80  1  0
 30 81  1  0
 30 82  1  0
 31 83  1  0
 31 84  1  0
 31 85  1  0
 32 86  1  0
 35 87  1  1
 36 88  1  0
 36 89  1  0
 38 90  1  0
 39 91  1  0
 40 92  1  0
 41 93  1  0
 42 94  1  0
 43 95  1  0
 47 96  1  0
 47 97  1  0
 49 98  1  0
 50 99  1  0
 51100  1  0
 52101  1  0
 53102  1  0
M  END
$$$$
[H]OC(n1c([H])c(C(=O)OC([H])([H])[H])c([H])c1N([H])c1nc([H])c([H])c(OC([H])([H])[C@]2([H])C([H])([H])O[C@]2([H])C([H])([H])O[H])n1)(C([H])([H])[H])C([H])([H])[H]
     RDKit          3D

 52 54  0  0  0  0  0  0  0  0999 V2000
   -5.8415    4.3797    0.7443 C   0  0  0  0  0  0  0  0  0  0  0  0
   -4.8127    3.4073    0.6773 O   0  0  0  0  0  0  0  0  0  0  0  0
   -4.9891    2.1630    0.0925 C   0  0  0  0  0  0  0  0  0  0  0  0
   -6.1157    1.9021   -0.3944 O   0  0  0  0  0  0  0  0  0  0  0  0
   -3.9369    1.1533    0.0176 C   0  0  0  0  0  0  0  0  0  0  0  0
   -2.6682    1.2544    0.4860 C   0  0  0  0  0  0  0  0  0  0  0  0
   -1.9470    0.0376    0.2164 C   0  0  0  0  0  0  0  0  0  0  0  0
   -0.6038   -0.0263    0.5590 N   0  0  0  0  0  0  0  0  0  0  0  0
    0.3004   -1.0458    0.8934 C   0  0  0  0  0  0  0  0  0  0  0  0
    0.0781   -2.3345    1.0391 N   0  0  0  0  0  0  0  0  0  0  0  0
    0.9733   -3.2412    1.3572 C   0  0  0  0  0  0  0  0  0  0  0  0
    2.2847   -2.8782    1.5721 C   0  0  0  0  0  0  0  0  0  0  0  0
    2.5785   -1.5417    1.4339 C   0  0  0  0  0  0  0  0  0  0  0  0
    3.9025   -1.1520    1.6477 O   0  0  0  0  0  0  0  0  0  0  0  0
    4.3737    0.1691    1.5469 C   0  0  0  0  0  0  0  0  0  0  0  0
    4.1383    0.6713    0.1507 C   0  0  2  0  0  0  0  0  0  0  0  0
    4.8235   -0.1275   -0.9175 C   0  0  0  0  0  0  0  0  0  0  0  0
    5.9814    0.6612   -0.8100 O   0  0  0  0  0  0  0  0  0  0  0  0
    5.1489    1.6742   -0.3514 C   0  0  2  0  0  0  0  0  0  0  0  0
    5.7202    2.6203    0.6462 C   0  0  0  0  0  0  0  0  0  0  0  0
    6.8284    3.2458    0.0480 O   0  0  0  0  0  0  0  0  0  0  0  0
    1.6229   -0.6933    1.1121 N   0  0  0  0  0  0  0  0  0  0  0  0
   -2.8279   -0.7412   -0.4130 N   0  0  0  0  0  0  0  0  0  0  0  0
   -4.0389   -0.0747   -0.5357 C   0  0  0  0  0  0  0  0  0  0  0  0
   -2.7372   -2.0422   -1.0335 C   0  0  0  0  0  0  0  0  0  0  0  0
   -3.7253   -2.0200   -2.2661 C   0  0  0  0  0  0  0  0  0  0  0  0
   -3.1817   -3.1701   -0.1358 C   0  0  0  0  0  0  0  0  0  0  0  0
   -1.5457   -2.3449   -1.6268 O   0  0  0  0  0  0  0  0  0  0  0  0
   -6.8487    3.9336    0.8090 H   0  0  0  0  0  0  0  0  0  0  0  0
   -5.8137    4.9743   -0.2000 H   0  0  0  0  0  0  0  0  0  0  0  0
   -5.6704    5.0786    1.5866 H   0  0  0  0  0  0  0  0  0  0  0  0
   -2.2564    2.1104    0.9903 H   0  0  0  0  0  0  0  0  0  0  0  0
   -0.0710    0.9587    0.5469 H   0  0  0  0  0  0  0  0  0  0  0  0
    0.7294   -4.3157    1.4667 H   0  0  0  0  0  0  0  0  0  0  0  0
    3.0458   -3.6150    1.8379 H   0  0  0  0  0  0  0  0  0  0  0  0
    3.7958    0.7653    2.2930 H   0  0  0  0  0  0  0  0  0  0  0  0
    5.4591    0.2353    1.7477 H   0  0  0  0  0  0  0  0  0  0  0  0
    3.1333    1.0411   -0.0368 H   0  0  0  0  0  0  0  0  0  0  0  0
    4.3526   -0.1187   -1.9118 H   0  0  0  0  0  0  0  0  0  0  0  0
    5.0270   -1.1914   -0.6233 H   0  0  0  0  0  0  0  0  0  0  0  0
    4.7543    2.2335   -1.2373 H   0  0  0  0  0  0  0  0  0  0  0  0
    6.0224    2.1862    1.5963 H   0  0  0  0  0  0  0  0  0  0  0  0
    4.9839    3.4181    0.8287 H   0  0  0  0  0  0  0  0  0  0  0  0
    7.6694    2.7521    0.2413 H   0  0  0  0  0  0  0  0  0  0  0  0
   -4.9481   -0.4467   -0.9921 H   0  0  0  0  0  0  0  0  0  0  0  0
   -4.6904   -2.2853   -1.8340 H   0  0  0  0  0  0  0  0  0  0  0  0
   -3.4081   -2.8036   -2.9797 H   0  0  0  0  0  0  0  0  0  0  0  0
   -3.6815   -1.0356   -2.7478 H   0  0  0  0  0  0  0  0  0  0  0  0
   -3.9508   -3.7560   -0.6682 H   0  0  0  0  0  0  0  0  0  0  0  0
   -2.3398   -3.8894    0.0408 H   0  0  0  0  0  0  0  0  0  0  0  0
   -3.6058   -2.8053    0.8213 H   0  0  0  0  0  0  0  0  0  0  0  0
   -1.4715   -3.3302   -1.6882 H   0  0  0  0  0  0  0  0  0  0  0  0
  1  2  1  0
  2  3  1  0
  3  4  2  0
  3  5  1  0
  5  6  1  0
  6  7  2  0
  7  8  1  0
  8  9  1  0
  9 10  2  0
 10 11  1  0
 11 12  2  0
 12 13  1  0
 13 14  1  0
 14 15  1  0
 15 16  1  0
 16 17  1  0
 17 18  1  0
 18 19  1  0
 19 20  1  0
 20 21  1  0
 13 22  2  0
  7 23  1  0
 23 24  1  0
 23 25  1  0
 25 26  1  0
 25 27  1  0
 25 28  1  0
 24  5  2  0
 22  9  1  0
 19 16  1  0
  1 29  1  0
  1 30  1  0
  1 31  1  0
  6 32  1  0
  8 33  1  0
 11 34  1  0
 12 35  1  0
 15 36  1  0
 15 37  1  0
 16 38  1  6
 17 39  1  0
 17 40  1  0
 19 41  1  6
 20 42  1  0
 20 43  1  0
 21 44  1  0
 24 45  1  0
 26 46  1  0
 26 47  1  0
 26 48  1  0
 27 49  1  0
 27 50  1  0
 27 51  1  0
 28 52  1  0
M  END
$$$$
[H]c1c([H])c(C(=O)N([H])c2nnc(C([H])(n3nnnc3[H])C3([H])C([H])([H])C([H])([H])C([H])([H])C([H])([H])C3([H])[H])s2)c([H])c([H])c1F
     RDKit          3D

 45 48  0  0  0  0  0  0  0  0999 V2000
    9.3443    1.1871    0.2149 F   0  0  0  0  0  0  0  0  0  0  0  0
    8.0385    0.8894    0.4214 C   0  0  0  0  0  0  0  0  0  0  0  0
    7.5899    0.5306    1.6711 C   0  0  0  0  0  0  0  0  0  0  0  0
    6.2492    0.2370    1.8277 C   0  0  0  0  0  0  0  0  0  0  0  0
    5.3584    0.2912    0.7863 C   0  0  0  0  0  0  0  0  0  0  0  0
    5.8184    0.6505   -0.4554 C   0  0  0  0  0  0  0  0  0  0  0  0
    7.1706    0.9561   -0.6569 C   0  0  0  0  0  0  0  0  0  0  0  0
    3.9698   -0.0237    0.9968 C   0  0  0  0  0  0  0  0  0  0  0  0
    3.6201   -0.3519    2.1882 O   0  0  0  0  0  0  0  0  0  0  0  0
    2.9907    0.0112   -0.0294 N   0  0  0  0  0  0  0  0  0  0  0  0
    1.6188   -0.3108    0.2270 C   0  0  0  0  0  0  0  0  0  0  0  0
    1.0401   -0.6728    1.3688 N   0  0  0  0  0  0  0  0  0  0  0  0
   -0.1961   -0.9198    1.4016 N   0  0  0  0  0  0  0  0  0  0  0  0
   -0.9241   -0.8189    0.2950 C   0  0  0  0  0  0  0  0  0  0  0  0
    0.2704   -0.3409   -0.8310 S   0  0  0  0  0  0  0  0  0  0  0  0
   -2.3866   -1.0699    0.1390 C   0  0  0  0  0  0  0  0  0  0  0  0
   -2.9335   -0.0700   -0.8704 C   0  0  0  0  0  0  0  0  0  0  0  0
   -4.4155   -0.2653   -1.0822 C   0  0  0  0  0  0  0  0  0  0  0  0
   -5.2074    0.5570   -0.0582 C   0  0  0  0  0  0  0  0  0  0  0  0
   -5.0131    2.0064   -0.4499 C   0  0  0  0  0  0  0  0  0  0  0  0
   -3.5986    2.3490   -0.7779 C   0  0  0  0  0  0  0  0  0  0  0  0
   -2.6021    1.3029   -0.3552 C   0  0  0  0  0  0  0  0  0  0  0  0
   -2.6653   -2.4396   -0.2423 N   0  0  0  0  0  0  0  0  0  0  0  0
   -3.3618   -3.3191    0.4811 C   0  0  0  0  0  0  0  0  0  0  0  0
   -3.3995   -4.4633   -0.2027 N   0  0  0  0  0  0  0  0  0  0  0  0
   -2.7402   -4.3047   -1.3316 N   0  0  0  0  0  0  0  0  0  0  0  0
   -2.2873   -3.0593   -1.3579 N   0  0  0  0  0  0  0  0  0  0  0  0
    8.2515    0.4754    2.5130 H   0  0  0  0  0  0  0  0  0  0  0  0
    5.9309   -0.0455    2.8424 H   0  0  0  0  0  0  0  0  0  0  0  0
    5.1977    0.7207   -1.3302 H   0  0  0  0  0  0  0  0  0  0  0  0
    7.5076    1.2329   -1.6288 H   0  0  0  0  0  0  0  0  0  0  0  0
    3.2592    0.2731   -0.9896 H   0  0  0  0  0  0  0  0  0  0  0  0
   -2.8348   -0.8241    1.1292 H   0  0  0  0  0  0  0  0  0  0  0  0
   -2.3996   -0.2422   -1.8254 H   0  0  0  0  0  0  0  0  0  0  0  0
   -4.6922    0.1450   -2.0753 H   0  0  0  0  0  0  0  0  0  0  0  0
   -4.7182   -1.3161   -1.0540 H   0  0  0  0  0  0  0  0  0  0  0  0
   -6.2687    0.3006   -0.1989 H   0  0  0  0  0  0  0  0  0  0  0  0
   -4.8473    0.3591    0.9718 H   0  0  0  0  0  0  0  0  0  0  0  0
   -5.6145    2.1507   -1.3878 H   0  0  0  0  0  0  0  0  0  0  0  0
   -5.4367    2.6156    0.3857 H   0  0  0  0  0  0  0  0  0  0  0  0
   -3.4533    2.6147   -1.8442 H   0  0  0  0  0  0  0  0  0  0  0  0
   -3.3406    3.2786   -0.2003 H   0  0  0  0  0  0  0  0  0  0  0  0
   -1.6261    1.6006   -0.7913 H   0  0  0  0  0  0  0  0  0  0  0  0
   -2.4560    1.2649    0.7362 H   0  0  0  0  0  0  0  0  0  0  0  0
   -3.8068   -3.1426    1.4299 H   0  0  0  0  0  0  0  0  0  0  0  0
  1  2  1  0
  2  3  2  0
  3  4  1  0
  4  5  2  0
  5  6  1  0
  6  7  2  0
  5  8  1  0
  8  9  2  0
  8 10  1  0
 10 11  1  0
 11 12  2  0
 12 13  1  0
 13 14  2  0
 14 15  1  0
 14 16  1  0
 16 17  1  0
 17 18  1  0
 18 19  1  0
 19 20  1  0
 20 21  1  0
 21 22  1  0
 16 23  1  0
 23 24  1  0
 24 25  2  0
 25 26  1  0
 26 27  2  0
  7  2  1  0
 15 11  1  0
 22 17  1  0
 27 23  1  0
  3 28  1  0
  4 29  1  0
  6 30  1  0
  7 31  1  0
 10 32  1  0
 16 33  1  0
 17 34  1  0
 18 35  1  0
 18 36  1  0
 19 37  1  0
 19 38  1  0
 20 39  1  0
 20 40  1  0
 21 41  1  0
 21 42  1  0
 22 43  1  0
 22 44  1  0
 24 45  1  0
M  END
$$$$
[H]OC(=O)[C@]1([H])O[C@@]([H])(n2c([H])nc3c(N([H])[H])nc([H])nc32)[C@@]([H])(O[H])[C@@]1([H])O[H]
     RDKit          3D

 31 33  0  0  0  0  0  0  0  0999 V2000
    5.1107    1.0733    0.5592 N   0  0  0  0  0  0  0  0  0  0  0  0
    4.0281    0.1512    0.5749 C   0  0  0  0  0  0  0  0  0  0  0  0
    4.1169   -1.0866    1.0893 N   0  0  0  0  0  0  0  0  0  0  0  0
    3.0498   -1.9052    1.0693 C   0  0  0  0  0  0  0  0  0  0  0  0
    1.8560   -1.5291    0.5398 N   0  0  0  0  0  0  0  0  0  0  0  0
    1.7144   -0.3129    0.0170 C   0  0  0  0  0  0  0  0  0  0  0  0
    0.6772    0.2902   -0.5515 N   0  0  0  0  0  0  0  0  0  0  0  0
    1.0992    1.5371   -0.9060 C   0  0  0  0  0  0  0  0  0  0  0  0
    2.3855    1.6779   -0.5499 N   0  0  0  0  0  0  0  0  0  0  0  0
    2.8013    0.5384    0.0305 C   0  0  0  0  0  0  0  0  0  0  0  0
   -0.6632   -0.1683   -0.8002 C   0  0  2  0  0  0  0  0  0  0  0  0
   -1.5905    0.8361   -0.8671 O   0  0  0  0  0  0  0  0  0  0  0  0
   -2.6956    0.4914   -0.1366 C   0  0  2  0  0  0  0  0  0  0  0  0
   -2.6509   -1.0373   -0.0125 C   0  0  2  0  0  0  0  0  0  0  0  0
   -3.3924   -1.5018    1.0359 O   0  0  0  0  0  0  0  0  0  0  0  0
   -1.1393   -1.1743    0.2284 C   0  0  2  0  0  0  0  0  0  0  0  0
   -0.8761   -0.6861    1.5066 O   0  0  0  0  0  0  0  0  0  0  0  0
   -3.9652    0.9566   -0.6913 C   0  0  0  0  0  0  0  0  0  0  0  0
   -3.9812    1.6807   -1.8611 O   0  0  0  0  0  0  0  0  0  0  0  0
   -5.0352    0.6884   -0.0901 O   0  0  0  0  0  0  0  0  0  0  0  0
    5.7137    1.1641   -0.2871 H   0  0  0  0  0  0  0  0  0  0  0  0
    5.2921    1.6549    1.4027 H   0  0  0  0  0  0  0  0  0  0  0  0
    3.1962   -2.8889    1.5023 H   0  0  0  0  0  0  0  0  0  0  0  0
    0.5151    2.3027   -1.3934 H   0  0  0  0  0  0  0  0  0  0  0  0
   -0.6998   -0.7132   -1.7890 H   0  0  0  0  0  0  0  0  0  0  0  0
   -2.5231    0.8663    0.9150 H   0  0  0  0  0  0  0  0  0  0  0  0
   -2.9141   -1.4278   -0.9980 H   0  0  0  0  0  0  0  0  0  0  0  0
   -3.9977   -2.2239    0.6738 H   0  0  0  0  0  0  0  0  0  0  0  0
   -0.7877   -2.1853    0.0527 H   0  0  0  0  0  0  0  0  0  0  0  0
   -0.5307    0.2339    1.5010 H   0  0  0  0  0  0  0  0  0  0  0  0
   -4.1135    2.6974   -1.7645 H   0  0  0  0  0  0  0  0  0  0  0  0
  1  2  1  0
  2  3  2  0
  3  4  1  0
  4  5  2  0
  5  6  1  0
  6  7  1  0
  7  8  1  0
  8  9  2  0
  9 10  1  0
  7 11  1  0
 11 12  1  0
 12 13  1  0
 13 14  1  0
 14 15  1  0
 14 16  1  0
 16 17  1  0
 13 18  1  0
 18 19  1  0
 18 20  2  0
 10  2  1  0
 16 11  1  0
 10  6  2  0
  1 21  1  0
  1 22  1  0
  4 23  1  0
  8 24  1  0
 11 25  1  6
 13 26  1  1
 14 27  1  6
 15 28  1  0
 16 29  1  6
 17 30  1  0
 19 31  1  0
M  END
$$$$
[H]/C(C(=O)O[C@@]1([H])C([H])([H])[C@]([H])(Oc2c([H])c([H])c(C(C([H])([H])[H])(C([H])([H])[H])C([H])([H])[H])c([H])c2[H])[C@@]([H])(N([H])C(=O)c2c([H])c([H])c(N([H])S(=O)(=O)C([H])([H])C([H])([H])[H])c([H])c2[H])C1([H])[H])=C(/[H])c1c([H])c([H])c(Cl)c([H])c1[H]
     RDKit          3D

 80 83  0  0  0  0  0  0  0  0999 V2000
   10.2464   -7.4614   -2.8459 Cl  0  0  0  0  0  0  0  0  0  0  0  0
    8.9963   -6.5742   -2.0114 C   0  0  0  0  0  0  0  0  0  0  0  0
    8.0240   -5.9310   -2.7196 C   0  0  0  0  0  0  0  0  0  0  0  0
    7.0061   -5.2086   -2.0865 C   0  0  0  0  0  0  0  0  0  0  0  0
    6.9558   -5.1250   -0.7199 C   0  0  0  0  0  0  0  0  0  0  0  0
    5.9462   -4.3910   -0.0102 C   0  0  0  0  0  0  0  0  0  0  0  0
    4.9930   -3.7007   -0.5748 C   0  0  0  0  0  0  0  0  0  0  0  0
    4.0061   -2.9833    0.2490 C   0  0  0  0  0  0  0  0  0  0  0  0
    4.0729   -3.0397    1.5099 O   0  0  0  0  0  0  0  0  0  0  0  0
    3.0038   -2.2443   -0.3696 O   0  0  0  0  0  0  0  0  0  0  0  0
    2.0817   -1.5706    0.4646 C   0  0  1  0  0  0  0  0  0  0  0  0
    2.1711   -0.0685    0.2790 C   0  0  0  0  0  0  0  0  0  0  0  0
    0.7226    0.4559    0.3033 C   0  0  2  0  0  0  0  0  0  0  0  0
    0.6457    1.5312    1.2216 O   0  0  0  0  0  0  0  0  0  0  0  0
    0.8648    2.8364    0.9164 C   0  0  0  0  0  0  0  0  0  0  0  0
    1.1978    3.2027   -0.3617 C   0  0  0  0  0  0  0  0  0  0  0  0
    1.4229    4.5362   -0.6492 C   0  0  0  0  0  0  0  0  0  0  0  0
    1.3207    5.4971    0.3113 C   0  0  0  0  0  0  0  0  0  0  0  0
    1.5806    6.9455    0.0091 C   0  0  0  0  0  0  0  0  0  0  0  0
    0.3822    7.7183    0.4898 C   0  0  0  0  0  0  0  0  0  0  0  0
    1.7763    7.0543   -1.4879 C   0  0  0  0  0  0  0  0  0  0  0  0
    2.8488    7.2964    0.7539 C   0  0  0  0  0  0  0  0  0  0  0  0
    0.9864    5.1393    1.5939 C   0  0  0  0  0  0  0  0  0  0  0  0
    0.7623    3.8026    1.8778 C   0  0  0  0  0  0  0  0  0  0  0  0
   -0.0501   -0.6973    0.7829 C   0  0  1  0  0  0  0  0  0  0  0  0
   -1.4298   -0.6213    0.3395 N   0  0  0  0  0  0  0  0  0  0  0  0
   -2.5115   -0.8619    1.2305 C   0  0  0  0  0  0  0  0  0  0  0  0
   -3.8744   -0.8023    0.7974 C   0  0  0  0  0  0  0  0  0  0  0  0
   -4.8499   -0.2987    1.6181 C   0  0  0  0  0  0  0  0  0  0  0  0
   -6.1866   -0.2585    1.2218 C   0  0  0  0  0  0  0  0  0  0  0  0
   -6.5557   -0.7382   -0.0359 C   0  0  0  0  0  0  0  0  0  0  0  0
   -7.9012   -0.6981   -0.4687 N   0  0  0  0  0  0  0  0  0  0  0  0
   -8.6449   -2.0385   -1.2058 S   0  0  0  0  0  0  0  0  0  0  0  0
   -9.9979   -2.7041   -0.2633 C   0  0  0  0  0  0  0  0  0  0  0  0
   -9.5105   -3.1589    1.0836 C   0  0  0  0  0  0  0  0  0  0  0  0
   -7.6325   -3.1736   -1.3089 O   0  0  0  0  0  0  0  0  0  0  0  0
   -9.1502   -1.6415   -2.5590 O   0  0  0  0  0  0  0  0  0  0  0  0
   -5.5726   -1.2435   -0.8547 C   0  0  0  0  0  0  0  0  0  0  0  0
   -4.2385   -1.2734   -0.4367 C   0  0  0  0  0  0  0  0  0  0  0  0
   -2.2406   -1.1336    2.4198 O   0  0  0  0  0  0  0  0  0  0  0  0
    0.6461   -1.8872    0.1276 C   0  0  0  0  0  0  0  0  0  0  0  0
    7.9556   -5.7872   -0.0153 C   0  0  0  0  0  0  0  0  0  0  0  0
    8.9584   -6.4985   -0.6264 C   0  0  0  0  0  0  0  0  0  0  0  0
    8.0293   -5.9703   -3.7983 H   0  0  0  0  0  0  0  0  0  0  0  0
    6.2568   -4.7176   -2.6666 H   0  0  0  0  0  0  0  0  0  0  0  0
    5.9530   -4.3922    1.0932 H   0  0  0  0  0  0  0  0  0  0  0  0
    4.9023   -3.6398   -1.6473 H   0  0  0  0  0  0  0  0  0  0  0  0
    2.2741   -1.7599    1.5308 H   0  0  0  0  0  0  0  0  0  0  0  0
    2.7238    0.4310    1.0856 H   0  0  0  0  0  0  0  0  0  0  0  0
    2.6430    0.2260   -0.6735 H   0  0  0  0  0  0  0  0  0  0  0  0
    0.4381    0.7455   -0.7280 H   0  0  0  0  0  0  0  0  0  0  0  0
    1.2972    2.4745   -1.1833 H   0  0  0  0  0  0  0  0  0  0  0  0
    1.6870    4.7924   -1.6805 H   0  0  0  0  0  0  0  0  0  0  0  0
    0.2990    8.6495   -0.1214 H   0  0  0  0  0  0  0  0  0  0  0  0
   -0.5651    7.1561    0.3519 H   0  0  0  0  0  0  0  0  0  0  0  0
    0.4861    7.9300    1.5753 H   0  0  0  0  0  0  0  0  0  0  0  0
    0.8700    6.6329   -1.9662 H   0  0  0  0  0  0  0  0  0  0  0  0
    1.8168    8.1438   -1.7266 H   0  0  0  0  0  0  0  0  0  0  0  0
    2.6934    6.5426   -1.7760 H   0  0  0  0  0  0  0  0  0  0  0  0
    3.6326    6.5797    0.4751 H   0  0  0  0  0  0  0  0  0  0  0  0
    3.0949    8.3506    0.4910 H   0  0  0  0  0  0  0  0  0  0  0  0
    2.6533    7.1689    1.8330 H   0  0  0  0  0  0  0  0  0  0  0  0
    0.8945    5.8736    2.3891 H   0  0  0  0  0  0  0  0  0  0  0  0
    0.4977    3.5785    2.9231 H   0  0  0  0  0  0  0  0  0  0  0  0
    0.0174   -0.8831    1.8775 H   0  0  0  0  0  0  0  0  0  0  0  0
   -1.5751   -0.3790   -0.6609 H   0  0  0  0  0  0  0  0  0  0  0  0
   -4.6339    0.0916    2.6066 H   0  0  0  0  0  0  0  0  0  0  0  0
   -6.9565    0.1388    1.8620 H   0  0  0  0  0  0  0  0  0  0  0  0
   -8.4883    0.1820   -0.3408 H   0  0  0  0  0  0  0  0  0  0  0  0
  -10.8320   -1.9754   -0.1710 H   0  0  0  0  0  0  0  0  0  0  0  0
  -10.3691   -3.5994   -0.8143 H   0  0  0  0  0  0  0  0  0  0  0  0
   -8.5991   -3.7636    0.9321 H   0  0  0  0  0  0  0  0  0  0  0  0
   -9.2716   -2.2977    1.7397 H   0  0  0  0  0  0  0  0  0  0  0  0
  -10.2965   -3.8042    1.5652 H   0  0  0  0  0  0  0  0  0  0  0  0
   -5.8421   -1.6216   -1.8361 H   0  0  0  0  0  0  0  0  0  0  0  0
   -3.5301   -1.6755   -1.1219 H   0  0  0  0  0  0  0  0  0  0  0  0
    0.5386   -1.8239   -0.9767 H   0  0  0  0  0  0  0  0  0  0  0  0
    0.3743   -2.8485    0.5578 H   0  0  0  0  0  0  0  0  0  0  0  0
    7.9390   -5.7389    1.0670 H   0  0  0  0  0  0  0  0  0  0  0  0
    9.7197   -6.9986   -0.0562 H   0  0  0  0  0  0  0  0  0  0  0  0
  1  2  1  0
  2  3  2  0
  3  4  1  0
  4  5  2  0
  5  6  1  0
  6  7  2  0
  7  8  1  0
  8  9  2  0
  8 10  1  0
 10 11  1  0
 11 12  1  0
 12 13  1  0
 13 14  1  0
 14 15  1  0
 15 16  2  0
 16 17  1  0
 17 18  2  0
 18 19  1  0
 19 20  1  0
 19 21  1  0
 19 22  1  0
 18 23  1  0
 23 24  2  0
 13 25  1  0
 25 26  1  0
 26 27  1  0
 27 28  1  0
 28 29  2  0
 29 30  1  0
 30 31  2  0
 31 32  1  0
 32 33  1  0
 33 34  1  0
 34 35  1  0
 33 36  2  0
 33 37  2  0
 31 38  1  0
 38 39  2  0
 27 40  2  0
 25 41  1  0
  5 42  1  0
 42 43  2  0
 43  2  1  0
 41 11  1  0
 24 15  1  0
 39 28  1  0
  3 44  1  0
  4 45  1  0
  6 46  1  0
  7 47  1  0
 11 48  1  1
 12 49  1  0
 12 50  1  0
 13 51  1  6
 16 52  1  0
 17 53  1  0
 20 54  1  0
 20 55  1  0
 20 56  1  0
 21 57  1  0
 21 58  1  0
 21 59  1  0
 22 60  1  0
 22 61  1  0
 22 62  1  0
 23 63  1  0
 24 64  1  0
 25 65  1  1
 26 66  1  0
 29 67  1  0
 30 68  1  0
 32 69  1  0
 34 70  1  0
 34 71  1  0
 35 72  1  0
 35 73  1  0
 35 74  1  0
 38 75  1  0
 39 76  1  0
 41 77  1  0
 41 78  1  0
 42 79  1  0
 43 80  1  0
M  END
$$$$
[H]c1nc(N([H])[H])c2nc([H])c(-c3c([H])c([H])c(N([H])C(=O)C(C([H])([H])[H])(C([H])([H])[H])C([H])([H])[H])c([H])c3[H])c([H])c2n1
     RDKit          3D

 43 45  0  0  0  0  0  0  0  0999 V2000
    6.1057   -0.2690   -1.6125 C   0  0  0  0  0  0  0  0  0  0  0  0
    5.3088    0.1126   -0.3970 C   0  0  0  0  0  0  0  0  0  0  0  0
    5.5651    1.5366    0.0162 C   0  0  0  0  0  0  0  0  0  0  0  0
    5.6231   -0.8745    0.7150 C   0  0  0  0  0  0  0  0  0  0  0  0
    3.8418   -0.0444   -0.7198 C   0  0  0  0  0  0  0  0  0  0  0  0
    3.6054   -0.4425   -1.8849 O   0  0  0  0  0  0  0  0  0  0  0  0
    2.8743    0.2459    0.2437 N   0  0  0  0  0  0  0  0  0  0  0  0
    1.4810    0.1703    0.1565 C   0  0  0  0  0  0  0  0  0  0  0  0
    0.6788    0.5066    1.2517 C   0  0  0  0  0  0  0  0  0  0  0  0
   -0.6858    0.4374    1.1812 C   0  0  0  0  0  0  0  0  0  0  0  0
   -1.3508    0.0410    0.0530 C   0  0  0  0  0  0  0  0  0  0  0  0
   -0.5787   -0.2932   -1.0329 C   0  0  0  0  0  0  0  0  0  0  0  0
    0.8090   -0.2243   -0.9653 C   0  0  0  0  0  0  0  0  0  0  0  0
   -2.8115   -0.0303   -0.0126 C   0  0  0  0  0  0  0  0  0  0  0  0
   -3.4709    0.2026   -1.2105 C   0  0  0  0  0  0  0  0  0  0  0  0
   -4.8100    0.1519   -1.3366 N   0  0  0  0  0  0  0  0  0  0  0  0
   -5.5673   -0.1315   -0.2854 C   0  0  0  0  0  0  0  0  0  0  0  0
   -6.9440   -0.1753   -0.4519 C   0  0  0  0  0  0  0  0  0  0  0  0
   -7.5756    0.0680   -1.6900 N   0  0  0  0  0  0  0  0  0  0  0  0
   -7.6648   -0.4687    0.6526 N   0  0  0  0  0  0  0  0  0  0  0  0
   -7.1090   -0.7084    1.8541 C   0  0  0  0  0  0  0  0  0  0  0  0
   -5.7685   -0.6542    1.9651 N   0  0  0  0  0  0  0  0  0  0  0  0
   -4.9521   -0.3701    0.9261 C   0  0  0  0  0  0  0  0  0  0  0  0
   -3.5835   -0.3262    1.0899 C   0  0  0  0  0  0  0  0  0  0  0  0
    7.1260    0.1921   -1.5586 H   0  0  0  0  0  0  0  0  0  0  0  0
    6.1938   -1.3524   -1.7413 H   0  0  0  0  0  0  0  0  0  0  0  0
    5.6084    0.1441   -2.5341 H   0  0  0  0  0  0  0  0  0  0  0  0
    4.8239    2.1757   -0.5017 H   0  0  0  0  0  0  0  0  0  0  0  0
    5.3939    1.6724    1.1118 H   0  0  0  0  0  0  0  0  0  0  0  0
    6.5798    1.8836   -0.2628 H   0  0  0  0  0  0  0  0  0  0  0  0
    6.0794   -1.8058    0.3010 H   0  0  0  0  0  0  0  0  0  0  0  0
    4.7062   -1.1867    1.2659 H   0  0  0  0  0  0  0  0  0  0  0  0
    6.3652   -0.4681    1.4367 H   0  0  0  0  0  0  0  0  0  0  0  0
    3.2562    0.5748    1.1879 H   0  0  0  0  0  0  0  0  0  0  0  0
    1.1478    0.8237    2.1605 H   0  0  0  0  0  0  0  0  0  0  0  0
   -1.2614    0.7148    2.0759 H   0  0  0  0  0  0  0  0  0  0  0  0
   -1.0648   -0.6184   -1.9646 H   0  0  0  0  0  0  0  0  0  0  0  0
    1.3402   -0.5012   -1.8545 H   0  0  0  0  0  0  0  0  0  0  0  0
   -2.8366    0.4371   -2.0780 H   0  0  0  0  0  0  0  0  0  0  0  0
   -8.3575   -0.5317   -2.0003 H   0  0  0  0  0  0  0  0  0  0  0  0
   -7.2623    0.8449   -2.2940 H   0  0  0  0  0  0  0  0  0  0  0  0
   -7.7441   -0.9433    2.7231 H   0  0  0  0  0  0  0  0  0  0  0  0
   -3.1146   -0.5161    2.0489 H   0  0  0  0  0  0  0  0  0  0  0  0
  1  2  1  0
  2  3  1  0
  2  4  1  0
  2  5  1  0
  5  6  2  0
  5  7  1  0
  7  8  1  0
  8  9  2  0
  9 10  1  0
 10 11  2  0
 11 12  1  0
 12 13  2  0
 11 14  1  0
 14 15  2  0
 15 16  1  0
 16 17  2  0
 17 18  1  0
 18 19  1  0
 18 20  2  0
 20 21  1  0
 21 22  2  0
 22 23  1  0
 23 24  2  0
 13  8  1  0
 24 14  1  0
 23 17  1  0
  1 25  1  0
  1 26  1  0
  1 27  1  0
  3 28  1  0
  3 29  1  0
  3 30  1  0
  4 31  1  0
  4 32  1  0
  4 33  1  0
  7 34  1  0
  9 35  1  0
 10 36  1  0
 12 37  1  0
 13 38  1  0
 15 39  1  0
 19 40  1  0
 19 41  1  0
 21 42  1  0
 24 43  1  0
M  END
$$$$
[H]c1c([H])c(-c2c([H])c(C(F)(F)F)c([H])c(C(F)(F)F)c2[H])c([H])c(C(=O)N([H])c2c([H])c([H])c(C#N)c(C(F)(F)F)c2[H])c1C#N
     RDKit          3D

 47 49  0  0  0  0  0  0  0  0999 V2000
    1.9839   -0.4613   -0.4200 C   0  0  0  0  0  0  0  0  0  0  0  0
    3.2526    0.2114   -0.1562 C   0  0  0  0  0  0  0  0  0  0  0  0
    3.9821    0.8125   -1.1463 C   0  0  0  0  0  0  0  0  0  0  0  0
    5.3347    1.1724   -0.9591 C   0  0  0  0  0  0  0  0  0  0  0  0
    6.0284    1.8504   -2.0535 C   0  0  0  0  0  0  0  0  0  0  0  0
    6.7091    0.8667   -2.7992 F   0  0  0  0  0  0  0  0  0  0  0  0
    6.8914    2.8595   -1.6283 F   0  0  0  0  0  0  0  0  0  0  0  0
    5.0948    2.3746   -2.9379 F   0  0  0  0  0  0  0  0  0  0  0  0
    5.9252    0.9013    0.2470 C   0  0  0  0  0  0  0  0  0  0  0  0
    5.2261    0.3087    1.2531 C   0  0  0  0  0  0  0  0  0  0  0  0
    5.8568   -0.1512    2.4955 C   0  0  0  0  0  0  0  0  0  0  0  0
    7.2239   -0.2692    2.3113 F   0  0  0  0  0  0  0  0  0  0  0  0
    5.6122    0.6421    3.6015 F   0  0  0  0  0  0  0  0  0  0  0  0
    5.3319   -1.4253    2.8390 F   0  0  0  0  0  0  0  0  0  0  0  0
    3.8806   -0.0528    1.0825 C   0  0  0  0  0  0  0  0  0  0  0  0
    0.8947   -0.3818    0.3131 C   0  0  0  0  0  0  0  0  0  0  0  0
   -0.1988   -1.2507    0.0614 C   0  0  0  0  0  0  0  0  0  0  0  0
   -1.4903   -0.8222    0.6906 C   0  0  0  0  0  0  0  0  0  0  0  0
   -1.5164   -0.5582    1.8809 O   0  0  0  0  0  0  0  0  0  0  0  0
   -2.5870   -0.7045   -0.1613 N   0  0  0  0  0  0  0  0  0  0  0  0
   -3.8730   -0.1300    0.2302 C   0  0  0  0  0  0  0  0  0  0  0  0
   -5.0904   -0.5237   -0.0123 C   0  0  0  0  0  0  0  0  0  0  0  0
   -6.2305    0.2580    0.2588 C   0  0  0  0  0  0  0  0  0  0  0  0
   -7.5624   -0.2604   -0.0781 C   0  0  0  0  0  0  0  0  0  0  0  0
   -8.4302   -0.2268    1.0236 F   0  0  0  0  0  0  0  0  0  0  0  0
   -7.4526   -1.6282   -0.4234 F   0  0  0  0  0  0  0  0  0  0  0  0
   -8.1283    0.3401   -1.1985 F   0  0  0  0  0  0  0  0  0  0  0  0
   -6.0623    1.4935    0.8189 C   0  0  0  0  0  0  0  0  0  0  0  0
   -7.1796    2.3391    1.0625 C   0  0  0  0  0  0  0  0  0  0  0  0
   -8.0934    3.0252    1.2085 N   0  0  0  0  0  0  0  0  0  0  0  0
   -4.7569    1.9395    1.0860 C   0  0  0  0  0  0  0  0  0  0  0  0
   -3.6703    1.1650    0.8109 C   0  0  0  0  0  0  0  0  0  0  0  0
   -0.1716   -2.1913   -0.9087 C   0  0  0  0  0  0  0  0  0  0  0  0
   -1.1759   -3.1375   -1.1100 C   0  0  0  0  0  0  0  0  0  0  0  0
   -2.0068   -3.9802   -1.2499 N   0  0  0  0  0  0  0  0  0  0  0  0
    0.9986   -2.2992   -1.7178 C   0  0  0  0  0  0  0  0  0  0  0  0
    2.0379   -1.4248   -1.4512 C   0  0  0  0  0  0  0  0  0  0  0  0
    3.5264    1.0799   -2.1193 H   0  0  0  0  0  0  0  0  0  0  0  0
    6.9945    1.1456    0.4280 H   0  0  0  0  0  0  0  0  0  0  0  0
    3.3242   -0.5077    1.8695 H   0  0  0  0  0  0  0  0  0  0  0  0
    0.7387    0.3698    1.0751 H   0  0  0  0  0  0  0  0  0  0  0  0
   -2.5450   -1.0379   -1.1560 H   0  0  0  0  0  0  0  0  0  0  0  0
   -5.2981   -1.5115   -0.4508 H   0  0  0  0  0  0  0  0  0  0  0  0
   -4.6284    2.9032    1.5830 H   0  0  0  0  0  0  0  0  0  0  0  0
   -2.6668    1.4529    1.0058 H   0  0  0  0  0  0  0  0  0  0  0  0
    1.0362   -3.0702   -2.4627 H   0  0  0  0  0  0  0  0  0  0  0  0
    2.9301   -1.5052   -2.0444 H   0  0  0  0  0  0  0  0  0  0  0  0
  1  2  1  0
  2  3  2  0
  3  4  1  0
  4  5  1  0
  5  6  1  0
  5  7  1  0
  5  8  1  0
  4  9  2  0
  9 10  1  0
 10 11  1  0
 11 12  1  0
 11 13  1  0
 11 14  1  0
 10 15  2  0
  1 16  2  0
 16 17  1  0
 17 18  1  0
 18 19  2  0
 18 20  1  0
 20 21  1  0
 21 22  2  0
 22 23  1  0
 23 24  1  0
 24 25  1  0
 24 26  1  0
 24 27  1  0
 23 28  2  0
 28 29  1  0
 29 30  3  0
 28 31  1  0
 31 32  2  0
 17 33  2  0
 33 34  1  0
 34 35  3  0
 33 36  1  0
 36 37  2  0
 37  1  1  0
 15  2  1  0
 32 21  1  0
  3 38  1  0
  9 39  1  0
 15 40  1  0
 16 41  1  0
 20 42  1  0
 22 43  1  0
 31 44  1  0
 32 45  1  0
 36 46  1  0
 37 47  1  0
M  END
$$$$
[H]c1c([H])c([H])c2c(c1[H])C([H])([H])[C@]1([H])C([H])([H])c3c([H])c(N([H])C(=O)c4c([H])c([H])c(F)c(C(F)(F)F)c4[H])c([H])c([H])c3C([H])([H])[C@]21[H]
     RDKit          3D

 50 54  0  0  0  0  0  0  0  0999 V2000
    7.2882   -0.3327    0.6982 C   0  0  0  0  0  0  0  0  0  0  0  0
    8.4641    0.1835    1.4292 C   0  0  0  0  0  0  0  0  0  0  0  0
    9.4536    0.4664    0.5006 F   0  0  0  0  0  0  0  0  0  0  0  0
    8.9154   -0.6930    2.3970 F   0  0  0  0  0  0  0  0  0  0  0  0
    8.1809    1.3730    2.0719 F   0  0  0  0  0  0  0  0  0  0  0  0
    6.0829    0.3214    0.7739 C   0  0  0  0  0  0  0  0  0  0  0  0
    4.9548   -0.1481    0.0904 C   0  0  0  0  0  0  0  0  0  0  0  0
    3.6843    0.6039    0.2008 C   0  0  0  0  0  0  0  0  0  0  0  0
    3.7764    1.8226    0.5350 O   0  0  0  0  0  0  0  0  0  0  0  0
    2.4886   -0.0536   -0.0614 N   0  0  0  0  0  0  0  0  0  0  0  0
    1.1691    0.4595   -0.0248 C   0  0  0  0  0  0  0  0  0  0  0  0
    0.8570    1.7802    0.1271 C   0  0  0  0  0  0  0  0  0  0  0  0
   -0.4786    2.2079    0.1670 C   0  0  0  0  0  0  0  0  0  0  0  0
   -1.5019    1.2686    0.0494 C   0  0  0  0  0  0  0  0  0  0  0  0
   -1.2137   -0.0708   -0.1056 C   0  0  0  0  0  0  0  0  0  0  0  0
    0.0948   -0.4576   -0.1406 C   0  0  0  0  0  0  0  0  0  0  0  0
   -2.3841   -0.9758   -0.2316 C   0  0  0  0  0  0  0  0  0  0  0  0
   -3.1723   -0.3583   -1.3970 C   0  0  2  0  0  0  0  0  0  0  0  0
   -3.7686    0.9284   -0.8938 C   0  0  1  0  0  0  0  0  0  0  0  0
   -5.0816    0.5270   -0.3717 C   0  0  0  0  0  0  0  0  0  0  0  0
   -5.4164   -0.6881   -0.9033 C   0  0  0  0  0  0  0  0  0  0  0  0
   -6.6064   -1.3438   -0.6110 C   0  0  0  0  0  0  0  0  0  0  0  0
   -7.5181   -0.7720    0.2530 C   0  0  0  0  0  0  0  0  0  0  0  0
   -7.1935    0.4481    0.7939 C   0  0  0  0  0  0  0  0  0  0  0  0
   -6.0100    1.0910    0.4976 C   0  0  0  0  0  0  0  0  0  0  0  0
   -4.3314   -1.1949   -1.8185 C   0  0  0  0  0  0  0  0  0  0  0  0
   -2.9288    1.6592    0.0961 C   0  0  0  0  0  0  0  0  0  0  0  0
    5.0706   -1.2802   -0.6628 C   0  0  0  0  0  0  0  0  0  0  0  0
    6.2950   -1.9642   -0.7531 C   0  0  0  0  0  0  0  0  0  0  0  0
    7.3863   -1.4713   -0.0648 C   0  0  0  0  0  0  0  0  0  0  0  0
    8.5695   -2.1562   -0.1688 F   0  0  0  0  0  0  0  0  0  0  0  0
    5.9500    1.2211    1.3593 H   0  0  0  0  0  0  0  0  0  0  0  0
    2.5778   -1.0919   -0.3228 H   0  0  0  0  0  0  0  0  0  0  0  0
    1.6369    2.5165    0.2122 H   0  0  0  0  0  0  0  0  0  0  0  0
   -0.7040    3.2570    0.2880 H   0  0  0  0  0  0  0  0  0  0  0  0
    0.2960   -1.5129   -0.2622 H   0  0  0  0  0  0  0  0  0  0  0  0
   -3.0089   -0.8900    0.6854 H   0  0  0  0  0  0  0  0  0  0  0  0
   -2.1094   -2.0058   -0.4834 H   0  0  0  0  0  0  0  0  0  0  0  0
   -2.4880   -0.0938   -2.2286 H   0  0  0  0  0  0  0  0  0  0  0  0
   -3.9611    1.6438   -1.7400 H   0  0  0  0  0  0  0  0  0  0  0  0
   -6.8349   -2.3021   -1.0510 H   0  0  0  0  0  0  0  0  0  0  0  0
   -8.4305   -1.3083    0.4571 H   0  0  0  0  0  0  0  0  0  0  0  0
   -7.9057    0.8960    1.4698 H   0  0  0  0  0  0  0  0  0  0  0  0
   -5.7371    2.0555    0.9158 H   0  0  0  0  0  0  0  0  0  0  0  0
   -4.5841   -0.9964   -2.8733 H   0  0  0  0  0  0  0  0  0  0  0  0
   -4.1132   -2.2489   -1.6045 H   0  0  0  0  0  0  0  0  0  0  0  0
   -3.0240    2.7645   -0.0095 H   0  0  0  0  0  0  0  0  0  0  0  0
   -3.2600    1.4577    1.1577 H   0  0  0  0  0  0  0  0  0  0  0  0
    4.2291   -1.6749   -1.2117 H   0  0  0  0  0  0  0  0  0  0  0  0
    6.3451   -2.8672   -1.3670 H   0  0  0  0  0  0  0  0  0  0  0  0
  1  2  1  0
  2  3  1  0
  2  4  1  0
  2  5  1  0
  1  6  2  0
  6  7  1  0
  7  8  1  0
  8  9  2  0
  8 10  1  0
 10 11  1  0
 11 12  2  0
 12 13  1  0
 13 14  2  0
 14 15  1  0
 15 16  2  0
 15 17  1  0
 17 18  1  0
 18 19  1  0
 19 20  1  0
 20 21  2  0
 21 22  1  0
 22 23  2  0
 23 24  1  0
 24 25  2  0
 21 26  1  0
 19 27  1  0
  7 28  2  0
 28 29  1  0
 29 30  2  0
 30 31  1  0
 30  1  1  0
 16 11  1  0
 26 18  1  0
 27 14  1  0
 25 20  1  0
  6 32  1  0
 10 33  1  0
 12 34  1  0
 13 35  1  0
 16 36  1  0
 17 37  1  0
 17 38  1  0
 18 39  1  6
 19 40  1  6
 22 41  1  0
 23 42  1  0
 24 43  1  0
 25 44  1  0
 26 45  1  0
 26 46  1  0
 27 47  1  0
 27 48  1  0
 28 49  1  0
 29 50  1  0
M  END
$$$$
[H]c1nnc(-c2c([H])c([H])c([H])c(C(=O)N([H])c3c([H])c([H])c(C([H])([H])[H])c(-c4c([H])c(OC([H])([H])C([H])(F)F)nc(C5([H])OC([H])([H])C([H])([H])OC5([H])[H])c4[H])c3[H])c2[H])o1
     RDKit          3D

 62 66  0  0  0  0  0  0  0  0999 V2000
   -0.7140   -4.0178   -1.5367 C   0  0  0  0  0  0  0  0  0  0  0  0
    0.2510   -2.9445   -1.2827 C   0  0  0  0  0  0  0  0  0  0  0  0
    1.5503   -3.1549   -1.6996 C   0  0  0  0  0  0  0  0  0  0  0  0
    2.4955   -2.2021   -1.5145 C   0  0  0  0  0  0  0  0  0  0  0  0
    2.1788   -0.9911   -0.9008 C   0  0  0  0  0  0  0  0  0  0  0  0
    3.1982   -0.0298   -0.7105 N   0  0  0  0  0  0  0  0  0  0  0  0
    3.0886    1.3301   -0.4065 C   0  0  0  0  0  0  0  0  0  0  0  0
    1.9616    1.8733   -0.2686 O   0  0  0  0  0  0  0  0  0  0  0  0
    4.2423    2.2031   -0.2303 C   0  0  0  0  0  0  0  0  0  0  0  0
    4.1040    3.5639   -0.1862 C   0  0  0  0  0  0  0  0  0  0  0  0
    5.1643    4.4225   -0.0171 C   0  0  0  0  0  0  0  0  0  0  0  0
    6.4306    3.9011    0.1156 C   0  0  0  0  0  0  0  0  0  0  0  0
    6.6132    2.5365    0.0770 C   0  0  0  0  0  0  0  0  0  0  0  0
    5.5096    1.6953   -0.0968 C   0  0  0  0  0  0  0  0  0  0  0  0
    7.9540    1.9974    0.2182 C   0  0  0  0  0  0  0  0  0  0  0  0
    9.1189    2.6393    0.3821 N   0  0  0  0  0  0  0  0  0  0  0  0
   10.0743    1.7220    0.4629 N   0  0  0  0  0  0  0  0  0  0  0  0
    9.4994    0.5042    0.3486 C   0  0  0  0  0  0  0  0  0  0  0  0
    8.2337    0.7201    0.2045 O   0  0  0  0  0  0  0  0  0  0  0  0
    0.8799   -0.8102   -0.4962 C   0  0  0  0  0  0  0  0  0  0  0  0
   -0.1196   -1.7782   -0.6743 C   0  0  0  0  0  0  0  0  0  0  0  0
   -1.4721   -1.5616   -0.2184 C   0  0  0  0  0  0  0  0  0  0  0  0
   -2.1312   -2.4532    0.5837 C   0  0  0  0  0  0  0  0  0  0  0  0
   -3.4329   -2.2870    1.0375 C   0  0  0  0  0  0  0  0  0  0  0  0
   -3.9207   -3.2909    1.8342 O   0  0  0  0  0  0  0  0  0  0  0  0
   -5.2162   -3.2593    2.3591 C   0  0  0  0  0  0  0  0  0  0  0  0
   -6.2635   -3.2511    1.2930 C   0  0  0  0  0  0  0  0  0  0  0  0
   -6.1656   -4.3889    0.4919 F   0  0  0  0  0  0  0  0  0  0  0  0
   -7.4907   -3.4234    1.9653 F   0  0  0  0  0  0  0  0  0  0  0  0
   -4.0531   -1.1838    0.6536 N   0  0  0  0  0  0  0  0  0  0  0  0
   -3.4692   -0.2694   -0.1297 C   0  0  0  0  0  0  0  0  0  0  0  0
   -2.1597   -0.4265   -0.5924 C   0  0  0  0  0  0  0  0  0  0  0  0
   -4.2619    0.9325   -0.4969 C   0  0  0  0  0  0  0  0  0  0  0  0
   -5.4081    1.1135    0.5004 C   0  0  0  0  0  0  0  0  0  0  0  0
   -6.1910    2.1584    0.0111 O   0  0  0  0  0  0  0  0  0  0  0  0
   -5.4278    3.3305    0.1374 C   0  0  0  0  0  0  0  0  0  0  0  0
   -4.2187    3.1724   -0.7571 C   0  0  0  0  0  0  0  0  0  0  0  0
   -3.4590    2.0662   -0.3687 O   0  0  0  0  0  0  0  0  0  0  0  0
   -0.6249   -4.8020   -0.7488 H   0  0  0  0  0  0  0  0  0  0  0  0
   -0.4122   -4.5363   -2.4921 H   0  0  0  0  0  0  0  0  0  0  0  0
   -1.7535   -3.6889   -1.7266 H   0  0  0  0  0  0  0  0  0  0  0  0
    1.8283   -4.1014   -2.1869 H   0  0  0  0  0  0  0  0  0  0  0  0
    3.5226   -2.4018   -1.8592 H   0  0  0  0  0  0  0  0  0  0  0  0
    4.1965   -0.4277   -0.8180 H   0  0  0  0  0  0  0  0  0  0  0  0
    3.1026    3.9997   -0.2900 H   0  0  0  0  0  0  0  0  0  0  0  0
    5.0685    5.4998    0.0196 H   0  0  0  0  0  0  0  0  0  0  0  0
    7.2980    4.5739    0.2522 H   0  0  0  0  0  0  0  0  0  0  0  0
    5.7394    0.6437   -0.1139 H   0  0  0  0  0  0  0  0  0  0  0  0
    9.9702   -0.4668    0.3692 H   0  0  0  0  0  0  0  0  0  0  0  0
    0.5357    0.1037    0.0059 H   0  0  0  0  0  0  0  0  0  0  0  0
   -1.5713   -3.3472    0.8801 H   0  0  0  0  0  0  0  0  0  0  0  0
   -5.3183   -2.3728    3.0270 H   0  0  0  0  0  0  0  0  0  0  0  0
   -5.4342   -4.1312    3.0171 H   0  0  0  0  0  0  0  0  0  0  0  0
   -6.2921   -2.3266    0.6935 H   0  0  0  0  0  0  0  0  0  0  0  0
   -1.7292    0.3449   -1.2269 H   0  0  0  0  0  0  0  0  0  0  0  0
   -4.7062    0.8151   -1.4878 H   0  0  0  0  0  0  0  0  0  0  0  0
   -6.0347    0.2172    0.5849 H   0  0  0  0  0  0  0  0  0  0  0  0
   -4.9876    1.4606    1.4756 H   0  0  0  0  0  0  0  0  0  0  0  0
   -5.1597    3.4694    1.1921 H   0  0  0  0  0  0  0  0  0  0  0  0
   -6.0059    4.1938   -0.2067 H   0  0  0  0  0  0  0  0  0  0  0  0
   -4.5960    3.0261   -1.7827 H   0  0  0  0  0  0  0  0  0  0  0  0
   -3.6093    4.0959   -0.7222 H   0  0  0  0  0  0  0  0  0  0  0  0
  1  2  1  0
  2  3  2  0
  3  4  1  0
  4  5  2  0
  5  6  1  0
  6  7  1  0
  7  8  2  0
  7  9  1  0
  9 10  2  0
 10 11  1  0
 11 12  2  0
 12 13  1  0
 13 14  2  0
 13 15  1  0
 15 16  2  0
 16 17  1  0
 17 18  2  0
 18 19  1  0
  5 20  1  0
 20 21  2  0
 21 22  1  0
 22 23  2  0
 23 24  1  0
 24 25  1  0
 25 26  1  0
 26 27  1  0
 27 28  1  0
 27 29  1  0
 24 30  2  0
 30 31  1  0
 31 32  2  0
 31 33  1  0
 33 34  1  0
 34 35  1  0
 35 36  1  0
 36 37  1  0
 37 38  1  0
 21  2  1  0
 32 22  1  0
 38 33  1  0
 14  9  1  0
 19 15  1  0
  1 39  1  0
  1 40  1  0
  1 41  1  0
  3 42  1  0
  4 43  1  0
  6 44  1  0
 10 45  1  0
 11 46  1  0
 12 47  1  0
 14 48  1  0
 18 49  1  0
 20 50  1  0
 23 51  1  0
 26 52  1  0
 26 53  1  0
 27 54  1  0
 32 55  1  0
 33 56  1  0
 34 57  1  0
 34 58  1  0
 36 59  1  0
 36 60  1  0
 37 61  1  0
 37 62  1  0
M  END
$$$$
[H]OC(=O)C([H])([H])C(=O)N([H])C([H])([H])C([H])([H])O[H]
     RDKit          3D

 19 18  0  0  0  0  0  0  0  0999 V2000
    3.7488   -0.6462    0.4370 O   0  0  0  0  0  0  0  0  0  0  0  0
    2.3889   -0.7699    0.0721 C   0  0  0  0  0  0  0  0  0  0  0  0
    1.8550    0.6481   -0.0028 C   0  0  0  0  0  0  0  0  0  0  0  0
    0.4726    0.7164   -0.3649 N   0  0  0  0  0  0  0  0  0  0  0  0
   -0.5522    0.1028    0.4225 C   0  0  0  0  0  0  0  0  0  0  0  0
   -0.2939   -0.5298    1.4760 O   0  0  0  0  0  0  0  0  0  0  0  0
   -1.9774    0.1902    0.0217 C   0  0  0  0  0  0  0  0  0  0  0  0
   -2.9133   -0.4818    0.9190 C   0  0  0  0  0  0  0  0  0  0  0  0
   -4.2630   -0.4388    0.6032 O   0  0  0  0  0  0  0  0  0  0  0  0
   -2.5195   -1.0812    1.9445 O   0  0  0  0  0  0  0  0  0  0  0  0
    4.2187   -0.0202   -0.1931 H   0  0  0  0  0  0  0  0  0  0  0  0
    2.2904   -1.2854   -0.9036 H   0  0  0  0  0  0  0  0  0  0  0  0
    1.9234   -1.3854    0.8400 H   0  0  0  0  0  0  0  0  0  0  0  0
    2.0178    1.1897    0.9592 H   0  0  0  0  0  0  0  0  0  0  0  0
    2.4760    1.1718   -0.7462 H   0  0  0  0  0  0  0  0  0  0  0  0
    0.1953    1.2281   -1.2288 H   0  0  0  0  0  0  0  0  0  0  0  0
   -2.0228   -0.2980   -0.9986 H   0  0  0  0  0  0  0  0  0  0  0  0
   -2.2743    1.2667   -0.0788 H   0  0  0  0  0  0  0  0  0  0  0  0
   -4.7706    0.4229    0.4310 H   0  0  0  0  0  0  0  0  0  0  0  0
  1  2  1  0
  2  3  1  0
  3  4  1  0
  4  5  1  0
  5  6  2  0
  5  7  1  0
  7  8  1  0
  8  9  1  0
  8 10  2  0
  1 11  1  0
  2 12  1  0
  2 13  1  0
  3 14  1  0
  3 15  1  0
  4 16  1  0
  7 17  1  0
  7 18  1  0
  9 19  1  0
M  END
$$$$
[H]OC(=O)[C@@]([H])(N([H])C(=O)[C@@]([H])(N([H])[H])C([H])([H])C([H])([H])SC([H])([H])[H])C([H])([H])c1c([H])c([H])c(-c2c([H])c([H])c([H])c([H])c2[H])c([H])c1[H]
     RDKit          3D

 50 51  0  0  0  0  0  0  0  0999 V2000
    7.7723    0.6602   -0.2954 C   0  0  0  0  0  0  0  0  0  0  0  0
    7.0422    1.8737    0.7654 S   0  0  0  0  0  0  0  0  0  0  0  0
    6.0595    1.3384    2.1242 C   0  0  0  0  0  0  0  0  0  0  0  0
    4.7072    0.8103    1.9395 C   0  0  0  0  0  0  0  0  0  0  0  0
    4.4380   -0.3810    1.1079 C   0  0  2  0  0  0  0  0  0  0  0  0
    4.7931   -0.1828   -0.2548 N   0  0  0  0  0  0  0  0  0  0  0  0
    2.9690   -0.6695    1.1849 C   0  0  0  0  0  0  0  0  0  0  0  0
    2.4403   -0.8896    2.3287 O   0  0  0  0  0  0  0  0  0  0  0  0
    2.2182   -0.6897    0.0002 N   0  0  0  0  0  0  0  0  0  0  0  0
    0.7737   -0.9662   -0.0046 C   0  0  1  0  0  0  0  0  0  0  0  0
    0.1341    0.2787   -0.5275 C   0  0  0  0  0  0  0  0  0  0  0  0
   -1.3339    0.2396   -0.6235 C   0  0  0  0  0  0  0  0  0  0  0  0
   -2.1056    0.6081    0.4723 C   0  0  0  0  0  0  0  0  0  0  0  0
   -3.4790    0.6123    0.4550 C   0  0  0  0  0  0  0  0  0  0  0  0
   -4.1478    0.2302   -0.7132 C   0  0  0  0  0  0  0  0  0  0  0  0
   -3.3869   -0.1299   -1.7834 C   0  0  0  0  0  0  0  0  0  0  0  0
   -1.9915   -0.1301   -1.7540 C   0  0  0  0  0  0  0  0  0  0  0  0
   -5.5907    0.2320   -0.7371 C   0  0  0  0  0  0  0  0  0  0  0  0
   -6.3109   -0.0493    0.4131 C   0  0  0  0  0  0  0  0  0  0  0  0
   -7.6985   -0.0456    0.3900 C   0  0  0  0  0  0  0  0  0  0  0  0
   -8.4000    0.2356   -0.7683 C   0  0  0  0  0  0  0  0  0  0  0  0
   -7.6593    0.5132   -1.9029 C   0  0  0  0  0  0  0  0  0  0  0  0
   -6.2960    0.5092   -1.8787 C   0  0  0  0  0  0  0  0  0  0  0  0
    0.5427   -2.1783   -0.8046 C   0  0  0  0  0  0  0  0  0  0  0  0
   -0.6877   -2.7813   -1.0149 O   0  0  0  0  0  0  0  0  0  0  0  0
    1.5230   -2.7457   -1.3603 O   0  0  0  0  0  0  0  0  0  0  0  0
    7.4146    0.7609   -1.3461 H   0  0  0  0  0  0  0  0  0  0  0  0
    8.8921    0.8710   -0.4026 H   0  0  0  0  0  0  0  0  0  0  0  0
    7.7541   -0.3861    0.0539 H   0  0  0  0  0  0  0  0  0  0  0  0
    5.9539    2.2536    2.8209 H   0  0  0  0  0  0  0  0  0  0  0  0
    6.6397    0.6392    2.8261 H   0  0  0  0  0  0  0  0  0  0  0  0
    4.0391    1.6797    1.5873 H   0  0  0  0  0  0  0  0  0  0  0  0
    4.2805    0.6548    2.9909 H   0  0  0  0  0  0  0  0  0  0  0  0
    4.9163   -1.3126    1.5340 H   0  0  0  0  0  0  0  0  0  0  0  0
    4.2909    0.6428   -0.6311 H   0  0  0  0  0  0  0  0  0  0  0  0
    4.6154   -0.9996   -0.8468 H   0  0  0  0  0  0  0  0  0  0  0  0
    2.6643   -0.5091   -0.9096 H   0  0  0  0  0  0  0  0  0  0  0  0
    0.4797   -1.1476    1.0687 H   0  0  0  0  0  0  0  0  0  0  0  0
    0.4634    1.1210    0.1494 H   0  0  0  0  0  0  0  0  0  0  0  0
    0.5472    0.5727   -1.5326 H   0  0  0  0  0  0  0  0  0  0  0  0
   -1.5716    0.9015    1.3689 H   0  0  0  0  0  0  0  0  0  0  0  0
   -4.0067    0.9126    1.3500 H   0  0  0  0  0  0  0  0  0  0  0  0
   -3.8340   -0.4342   -2.7099 H   0  0  0  0  0  0  0  0  0  0  0  0
   -1.4289   -0.4225   -2.6239 H   0  0  0  0  0  0  0  0  0  0  0  0
   -5.8435   -0.2801    1.3614 H   0  0  0  0  0  0  0  0  0  0  0  0
   -8.2796   -0.2627    1.2752 H   0  0  0  0  0  0  0  0  0  0  0  0
   -9.4795    0.2352   -0.7711 H   0  0  0  0  0  0  0  0  0  0  0  0
   -8.1632    0.7408   -2.8370 H   0  0  0  0  0  0  0  0  0  0  0  0
   -5.7567    0.7330   -2.7926 H   0  0  0  0  0  0  0  0  0  0  0  0
   -0.9132   -3.2668   -1.8777 H   0  0  0  0  0  0  0  0  0  0  0  0
  1  2  1  0
  2  3  1  0
  3  4  1  0
  4  5  1  0
  5  6  1  0
  5  7  1  0
  7  8  2  0
  7  9  1  0
  9 10  1  0
 10 11  1  0
 11 12  1  0
 12 13  2  0
 13 14  1  0
 14 15  2  0
 15 16  1  0
 16 17  2  0
 15 18  1  0
 18 19  2  0
 19 20  1  0
 20 21  2  0
 21 22  1  0
 22 23  2  0
 10 24  1  0
 24 25  1  0
 24 26  2  0
 17 12  1  0
 23 18  1  0
  1 27  1  0
  1 28  1  0
  1 29  1  0
  3 30  1  0
  3 31  1  0
  4 32  1  0
  4 33  1  0
  5 34  1  1
  6 35  1  0
  6 36  1  0
  9 37  1  0
 10 38  1  1
 11 39  1  0
 11 40  1  0
 13 41  1  0
 14 42  1  0
 16 43  1  0
 17 44  1  0
 19 45  1  0
 20 46  1  0
 21 47  1  0
 22 48  1  0
 23 49  1  0
 25 50  1  0
M  END
$$$$
[H]c1nc([H])c([H])c(C([H])([H])OC(=O)c2c([H])c([H])c(-c3nn(C(F)(F)F)c([H])c3[H])c([H])c2[H])c1[H]
     RDKit          3D

 37 39  0  0  0  0  0  0  0  0999 V2000
    2.3331   -0.9818   -1.2814 O   0  0  0  0  0  0  0  0  0  0  0  0
    1.7703   -0.9343   -0.1609 C   0  0  0  0  0  0  0  0  0  0  0  0
    2.5054   -1.1502    0.9751 O   0  0  0  0  0  0  0  0  0  0  0  0
    3.8738   -1.4276    1.0155 C   0  0  0  0  0  0  0  0  0  0  0  0
    4.7374   -0.3704    0.4449 C   0  0  0  0  0  0  0  0  0  0  0  0
    4.3009    0.9048    0.1729 C   0  0  0  0  0  0  0  0  0  0  0  0
    5.1989    1.8066   -0.3628 C   0  0  0  0  0  0  0  0  0  0  0  0
    6.4883    1.4603   -0.6220 N   0  0  0  0  0  0  0  0  0  0  0  0
    6.9320    0.2195   -0.3627 C   0  0  0  0  0  0  0  0  0  0  0  0
    6.0679   -0.6951    0.1674 C   0  0  0  0  0  0  0  0  0  0  0  0
    0.3323   -0.6449   -0.1400 C   0  0  0  0  0  0  0  0  0  0  0  0
   -0.2935   -0.5925    1.1107 C   0  0  0  0  0  0  0  0  0  0  0  0
   -1.6516   -0.3187    1.1215 C   0  0  0  0  0  0  0  0  0  0  0  0
   -2.3756   -0.1048   -0.0197 C   0  0  0  0  0  0  0  0  0  0  0  0
   -1.7287   -0.1641   -1.2261 C   0  0  0  0  0  0  0  0  0  0  0  0
   -0.3617   -0.4354   -1.3088 C   0  0  0  0  0  0  0  0  0  0  0  0
   -3.7948    0.1760    0.0811 C   0  0  0  0  0  0  0  0  0  0  0  0
   -4.5247    0.2538    1.2579 C   0  0  0  0  0  0  0  0  0  0  0  0
   -5.8113    0.5376    0.8553 C   0  0  0  0  0  0  0  0  0  0  0  0
   -5.8856    0.6319   -0.4829 N   0  0  0  0  0  0  0  0  0  0  0  0
   -4.6679    0.4130   -0.9406 N   0  0  0  0  0  0  0  0  0  0  0  0
   -7.0887    0.9223   -1.2806 C   0  0  0  0  0  0  0  0  0  0  0  0
   -6.7179    1.3734   -2.5336 F   0  0  0  0  0  0  0  0  0  0  0  0
   -7.7557   -0.2868   -1.4793 F   0  0  0  0  0  0  0  0  0  0  0  0
   -7.8746    1.8298   -0.6182 F   0  0  0  0  0  0  0  0  0  0  0  0
    4.1278   -2.3697    0.4709 H   0  0  0  0  0  0  0  0  0  0  0  0
    4.1693   -1.6240    2.0835 H   0  0  0  0  0  0  0  0  0  0  0  0
    3.2804    1.1971    0.3744 H   0  0  0  0  0  0  0  0  0  0  0  0
    4.8432    2.8185   -0.5761 H   0  0  0  0  0  0  0  0  0  0  0  0
    7.9573   -0.0238   -0.5787 H   0  0  0  0  0  0  0  0  0  0  0  0
    6.4252   -1.6918    0.3754 H   0  0  0  0  0  0  0  0  0  0  0  0
    0.2740   -0.7609    2.0168 H   0  0  0  0  0  0  0  0  0  0  0  0
   -2.1626   -0.2719    2.0752 H   0  0  0  0  0  0  0  0  0  0  0  0
   -2.2716    0.0008   -2.1568 H   0  0  0  0  0  0  0  0  0  0  0  0
    0.1544   -0.4832   -2.2647 H   0  0  0  0  0  0  0  0  0  0  0  0
   -4.1567    0.1194    2.2720 H   0  0  0  0  0  0  0  0  0  0  0  0
   -6.6487    0.6671    1.5254 H   0  0  0  0  0  0  0  0  0  0  0  0
  1  2  2  0
  2  3  1  0
  3  4  1  0
  4  5  1  0
  5  6  2  0
  6  7  1  0
  7  8  2  0
  8  9  1  0
  9 10  2  0
  2 11  1  0
 11 12  2  0
 12 13  1  0
 13 14  2  0
 14 15  1  0
 15 16  2  0
 14 17  1  0
 17 18  1  0
 18 19  2  0
 19 20  1  0
 20 21  1  0
 20 22  1  0
 22 23  1  0
 22 24  1  0
 22 25  1  0
 10  5  1  0
 16 11  1  0
 21 17  2  0
  4 26  1  0
  4 27  1  0
  6 28  1  0
  7 29  1  0
  9 30  1  0
 10 31  1  0
 12 32  1  0
 13 33  1  0
 15 34  1  0
 16 35  1  0
 18 36  1  0
 19 37  1  0
M  END
$$$$
[H]/C(C(=O)O[C@@]1([H])c2c([H])c([H])c([H])c([H])c2[C@]([H])(C(=O)N([H])c2c([H])c([H])c([H])c([H])c2[H])[C@@]2([H])N(C([H])([H])C([H])([H])C2([H])[H])C1([H])[H])=C(/[H])c1c([H])c([H])c([H])c([H])c1SC([H])([H])C([H])([H])[H]
     RDKit          3D

 69 73  0  0  0  0  0  0  0  0999 V2000
    6.0534    4.0325    2.1055 C   0  0  0  0  0  0  0  0  0  0  0  0
    6.4344    2.9633    1.1093 C   0  0  0  0  0  0  0  0  0  0  0  0
    6.4321    1.3807    2.0024 S   0  0  0  0  0  0  0  0  0  0  0  0
    6.8821    0.0294    0.9350 C   0  0  0  0  0  0  0  0  0  0  0  0
    8.2002   -0.3216    0.8094 C   0  0  0  0  0  0  0  0  0  0  0  0
    8.5501   -1.3606   -0.0114 C   0  0  0  0  0  0  0  0  0  0  0  0
    7.5737   -2.0345   -0.6958 C   0  0  0  0  0  0  0  0  0  0  0  0
    6.2325   -1.6748   -0.5658 C   0  0  0  0  0  0  0  0  0  0  0  0
    5.8710   -0.6374    0.2521 C   0  0  0  0  0  0  0  0  0  0  0  0
    4.4997   -0.2081    0.4412 C   0  0  0  0  0  0  0  0  0  0  0  0
    3.4634   -0.7543   -0.1523 C   0  0  0  0  0  0  0  0  0  0  0  0
    2.0998   -0.2773    0.0780 C   0  0  0  0  0  0  0  0  0  0  0  0
    1.7941    0.6545    0.8317 O   0  0  0  0  0  0  0  0  0  0  0  0
    1.0575   -0.9153   -0.6001 O   0  0  0  0  0  0  0  0  0  0  0  0
   -0.3031   -0.5280   -0.4464 C   0  0  2  0  0  0  0  0  0  0  0  0
   -0.9584   -1.7055    0.2276 C   0  0  0  0  0  0  0  0  0  0  0  0
   -2.3731   -1.6640    0.3265 N   0  0  0  0  0  0  0  0  0  0  0  0
   -2.8200   -2.6499    1.2847 C   0  0  0  0  0  0  0  0  0  0  0  0
   -4.1395   -3.1784    0.7718 C   0  0  0  0  0  0  0  0  0  0  0  0
   -4.1512   -2.8891   -0.7121 C   0  0  0  0  0  0  0  0  0  0  0  0
   -3.0155   -1.9787   -0.9269 C   0  0  1  0  0  0  0  0  0  0  0  0
   -3.3250   -0.6542   -1.5860 C   0  0  1  0  0  0  0  0  0  0  0  0
   -3.7220    0.3645   -0.5329 C   0  0  0  0  0  0  0  0  0  0  0  0
   -2.9316    1.3138   -0.3111 O   0  0  0  0  0  0  0  0  0  0  0  0
   -4.9417    0.2314    0.1599 N   0  0  0  0  0  0  0  0  0  0  0  0
   -5.4134    1.1088    1.1737 C   0  0  0  0  0  0  0  0  0  0  0  0
   -4.6194    1.9701    1.8902 C   0  0  0  0  0  0  0  0  0  0  0  0
   -5.1983    2.8071    2.8522 C   0  0  0  0  0  0  0  0  0  0  0  0
   -6.5453    2.8026    3.1137 C   0  0  0  0  0  0  0  0  0  0  0  0
   -7.3487    1.9407    2.3996 C   0  0  0  0  0  0  0  0  0  0  0  0
   -6.7831    1.1365    1.4728 C   0  0  0  0  0  0  0  0  0  0  0  0
   -2.0853   -0.1779   -2.2689 C   0  0  0  0  0  0  0  0  0  0  0  0
   -2.3690    0.2406   -3.5389 C   0  0  0  0  0  0  0  0  0  0  0  0
   -1.3533    0.7261   -4.3606 C   0  0  0  0  0  0  0  0  0  0  0  0
   -0.0814    0.7706   -3.8656 C   0  0  0  0  0  0  0  0  0  0  0  0
    0.1729    0.3354   -2.5647 C   0  0  0  0  0  0  0  0  0  0  0  0
   -0.8190   -0.1461   -1.7420 C   0  0  0  0  0  0  0  0  0  0  0  0
    5.2252    4.6682    1.7335 H   0  0  0  0  0  0  0  0  0  0  0  0
    6.9766    4.6353    2.3237 H   0  0  0  0  0  0  0  0  0  0  0  0
    5.7303    3.6080    3.0763 H   0  0  0  0  0  0  0  0  0  0  0  0
    5.6973    2.9078    0.2796 H   0  0  0  0  0  0  0  0  0  0  0  0
    7.4373    3.1539    0.6879 H   0  0  0  0  0  0  0  0  0  0  0  0
    8.9289    0.2536    1.3805 H   0  0  0  0  0  0  0  0  0  0  0  0
    9.5806   -1.6413   -0.1145 H   0  0  0  0  0  0  0  0  0  0  0  0
    7.8384   -2.8507   -1.3417 H   0  0  0  0  0  0  0  0  0  0  0  0
    5.5010   -2.2316   -1.1215 H   0  0  0  0  0  0  0  0  0  0  0  0
    4.2650    0.6262    1.1173 H   0  0  0  0  0  0  0  0  0  0  0  0
    3.6395   -1.5731   -0.8234 H   0  0  0  0  0  0  0  0  0  0  0  0
   -0.2897    0.3381    0.2525 H   0  0  0  0  0  0  0  0  0  0  0  0
   -0.6342   -2.6845   -0.2024 H   0  0  0  0  0  0  0  0  0  0  0  0
   -0.5531   -1.7198    1.2818 H   0  0  0  0  0  0  0  0  0  0  0  0
   -3.0236   -2.1676    2.2678 H   0  0  0  0  0  0  0  0  0  0  0  0
   -2.0863   -3.4452    1.4685 H   0  0  0  0  0  0  0  0  0  0  0  0
   -4.2132   -4.2603    0.9964 H   0  0  0  0  0  0  0  0  0  0  0  0
   -5.0110   -2.6331    1.2072 H   0  0  0  0  0  0  0  0  0  0  0  0
   -3.8885   -3.8817   -1.2048 H   0  0  0  0  0  0  0  0  0  0  0  0
   -5.1212   -2.6074   -1.1217 H   0  0  0  0  0  0  0  0  0  0  0  0
   -2.2016   -2.4409   -1.5669 H   0  0  0  0  0  0  0  0  0  0  0  0
   -4.1473   -0.7166   -2.3161 H   0  0  0  0  0  0  0  0  0  0  0  0
   -5.6046   -0.5751   -0.0636 H   0  0  0  0  0  0  0  0  0  0  0  0
   -3.5547    2.0298    1.7602 H   0  0  0  0  0  0  0  0  0  0  0  0
   -4.5879    3.4949    3.4281 H   0  0  0  0  0  0  0  0  0  0  0  0
   -7.0111    3.4417    3.8515 H   0  0  0  0  0  0  0  0  0  0  0  0
   -8.4224    1.9282    2.5999 H   0  0  0  0  0  0  0  0  0  0  0  0
   -7.4383    0.4527    0.9082 H   0  0  0  0  0  0  0  0  0  0  0  0
   -3.3636    0.2247   -3.9742 H   0  0  0  0  0  0  0  0  0  0  0  0
   -1.6022    1.0565   -5.3747 H   0  0  0  0  0  0  0  0  0  0  0  0
    0.7153    1.1495   -4.5062 H   0  0  0  0  0  0  0  0  0  0  0  0
    1.1994    0.4073   -2.2639 H   0  0  0  0  0  0  0  0  0  0  0  0
  1  2  1  0
  2  3  1  0
  3  4  1  0
  4  5  2  0
  5  6  1  0
  6  7  2  0
  7  8  1  0
  8  9  2  0
  9 10  1  0
 10 11  2  0
 11 12  1  0
 12 13  2  0
 12 14  1  0
 14 15  1  0
 15 16  1  0
 16 17  1  0
 17 18  1  0
 18 19  1  0
 19 20  1  0
 20 21  1  0
 21 22  1  0
 22 23  1  0
 23 24  2  0
 23 25  1  0
 25 26  1  0
 26 27  2  0
 27 28  1  0
 28 29  2  0
 29 30  1  0
 30 31  2  0
 22 32  1  0
 32 33  2  0
 33 34  1  0
 34 35  2  0
 35 36  1  0
 36 37  2  0
  9  4  1  0
 37 15  1  0
 21 17  1  0
 31 26  1  0
 37 32  1  0
  1 38  1  0
  1 39  1  0
  1 40  1  0
  2 41  1  0
  2 42  1  0
  5 43  1  0
  6 44  1  0
  7 45  1  0
  8 46  1  0
 10 47  1  0
 11 48  1  0
 15 49  1  1
 16 50  1  0
 16 51  1  0
 18 52  1  0
 18 53  1  0
 19 54  1  0
 19 55  1  0
 20 56  1  0
 20 57  1  0
 21 58  1  6
 22 59  1  6
 25 60  1  0
 27 61  1  0
 28 62  1  0
 29 63  1  0
 30 64  1  0
 31 65  1  0
 33 66  1  0
 34 67  1  0
 35 68  1  0
 36 69  1  0
M  END
$$$$
[H]OC1(C([H])([H])N2C(=O)N(C3([H])C([H])([H])C3([H])[H])C([H])([H])[C@]2([H])c2c([H])sc([H])c2[H])C([H])([H])c2c([H])c([H])c([H])c([H])c2C1([H])[H]
     RDKit          3D

 47 51  0  0  0  0  0  0  0  0999 V2000
    1.5669   -1.1127   -1.2666 O   0  0  0  0  0  0  0  0  0  0  0  0
    1.5578   -0.5342   -0.0032 C   0  0  0  0  0  0  0  0  0  0  0  0
    0.3530   -0.8606    0.7994 C   0  0  0  0  0  0  0  0  0  0  0  0
   -0.8939   -0.4544    0.2267 N   0  0  0  0  0  0  0  0  0  0  0  0
   -1.7342   -1.2026   -0.6535 C   0  0  2  0  0  0  0  0  0  0  0  0
   -2.5632   -0.1718   -1.3389 C   0  0  0  0  0  0  0  0  0  0  0  0
   -2.5221    1.0375   -0.5396 N   0  0  0  0  0  0  0  0  0  0  0  0
   -3.3371    2.2086   -0.7323 C   0  0  0  0  0  0  0  0  0  0  0  0
   -3.8679    2.9308    0.4989 C   0  0  0  0  0  0  0  0  0  0  0  0
   -2.8420    3.5549   -0.3455 C   0  0  0  0  0  0  0  0  0  0  0  0
   -1.5220    0.8029    0.4462 C   0  0  0  0  0  0  0  0  0  0  0  0
   -1.2924    1.6593    1.3601 O   0  0  0  0  0  0  0  0  0  0  0  0
   -2.5885   -2.2075    0.1062 C   0  0  0  0  0  0  0  0  0  0  0  0
   -2.7644   -3.4765   -0.2779 C   0  0  0  0  0  0  0  0  0  0  0  0
   -3.5598   -4.2737    0.5009 C   0  0  0  0  0  0  0  0  0  0  0  0
   -4.0399   -3.2210    1.7519 S   0  0  0  0  0  0  0  0  0  0  0  0
   -3.2246   -1.8092    1.2563 C   0  0  0  0  0  0  0  0  0  0  0  0
    2.7657   -1.1323    0.7323 C   0  0  0  0  0  0  0  0  0  0  0  0
    3.8762   -0.2441    0.2990 C   0  0  0  0  0  0  0  0  0  0  0  0
    5.2377   -0.4625    0.3431 C   0  0  0  0  0  0  0  0  0  0  0  0
    6.1474    0.4679   -0.1012 C   0  0  0  0  0  0  0  0  0  0  0  0
    5.6332    1.6414   -0.5980 C   0  0  0  0  0  0  0  0  0  0  0  0
    4.2767    1.8849   -0.6534 C   0  0  0  0  0  0  0  0  0  0  0  0
    3.3910    0.9366   -0.2021 C   0  0  0  0  0  0  0  0  0  0  0  0
    1.8865    0.9115   -0.1335 C   0  0  0  0  0  0  0  0  0  0  0  0
    1.4632   -2.0862   -1.1508 H   0  0  0  0  0  0  0  0  0  0  0  0
    0.4864   -0.4067    1.8097 H   0  0  0  0  0  0  0  0  0  0  0  0
    0.3556   -1.9652    0.9790 H   0  0  0  0  0  0  0  0  0  0  0  0
   -1.1195   -1.7102   -1.4202 H   0  0  0  0  0  0  0  0  0  0  0  0
   -2.2595    0.0171   -2.3909 H   0  0  0  0  0  0  0  0  0  0  0  0
   -3.6341   -0.5240   -1.2927 H   0  0  0  0  0  0  0  0  0  0  0  0
   -4.0508    2.1812   -1.5574 H   0  0  0  0  0  0  0  0  0  0  0  0
   -3.6392    2.4060    1.4496 H   0  0  0  0  0  0  0  0  0  0  0  0
   -4.9153    3.3170    0.4774 H   0  0  0  0  0  0  0  0  0  0  0  0
   -3.1991    4.4371   -0.9506 H   0  0  0  0  0  0  0  0  0  0  0  0
   -1.7892    3.6225   -0.0449 H   0  0  0  0  0  0  0  0  0  0  0  0
   -2.2902   -3.8930   -1.1964 H   0  0  0  0  0  0  0  0  0  0  0  0
   -3.7983   -5.3367    0.3151 H   0  0  0  0  0  0  0  0  0  0  0  0
   -3.2093   -0.8159    1.7389 H   0  0  0  0  0  0  0  0  0  0  0  0
    2.9087   -2.1830    0.4187 H   0  0  0  0  0  0  0  0  0  0  0  0
    2.6585   -1.0008    1.8223 H   0  0  0  0  0  0  0  0  0  0  0  0
    5.6130   -1.4144    0.7477 H   0  0  0  0  0  0  0  0  0  0  0  0
    7.2133    0.3413   -0.0862 H   0  0  0  0  0  0  0  0  0  0  0  0
    6.3174    2.4185   -0.9662 H   0  0  0  0  0  0  0  0  0  0  0  0
    3.9113    2.8458   -1.0623 H   0  0  0  0  0  0  0  0  0  0  0  0
    1.5122    1.3308   -1.0895 H   0  0  0  0  0  0  0  0  0  0  0  0
    1.5245    1.5456    0.7000 H   0  0  0  0  0  0  0  0  0  0  0  0
  1  2  1  0
  2  3  1  0
  3  4  1  0
  4  5  1  0
  5  6  1  0
  6  7  1  0
  7  8  1  0
  8  9  1  0
  9 10  1  0
  7 11  1  0
 11 12  2  0
  5 13  1  0
 13 14  1  0
 14 15  2  0
 15 16  1  0
 16 17  1  0
  2 18  1  0
 18 19  1  0
 19 20  2  0
 20 21  1  0
 21 22  2  0
 22 23  1  0
 23 24  2  0
 24 25  1  0
 25  2  1  0
 11  4  1  0
 17 13  2  0
 24 19  1  0
 10  8  1  0
  1 26  1  0
  3 27  1  0
  3 28  1  0
  5 29  1  6
  6 30  1  0
  6 31  1  0
  8 32  1  0
  9 33  1  0
  9 34  1  0
 10 35  1  0
 10 36  1  0
 14 37  1  0
 15 38  1  0
 17 39  1  0
 18 40  1  0
 18 41  1  0
 20 42  1  0
 21 43  1  0
 22 44  1  0
 23 45  1  0
 25 46  1  0
 25 47  1  0
M  END
$$$$
[H]c1nc(OC2([H])C([H])([H])C([H])([H])OC([H])([H])C2([H])[H])c(N2C([H])([H])C([H])([H])OC([H])([H])C2([H])[H])c([H])c1-c1c(C([H])([H])[H])nc([H])c(N([H])C(=O)c2c([H])c([H])c([H])c(C(F)(F)F)c2[H])c1[H]
     RDKit          3D

 68 72  0  0  0  0  0  0  0  0999 V2000
    0.3697   -4.0182   -0.6627 C   0  0  0  0  0  0  0  0  0  0  0  0
    1.4442   -3.0057   -0.4670 C   0  0  0  0  0  0  0  0  0  0  0  0
    2.7363   -3.4283   -0.5480 N   0  0  0  0  0  0  0  0  0  0  0  0
    3.7953   -2.6245   -0.4165 C   0  0  0  0  0  0  0  0  0  0  0  0
    3.6484   -1.2448   -0.1796 C   0  0  0  0  0  0  0  0  0  0  0  0
    4.8033   -0.4242   -0.1014 N   0  0  0  0  0  0  0  0  0  0  0  0
    4.8977    0.9238    0.2271 C   0  0  0  0  0  0  0  0  0  0  0  0
    3.8851    1.6025    0.5287 O   0  0  0  0  0  0  0  0  0  0  0  0
    6.2095    1.6085    0.2286 C   0  0  0  0  0  0  0  0  0  0  0  0
    6.3533    2.7762    0.9664 C   0  0  0  0  0  0  0  0  0  0  0  0
    7.5543    3.4475    0.9664 C   0  0  0  0  0  0  0  0  0  0  0  0
    8.6433    2.9908    0.2430 C   0  0  0  0  0  0  0  0  0  0  0  0
    8.5095    1.8378   -0.4900 C   0  0  0  0  0  0  0  0  0  0  0  0
    7.2953    1.1760   -0.4769 C   0  0  0  0  0  0  0  0  0  0  0  0
    9.6509    1.3305   -1.2930 C   0  0  0  0  0  0  0  0  0  0  0  0
   10.6855    2.2500   -1.2351 F   0  0  0  0  0  0  0  0  0  0  0  0
   10.1243    0.1663   -0.7516 F   0  0  0  0  0  0  0  0  0  0  0  0
    9.2672    1.1848   -2.6218 F   0  0  0  0  0  0  0  0  0  0  0  0
    2.3665   -0.8140   -0.0963 C   0  0  0  0  0  0  0  0  0  0  0  0
    1.2553   -1.6814   -0.2368 C   0  0  0  0  0  0  0  0  0  0  0  0
   -0.0613   -1.0886   -0.1673 C   0  0  0  0  0  0  0  0  0  0  0  0
   -0.2633    0.1573   -0.7850 C   0  0  0  0  0  0  0  0  0  0  0  0
   -1.4603    0.7489   -0.7376 N   0  0  0  0  0  0  0  0  0  0  0  0
   -2.4999    0.1889   -0.1130 C   0  0  0  0  0  0  0  0  0  0  0  0
   -3.7532    0.8041   -0.0656 O   0  0  0  0  0  0  0  0  0  0  0  0
   -3.9928    2.0281   -0.7331 C   0  0  0  0  0  0  0  0  0  0  0  0
   -5.0218    1.6659   -1.8281 C   0  0  0  0  0  0  0  0  0  0  0  0
   -6.3144    1.3062   -1.1409 C   0  0  0  0  0  0  0  0  0  0  0  0
   -6.7895    2.3168   -0.3067 O   0  0  0  0  0  0  0  0  0  0  0  0
   -5.9815    3.4503   -0.3945 C   0  0  0  0  0  0  0  0  0  0  0  0
   -4.5848    3.1099    0.0832 C   0  0  0  0  0  0  0  0  0  0  0  0
   -2.3396   -1.0258    0.4974 C   0  0  0  0  0  0  0  0  0  0  0  0
   -1.1178   -1.6566    0.4679 C   0  0  0  0  0  0  0  0  0  0  0  0
   -3.4845   -1.6302    1.1517 N   0  0  0  0  0  0  0  0  0  0  0  0
   -3.7650   -1.2649    2.4962 C   0  0  0  0  0  0  0  0  0  0  0  0
   -4.9052   -2.0179    3.1348 C   0  0  0  0  0  0  0  0  0  0  0  0
   -4.9629   -3.3052    2.5427 O   0  0  0  0  0  0  0  0  0  0  0  0
   -5.4140   -3.0911    1.2433 C   0  0  0  0  0  0  0  0  0  0  0  0
   -4.3121   -2.5221    0.3756 C   0  0  0  0  0  0  0  0  0  0  0  0
    0.7399   -4.8409   -1.3544 H   0  0  0  0  0  0  0  0  0  0  0  0
    0.1907   -4.5634    0.2928 H   0  0  0  0  0  0  0  0  0  0  0  0
   -0.5123   -3.6290   -1.1637 H   0  0  0  0  0  0  0  0  0  0  0  0
    4.8145   -2.9901   -0.4856 H   0  0  0  0  0  0  0  0  0  0  0  0
    5.7471   -0.9019   -0.3185 H   0  0  0  0  0  0  0  0  0  0  0  0
    5.4847    3.1428    1.5390 H   0  0  0  0  0  0  0  0  0  0  0  0
    7.6892    4.3696    1.5396 H   0  0  0  0  0  0  0  0  0  0  0  0
    9.5801    3.5701    0.2830 H   0  0  0  0  0  0  0  0  0  0  0  0
    7.2243    0.2546   -1.0718 H   0  0  0  0  0  0  0  0  0  0  0  0
    2.1516    0.2273    0.0832 H   0  0  0  0  0  0  0  0  0  0  0  0
    0.5946    0.5762   -1.2848 H   0  0  0  0  0  0  0  0  0  0  0  0
   -3.0538    2.3508   -1.2214 H   0  0  0  0  0  0  0  0  0  0  0  0
   -5.1387    2.4836   -2.5355 H   0  0  0  0  0  0  0  0  0  0  0  0
   -4.6380    0.7227   -2.2750 H   0  0  0  0  0  0  0  0  0  0  0  0
   -6.1549    0.3908   -0.5243 H   0  0  0  0  0  0  0  0  0  0  0  0
   -7.0459    1.0221   -1.9333 H   0  0  0  0  0  0  0  0  0  0  0  0
   -6.0257    3.8994   -1.3924 H   0  0  0  0  0  0  0  0  0  0  0  0
   -6.3918    4.1920    0.3233 H   0  0  0  0  0  0  0  0  0  0  0  0
   -3.9954    4.0594   -0.0104 H   0  0  0  0  0  0  0  0  0  0  0  0
   -4.6727    2.8898    1.1551 H   0  0  0  0  0  0  0  0  0  0  0  0
   -1.0228   -2.6214    0.9863 H   0  0  0  0  0  0  0  0  0  0  0  0
   -2.8460   -1.4290    3.1108 H   0  0  0  0  0  0  0  0  0  0  0  0
   -3.9612   -0.1678    2.4975 H   0  0  0  0  0  0  0  0  0  0  0  0
   -5.8493   -1.5140    2.9150 H   0  0  0  0  0  0  0  0  0  0  0  0
   -4.7054   -2.0776    4.2282 H   0  0  0  0  0  0  0  0  0  0  0  0
   -5.7848   -4.0683    0.8191 H   0  0  0  0  0  0  0  0  0  0  0  0
   -6.2465   -2.3327    1.2828 H   0  0  0  0  0  0  0  0  0  0  0  0
   -3.7815   -3.3085   -0.1629 H   0  0  0  0  0  0  0  0  0  0  0  0
   -4.8612   -1.9339   -0.4273 H   0  0  0  0  0  0  0  0  0  0  0  0
  1  2  1  0
  2  3  2  0
  3  4  1  0
  4  5  2  0
  5  6  1  0
  6  7  1  0
  7  8  2  0
  7  9  1  0
  9 10  2  0
 10 11  1  0
 11 12  2  0
 12 13  1  0
 13 14  2  0
 13 15  1  0
 15 16  1  0
 15 17  1  0
 15 18  1  0
  5 19  1  0
 19 20  2  0
 20 21  1  0
 21 22  2  0
 22 23  1  0
 23 24  2  0
 24 25  1  0
 25 26  1  0
 26 27  1  0
 27 28  1  0
 28 29  1  0
 29 30  1  0
 30 31  1  0
 24 32  1  0
 32 33  2  0
 32 34  1  0
 34 35  1  0
 35 36  1  0
 36 37  1  0
 37 38  1  0
 38 39  1  0
 20  2  1  0
 33 21  1  0
 39 34  1  0
 14  9  1  0
 31 26  1  0
  1 40  1  0
  1 41  1  0
  1 42  1  0
  4 43  1  0
  6 44  1  0
 10 45  1  0
 11 46  1  0
 12 47  1  0
 14 48  1  0
 19 49  1  0
 22 50  1  0
 26 51  1  0
 27 52  1  0
 27 53  1  0
 28 54  1  0
 28 55  1  0
 30 56  1  0
 30 57  1  0
 31 58  1  0
 31 59  1  0
 33 60  1  0
 35 61  1  0
 35 62  1  0
 36 63  1  0
 36 64  1  0
 38 65  1  0
 38 66  1  0
 39 67  1  0
 39 68  1  0
M  END
$$$$
[H]O[C@]1([H])C([H])([H])C([H])([H])[C@]([H])(N([H])c2nc(N([H])c3c([H])c([H])c(C#N)c([H])c3[H])nc([H])c2Br)C([H])([H])C1([H])[H]
     RDKit          3D

 42 44  0  0  0  0  0  0  0  0999 V2000
   -4.4534   -1.6997    0.9786 O   0  0  0  0  0  0  0  0  0  0  0  0
   -4.8615   -0.7505    0.0150 C   0  0  2  0  0  0  0  0  0  0  0  0
   -3.8650   -0.7556   -1.0975 C   0  0  0  0  0  0  0  0  0  0  0  0
   -2.5396   -0.2778   -0.5527 C   0  0  0  0  0  0  0  0  0  0  0  0
   -2.6385    1.1106    0.0344 C   0  0  1  0  0  0  0  0  0  0  0  0
   -4.0362    1.6143    0.1482 C   0  0  0  0  0  0  0  0  0  0  0  0
   -5.0117    0.5879    0.6642 C   0  0  0  0  0  0  0  0  0  0  0  0
   -1.9224    1.1998    1.3161 N   0  0  0  0  0  0  0  0  0  0  0  0
   -0.5302    0.9270    1.3382 C   0  0  0  0  0  0  0  0  0  0  0  0
    0.1570    0.5905    0.2313 N   0  0  0  0  0  0  0  0  0  0  0  0
    1.5101    0.3360    0.3108 C   0  0  0  0  0  0  0  0  0  0  0  0
    2.2058    0.0095   -0.8747 N   0  0  0  0  0  0  0  0  0  0  0  0
    3.5617   -0.2978   -1.0098 C   0  0  0  0  0  0  0  0  0  0  0  0
    4.1556   -0.1007   -2.2475 C   0  0  0  0  0  0  0  0  0  0  0  0
    5.4775   -0.4133   -2.4360 C   0  0  0  0  0  0  0  0  0  0  0  0
    6.2661   -0.9256   -1.4347 C   0  0  0  0  0  0  0  0  0  0  0  0
    5.6701   -1.1176   -0.2137 C   0  0  0  0  0  0  0  0  0  0  0  0
    4.3225   -0.8034   -0.0078 C   0  0  0  0  0  0  0  0  0  0  0  0
    7.6647   -1.2488   -1.6580 C   0  0  0  0  0  0  0  0  0  0  0  0
    8.7789   -1.5022   -1.8548 N   0  0  0  0  0  0  0  0  0  0  0  0
    2.1214    0.4277    1.4912 N   0  0  0  0  0  0  0  0  0  0  0  0
    1.5064    0.7571    2.6385 C   0  0  0  0  0  0  0  0  0  0  0  0
    0.1386    1.0104    2.5360 C   0  0  0  0  0  0  0  0  0  0  0  0
   -0.8497    1.4874    4.0892 Br  0  0  0  0  0  0  0  0  0  0  0  0
   -4.4770   -1.2966    1.9010 H   0  0  0  0  0  0  0  0  0  0  0  0
   -5.8646   -1.1295   -0.3379 H   0  0  0  0  0  0  0  0  0  0  0  0
   -3.7165   -1.7982   -1.4451 H   0  0  0  0  0  0  0  0  0  0  0  0
   -4.1910   -0.1383   -1.9467 H   0  0  0  0  0  0  0  0  0  0  0  0
   -2.1762   -1.0007    0.2050 H   0  0  0  0  0  0  0  0  0  0  0  0
   -1.8138   -0.3351   -1.3967 H   0  0  0  0  0  0  0  0  0  0  0  0
   -2.1052    1.7881   -0.6966 H   0  0  0  0  0  0  0  0  0  0  0  0
   -4.0499    2.4624    0.8734 H   0  0  0  0  0  0  0  0  0  0  0  0
   -4.3924    2.0537   -0.8195 H   0  0  0  0  0  0  0  0  0  0  0  0
   -4.9808    0.5215    1.7704 H   0  0  0  0  0  0  0  0  0  0  0  0
   -6.0391    0.9896    0.4195 H   0  0  0  0  0  0  0  0  0  0  0  0
   -2.4330    1.4566    2.1760 H   0  0  0  0  0  0  0  0  0  0  0  0
    1.6190   -0.0109   -1.7977 H   0  0  0  0  0  0  0  0  0  0  0  0
    3.5791    0.3038   -3.0821 H   0  0  0  0  0  0  0  0  0  0  0  0
    5.9626   -0.2644   -3.4058 H   0  0  0  0  0  0  0  0  0  0  0  0
    6.2699   -1.5181    0.5849 H   0  0  0  0  0  0  0  0  0  0  0  0
    3.9653   -1.0192    1.0011 H   0  0  0  0  0  0  0  0  0  0  0  0
    2.0151    0.8282    3.5922 H   0  0  0  0  0  0  0  0  0  0  0  0
  1  2  1  0
  2  3  1  0
  3  4  1  0
  4  5  1  0
  5  6  1  0
  6  7  1  0
  5  8  1  0
  8  9  1  0
  9 10  2  0
 10 11  1  0
 11 12  1  0
 12 13  1  0
 13 14  2  0
 14 15  1  0
 15 16  2  0
 16 17  1  0
 17 18  2  0
 16 19  1  0
 19 20  3  0
 11 21  2  0
 21 22  1  0
 22 23  2  0
 23 24  1  0
  7  2  1  0
 23  9  1  0
 18 13  1  0
  1 25  1  0
  2 26  1  6
  3 27  1  0
  3 28  1  0
  4 29  1  0
  4 30  1  0
  5 31  1  6
  6 32  1  0
  6 33  1  0
  7 34  1  0
  7 35  1  0
  8 36  1  0
 12 37  1  0
 14 38  1  0
 15 39  1  0
 17 40  1  0
 18 41  1  0
 22 42  1  0
M  END
$$$$
[H]O[C@]12C([H])([H])C([H])([H])[C@]3([H])[C@]4(C([H])([H])[H])C(=C([H])C(=O)C([H])([H])C4([H])[H])C([H])([H])C([H])([H])[C@@]3([H])[C@]1([H])C([H])([H])[C@@]([H])(C([H])([H])[H])C2([H])[H]
     RDKit          3D

 49 52  0  0  0  0  0  0  0  0999 V2000
    4.7786   -0.2753   -1.2921 C   0  0  0  0  0  0  0  0  0  0  0  0
    3.9262   -0.6765   -0.1112 C   0  0  2  0  0  0  0  0  0  0  0  0
    2.6253   -1.3118   -0.5485 C   0  0  0  0  0  0  0  0  0  0  0  0
    1.6379   -0.2338   -0.3798 C   0  0  1  0  0  0  0  0  0  0  0  0
    0.2295   -0.6589   -0.1038 C   0  0  2  0  0  0  0  0  0  0  0  0
   -0.2988   -1.6779   -1.0707 C   0  0  0  0  0  0  0  0  0  0  0  0
   -1.6211   -2.1529   -0.4477 C   0  0  0  0  0  0  0  0  0  0  0  0
   -2.4972   -0.9429   -0.4704 C   0  0  0  0  0  0  0  0  0  0  0  0
   -3.7288   -1.1103   -0.9213 C   0  0  0  0  0  0  0  0  0  0  0  0
   -4.6960   -0.0195   -1.0014 C   0  0  0  0  0  0  0  0  0  0  0  0
   -5.9164   -0.2187   -1.0857 O   0  0  0  0  0  0  0  0  0  0  0  0
   -4.1801    1.3658   -0.9795 C   0  0  0  0  0  0  0  0  0  0  0  0
   -2.6817    1.4309   -0.9345 C   0  0  0  0  0  0  0  0  0  0  0  0
   -2.0722    0.3797   -0.0318 C   0  0  1  0  0  0  0  0  0  0  0  0
   -2.6383    0.6012    1.3746 C   0  0  0  0  0  0  0  0  0  0  0  0
   -0.5922    0.5937   -0.0109 C   0  0  1  0  0  0  0  0  0  0  0  0
   -0.1314    1.2964    1.2741 C   0  0  0  0  0  0  0  0  0  0  0  0
    1.3278    1.7101    1.0330 C   0  0  0  0  0  0  0  0  0  0  0  0
    2.1177    0.4331    0.9194 C   0  0  1  0  0  0  0  0  0  0  0  0
    1.9628   -0.4007    2.0004 O   0  0  0  0  0  0  0  0  0  0  0  0
    3.5598    0.6089    0.6239 C   0  0  0  0  0  0  0  0  0  0  0  0
    4.5033   -0.8359   -2.2163 H   0  0  0  0  0  0  0  0  0  0  0  0
    5.8290   -0.5437   -1.0677 H   0  0  0  0  0  0  0  0  0  0  0  0
    4.6812    0.8054   -1.5319 H   0  0  0  0  0  0  0  0  0  0  0  0
    4.4679   -1.3669    0.5429 H   0  0  0  0  0  0  0  0  0  0  0  0
    2.4051   -2.2521   -0.0212 H   0  0  0  0  0  0  0  0  0  0  0  0
    2.7301   -1.5521   -1.6306 H   0  0  0  0  0  0  0  0  0  0  0  0
    1.7143    0.5140   -1.1684 H   0  0  0  0  0  0  0  0  0  0  0  0
    0.2203   -1.1297    0.9113 H   0  0  0  0  0  0  0  0  0  0  0  0
   -0.5288   -1.2650   -2.0612 H   0  0  0  0  0  0  0  0  0  0  0  0
    0.3861   -2.5250   -1.0846 H   0  0  0  0  0  0  0  0  0  0  0  0
   -1.3806   -2.4147    0.6030 H   0  0  0  0  0  0  0  0  0  0  0  0
   -2.0366   -2.9825   -1.0126 H   0  0  0  0  0  0  0  0  0  0  0  0
   -4.0757   -2.0913   -1.2578 H   0  0  0  0  0  0  0  0  0  0  0  0
   -4.5159    1.8582   -1.9160 H   0  0  0  0  0  0  0  0  0  0  0  0
   -4.5881    1.9632   -0.1400 H   0  0  0  0  0  0  0  0  0  0  0  0
   -2.2357    1.2893   -1.9376 H   0  0  0  0  0  0  0  0  0  0  0  0
   -2.3610    2.4197   -0.5375 H   0  0  0  0  0  0  0  0  0  0  0  0
   -3.6802    0.2472    1.4594 H   0  0  0  0  0  0  0  0  0  0  0  0
   -2.0597    0.0100    2.1322 H   0  0  0  0  0  0  0  0  0  0  0  0
   -2.6630    1.6878    1.6293 H   0  0  0  0  0  0  0  0  0  0  0  0
   -0.2568    1.2676   -0.8300 H   0  0  0  0  0  0  0  0  0  0  0  0
   -0.6993    2.2121    1.4588 H   0  0  0  0  0  0  0  0  0  0  0  0
   -0.1053    0.5911    2.1300 H   0  0  0  0  0  0  0  0  0  0  0  0
    1.4332    2.2674    0.0971 H   0  0  0  0  0  0  0  0  0  0  0  0
    1.7009    2.2503    1.9292 H   0  0  0  0  0  0  0  0  0  0  0  0
    2.0691   -1.3521    1.7912 H   0  0  0  0  0  0  0  0  0  0  0  0
    4.2016    0.6818    1.5446 H   0  0  0  0  0  0  0  0  0  0  0  0
    3.7335    1.5052    0.0066 H   0  0  0  0  0  0  0  0  0  0  0  0
  1  2  1  0
  2  3  1  0
  3  4  1  0
  4  5  1  0
  5  6  1  0
  6  7  1  0
  7  8  1  0
  8  9  2  0
  9 10  1  0
 10 11  2  0
 10 12  1  0
 12 13  1  0
 13 14  1  0
 14 15  1  1
 14 16  1  0
 16 17  1  0
 17 18  1  0
 18 19  1  0
 19 20  1  1
 19 21  1  0
 21  2  1  0
 19  4  1  0
 16  5  1  0
 14  8  1  0
  1 22  1  0
  1 23  1  0
  1 24  1  0
  2 25  1  1
  3 26  1  0
  3 27  1  0
  4 28  1  6
  5 29  1  1
  6 30  1  0
  6 31  1  0
  7 32  1  0
  7 33  1  0
  9 34  1  0
 12 35  1  0
 12 36  1  0
 13 37  1  0
 13 38  1  0
 15 39  1  0
 15 40  1  0
 15 41  1  0
 16 42  1  6
 17 43  1  0
 17 44  1  0
 18 45  1  0
 18 46  1  0
 20 47  1  0
 21 48  1  0
 21 49  1  0
M  END
$$$$
[H]c1nc2c(nc([H])c(=O)n2[H])c(Oc2c([H])c([H])c(N([H])C(=O)N([H])c3c([H])c(C(C([H])([H])[H])(C([H])([H])[H])C([H])([H])[H])nn3-c3c([H])c([H])c([H])c([H])c3[H])c3c([H])c([H])c([H])c([H])c23)c1[H]
     RDKit          3D

 68 73  0  0  0  0  0  0  0  0999 V2000
   -7.4670   -2.4327    0.9206 C   0  0  0  0  0  0  0  0  0  0  0  0
   -5.9970   -2.6639    0.6530 C   0  0  0  0  0  0  0  0  0  0  0  0
   -5.4079   -3.4927    1.7583 C   0  0  0  0  0  0  0  0  0  0  0  0
   -5.9167   -3.4333   -0.6651 C   0  0  0  0  0  0  0  0  0  0  0  0
   -5.3053   -1.3503    0.4924 C   0  0  0  0  0  0  0  0  0  0  0  0
   -3.9432   -1.1832    0.2655 C   0  0  0  0  0  0  0  0  0  0  0  0
   -3.7157    0.1519    0.1780 C   0  0  0  0  0  0  0  0  0  0  0  0
   -2.5186    0.8415   -0.0301 N   0  0  0  0  0  0  0  0  0  0  0  0
   -1.2509    0.1793   -0.1761 C   0  0  0  0  0  0  0  0  0  0  0  0
   -1.2787   -1.0559   -0.1116 O   0  0  0  0  0  0  0  0  0  0  0  0
   -0.0791    0.9770   -0.3780 N   0  0  0  0  0  0  0  0  0  0  0  0
    1.2068    0.4377   -0.5262 C   0  0  0  0  0  0  0  0  0  0  0  0
    1.5177   -0.8973   -0.5813 C   0  0  0  0  0  0  0  0  0  0  0  0
    2.8345   -1.3515   -0.7245 C   0  0  0  0  0  0  0  0  0  0  0  0
    3.8962   -0.4895   -0.8185 C   0  0  0  0  0  0  0  0  0  0  0  0
    5.1728   -0.9997   -0.9542 O   0  0  0  0  0  0  0  0  0  0  0  0
    6.1486   -0.9409    0.0328 C   0  0  0  0  0  0  0  0  0  0  0  0
    5.9028   -0.4595    1.3065 C   0  0  0  0  0  0  0  0  0  0  0  0
    6.9431   -0.4447    2.2022 C   0  0  0  0  0  0  0  0  0  0  0  0
    8.1656   -0.8756    1.8825 N   0  0  0  0  0  0  0  0  0  0  0  0
    8.4522   -1.3512    0.6610 C   0  0  0  0  0  0  0  0  0  0  0  0
    9.7083   -1.7763    0.3772 N   0  0  0  0  0  0  0  0  0  0  0  0
    9.9890   -2.2456   -0.8406 C   0  0  0  0  0  0  0  0  0  0  0  0
   11.1667   -2.6429   -1.1034 O   0  0  0  0  0  0  0  0  0  0  0  0
    8.9949   -2.2904   -1.7914 C   0  0  0  0  0  0  0  0  0  0  0  0
    7.7491   -1.8611   -1.4856 N   0  0  0  0  0  0  0  0  0  0  0  0
    7.4245   -1.3796   -0.2661 C   0  0  0  0  0  0  0  0  0  0  0  0
    3.5978    0.8529   -0.7692 C   0  0  0  0  0  0  0  0  0  0  0  0
    4.6187    1.7524   -0.8949 C   0  0  0  0  0  0  0  0  0  0  0  0
    4.4046    3.1151   -0.8791 C   0  0  0  0  0  0  0  0  0  0  0  0
    3.1434    3.5690   -0.7368 C   0  0  0  0  0  0  0  0  0  0  0  0
    2.0539    2.6887   -0.6063 C   0  0  0  0  0  0  0  0  0  0  0  0
    2.2896    1.3374   -0.6256 C   0  0  0  0  0  0  0  0  0  0  0  0
   -4.9152    0.7982    0.3478 N   0  0  0  0  0  0  0  0  0  0  0  0
   -5.8146   -0.1184    0.5282 N   0  0  0  0  0  0  0  0  0  0  0  0
   -5.1136    2.2174    0.3262 C   0  0  0  0  0  0  0  0  0  0  0  0
   -4.5309    2.9925    1.2740 C   0  0  0  0  0  0  0  0  0  0  0  0
   -4.7123    4.3601    1.2600 C   0  0  0  0  0  0  0  0  0  0  0  0
   -5.4966    4.9653    0.2719 C   0  0  0  0  0  0  0  0  0  0  0  0
   -6.0911    4.1823   -0.6938 C   0  0  0  0  0  0  0  0  0  0  0  0
   -5.8925    2.8142   -0.6555 C   0  0  0  0  0  0  0  0  0  0  0  0
   -7.8073   -1.5422    0.3512 H   0  0  0  0  0  0  0  0  0  0  0  0
   -8.0722   -3.2911    0.5522 H   0  0  0  0  0  0  0  0  0  0  0  0
   -7.6828   -2.2468    1.9901 H   0  0  0  0  0  0  0  0  0  0  0  0
   -5.9617   -4.4646    1.7431 H   0  0  0  0  0  0  0  0  0  0  0  0
   -5.5704   -3.0132    2.7326 H   0  0  0  0  0  0  0  0  0  0  0  0
   -4.3581   -3.7360    1.5257 H   0  0  0  0  0  0  0  0  0  0  0  0
   -6.8365   -4.0327   -0.7982 H   0  0  0  0  0  0  0  0  0  0  0  0
   -5.0024   -4.0906   -0.6182 H   0  0  0  0  0  0  0  0  0  0  0  0
   -5.8157   -2.6536   -1.4583 H   0  0  0  0  0  0  0  0  0  0  0  0
   -3.2810   -2.0215    0.1887 H   0  0  0  0  0  0  0  0  0  0  0  0
   -2.4951    1.9062   -0.0872 H   0  0  0  0  0  0  0  0  0  0  0  0
   -0.2608    2.0201   -0.4128 H   0  0  0  0  0  0  0  0  0  0  0  0
    0.7340   -1.6364   -0.5185 H   0  0  0  0  0  0  0  0  0  0  0  0
    2.9774   -2.4323   -0.7581 H   0  0  0  0  0  0  0  0  0  0  0  0
    4.9226   -0.1185    1.5705 H   0  0  0  0  0  0  0  0  0  0  0  0
    6.7982   -0.0722    3.2281 H   0  0  0  0  0  0  0  0  0  0  0  0
   10.4155   -1.7174    1.1391 H   0  0  0  0  0  0  0  0  0  0  0  0
    9.2569   -2.6754   -2.7657 H   0  0  0  0  0  0  0  0  0  0  0  0
    5.6294    1.3828   -1.0407 H   0  0  0  0  0  0  0  0  0  0  0  0
    5.2844    3.7689   -0.9843 H   0  0  0  0  0  0  0  0  0  0  0  0
    2.9855    4.6587   -0.7231 H   0  0  0  0  0  0  0  0  0  0  0  0
    1.0916    3.1531   -0.4961 H   0  0  0  0  0  0  0  0  0  0  0  0
   -3.9147    2.5123    2.0505 H   0  0  0  0  0  0  0  0  0  0  0  0
   -4.2587    5.0023    2.0035 H   0  0  0  0  0  0  0  0  0  0  0  0
   -5.6392    6.0361    0.2611 H   0  0  0  0  0  0  0  0  0  0  0  0
   -6.7146    4.6092   -1.4893 H   0  0  0  0  0  0  0  0  0  0  0  0
   -6.3582    2.1978   -1.4109 H   0  0  0  0  0  0  0  0  0  0  0  0
  1  2  1  0
  2  3  1  0
  2  4  1  0
  2  5  1  0
  5  6  1  0
  6  7  2  0
  7  8  1  0
  8  9  1  0
  9 10  2  0
  9 11  1  0
 11 12  1  0
 12 13  2  0
 13 14  1  0
 14 15  2  0
 15 16  1  0
 16 17  1  0
 17 18  2  0
 18 19  1  0
 19 20  2  0
 20 21  1  0
 21 22  1  0
 22 23  1  0
 23 24  2  0
 23 25  1  0
 25 26  2  0
 26 27  1  0
 15 28  1  0
 28 29  2  0
 29 30  1  0
 30 31  2  0
 31 32  1  0
 32 33  2  0
  7 34  1  0
 34 35  1  0
 34 36  1  0
 36 37  2  0
 37 38  1  0
 38 39  2  0
 39 40  1  0
 40 41  2  0
 35  5  2  0
 41 36  1  0
 33 12  1  0
 27 17  1  0
 33 28  1  0
 27 21  2  0
  1 42  1  0
  1 43  1  0
  1 44  1  0
  3 45  1  0
  3 46  1  0
  3 47  1  0
  4 48  1  0
  4 49  1  0
  4 50  1  0
  6 51  1  0
  8 52  1  0
 11 53  1  0
 13 54  1  0
 14 55  1  0
 18 56  1  0
 19 57  1  0
 22 58  1  0
 25 59  1  0
 29 60  1  0
 30 61  1  0
 31 62  1  0
 32 63  1  0
 37 64  1  0
 38 65  1  0
 39 66  1  0
 40 67  1  0
 41 68  1  0
M  END
$$$$
[H]c1nc(N2C([H])([H])C([H])([H])OC([H])([H])C2([H])[H])c([H])c(-c2nc(-c3c([H])c([H])c(N([H])C(=O)c4c([H])c([H])c([H])c([H])c4[H])c([H])c3[H])sc2[H])c1[H]
     RDKit          3D

 54 58  0  0  0  0  0  0  0  0999 V2000
    6.0852    1.7953    0.2298 O   0  0  0  0  0  0  0  0  0  0  0  0
    6.5831    0.6561    0.2231 C   0  0  0  0  0  0  0  0  0  0  0  0
    5.7881   -0.4889    0.1467 N   0  0  0  0  0  0  0  0  0  0  0  0
    4.3799   -0.5320    0.0784 C   0  0  0  0  0  0  0  0  0  0  0  0
    3.5245    0.4924    0.4054 C   0  0  0  0  0  0  0  0  0  0  0  0
    2.1342    0.3778    0.2872 C   0  0  0  0  0  0  0  0  0  0  0  0
    1.6310   -0.7956   -0.1682 C   0  0  0  0  0  0  0  0  0  0  0  0
    2.4496   -1.8636   -0.5125 C   0  0  0  0  0  0  0  0  0  0  0  0
    3.8124   -1.7284   -0.3886 C   0  0  0  0  0  0  0  0  0  0  0  0
    0.1757   -1.0323   -0.3347 C   0  0  0  0  0  0  0  0  0  0  0  0
   -0.8179   -0.2004   -0.0861 N   0  0  0  0  0  0  0  0  0  0  0  0
   -2.0417   -0.5767   -0.2907 C   0  0  0  0  0  0  0  0  0  0  0  0
   -2.2398   -1.8505   -0.7660 C   0  0  0  0  0  0  0  0  0  0  0  0
   -0.6334   -2.4277   -0.8879 S   0  0  0  0  0  0  0  0  0  0  0  0
   -3.1941    0.3332   -0.0227 C   0  0  0  0  0  0  0  0  0  0  0  0
   -3.0082    1.6147    0.4554 C   0  0  0  0  0  0  0  0  0  0  0  0
   -4.0813    2.4436    0.6980 C   0  0  0  0  0  0  0  0  0  0  0  0
   -5.3226    1.9928    0.4642 N   0  0  0  0  0  0  0  0  0  0  0  0
   -5.5730    0.7546   -0.0016 C   0  0  0  0  0  0  0  0  0  0  0  0
   -4.4939   -0.0651   -0.2406 C   0  0  0  0  0  0  0  0  0  0  0  0
   -6.9054    0.3041   -0.2489 N   0  0  0  0  0  0  0  0  0  0  0  0
   -7.2647   -1.0518   -0.5673 C   0  0  0  0  0  0  0  0  0  0  0  0
   -8.5024   -1.5315    0.1624 C   0  0  0  0  0  0  0  0  0  0  0  0
   -9.0879   -0.4800    0.8908 O   0  0  0  0  0  0  0  0  0  0  0  0
   -9.2584    0.6303    0.0922 C   0  0  0  0  0  0  0  0  0  0  0  0
   -7.9430    1.3091   -0.1793 C   0  0  0  0  0  0  0  0  0  0  0  0
    8.0569    0.5528    0.2988 C   0  0  0  0  0  0  0  0  0  0  0  0
    8.8156    1.6918    0.0782 C   0  0  0  0  0  0  0  0  0  0  0  0
   10.1690    1.6491    0.1422 C   0  0  0  0  0  0  0  0  0  0  0  0
   10.8394    0.4812    0.4268 C   0  0  0  0  0  0  0  0  0  0  0  0
   10.0776   -0.6443    0.6443 C   0  0  0  0  0  0  0  0  0  0  0  0
    8.6986   -0.6104    0.5813 C   0  0  0  0  0  0  0  0  0  0  0  0
    6.2994   -1.4292    0.1427 H   0  0  0  0  0  0  0  0  0  0  0  0
    3.9081    1.4276    0.7819 H   0  0  0  0  0  0  0  0  0  0  0  0
    1.5053    1.1937    0.5500 H   0  0  0  0  0  0  0  0  0  0  0  0
    2.0292   -2.7890   -0.8727 H   0  0  0  0  0  0  0  0  0  0  0  0
    4.4555   -2.5441   -0.6517 H   0  0  0  0  0  0  0  0  0  0  0  0
   -3.1893   -2.3666   -1.0064 H   0  0  0  0  0  0  0  0  0  0  0  0
   -2.0143    1.9853    0.6462 H   0  0  0  0  0  0  0  0  0  0  0  0
   -3.9452    3.4609    1.0768 H   0  0  0  0  0  0  0  0  0  0  0  0
   -4.6407   -1.0584   -0.6165 H   0  0  0  0  0  0  0  0  0  0  0  0
   -7.3991   -1.1880   -1.6609 H   0  0  0  0  0  0  0  0  0  0  0  0
   -6.4550   -1.7433   -0.2530 H   0  0  0  0  0  0  0  0  0  0  0  0
   -9.2644   -1.8582   -0.5780 H   0  0  0  0  0  0  0  0  0  0  0  0
   -8.3197   -2.3809    0.8339 H   0  0  0  0  0  0  0  0  0  0  0  0
   -9.9447    1.3264    0.6272 H   0  0  0  0  0  0  0  0  0  0  0  0
   -9.7736    0.3667   -0.8554 H   0  0  0  0  0  0  0  0  0  0  0  0
   -7.7406    2.0714    0.6004 H   0  0  0  0  0  0  0  0  0  0  0  0
   -8.0203    1.8411   -1.1502 H   0  0  0  0  0  0  0  0  0  0  0  0
    8.2761    2.6238   -0.1495 H   0  0  0  0  0  0  0  0  0  0  0  0
   10.7345    2.5674   -0.0375 H   0  0  0  0  0  0  0  0  0  0  0  0
   11.9196    0.4291    0.4817 H   0  0  0  0  0  0  0  0  0  0  0  0
   10.5608   -1.5932    0.8731 H   0  0  0  0  0  0  0  0  0  0  0  0
    8.1653   -1.5424    0.7692 H   0  0  0  0  0  0  0  0  0  0  0  0
  1  2  2  0
  2  3  1  0
  3  4  1  0
  4  5  2  0
  5  6  1  0
  6  7  2  0
  7  8  1  0
  8  9  2  0
  7 10  1  0
 10 11  2  0
 11 12  1  0
 12 13  2  0
 13 14  1  0
 12 15  1  0
 15 16  2  0
 16 17  1  0
 17 18  2  0
 18 19  1  0
 19 20  2  0
 19 21  1  0
 21 22  1  0
 22 23  1  0
 23 24  1  0
 24 25  1  0
 25 26  1  0
  2 27  1  0
 27 28  2  0
 28 29  1  0
 29 30  2  0
 30 31  1  0
 31 32  2  0
  9  4  1  0
 14 10  1  0
 20 15  1  0
 26 21  1  0
 32 27  1  0
  3 33  1  0
  5 34  1  0
  6 35  1  0
  8 36  1  0
  9 37  1  0
 13 38  1  0
 16 39  1  0
 17 40  1  0
 20 41  1  0
 22 42  1  0
 22 43  1  0
 23 44  1  0
 23 45  1  0
 25 46  1  0
 25 47  1  0
 26 48  1  0
 26 49  1  0
 28 50  1  0
 29 51  1  0
 30 52  1  0
 31 53  1  0
 32 54  1  0
M  END
$$$$
[H]c1c([H])c(C(=O)N2C([H])([H])C([H])([H])N(C(=O)N([H])c3c([H])c([H])c(C(F)(F)F)c([H])c3[H])C([H])([H])C2([H])[H])c([H])c([H])c1Cl
     RDKit          3D

 45 47  0  0  0  0  0  0  0  0999 V2000
   -8.4176   -0.5554    1.8611 F   0  0  0  0  0  0  0  0  0  0  0  0
   -8.0555    0.0638    0.6829 C   0  0  0  0  0  0  0  0  0  0  0  0
   -8.5179    1.3852    0.7381 F   0  0  0  0  0  0  0  0  0  0  0  0
   -8.6138   -0.5370   -0.4258 F   0  0  0  0  0  0  0  0  0  0  0  0
   -6.5759    0.1444    0.5146 C   0  0  0  0  0  0  0  0  0  0  0  0
   -5.7858   -0.8054    1.0821 C   0  0  0  0  0  0  0  0  0  0  0  0
   -4.3933   -0.6832    0.8991 C   0  0  0  0  0  0  0  0  0  0  0  0
   -3.8321    0.3429    0.1828 C   0  0  0  0  0  0  0  0  0  0  0  0
   -2.4557    0.5095   -0.0151 N   0  0  0  0  0  0  0  0  0  0  0  0
   -1.3812   -0.2345    0.4923 C   0  0  0  0  0  0  0  0  0  0  0  0
   -1.5835   -1.2248    1.2498 O   0  0  0  0  0  0  0  0  0  0  0  0
   -0.0337    0.1230    0.1544 N   0  0  0  0  0  0  0  0  0  0  0  0
    1.0236   -0.7224    0.7402 C   0  0  0  0  0  0  0  0  0  0  0  0
    1.8084   -1.2551   -0.4623 C   0  0  0  0  0  0  0  0  0  0  0  0
    2.3674   -0.1038   -1.1096 N   0  0  0  0  0  0  0  0  0  0  0  0
    1.2974    0.6933   -1.8144 C   0  0  0  0  0  0  0  0  0  0  0  0
    0.3872    1.1960   -0.6743 C   0  0  0  0  0  0  0  0  0  0  0  0
    3.6577    0.4038   -1.1689 C   0  0  0  0  0  0  0  0  0  0  0  0
    3.7385    1.4780   -1.9348 O   0  0  0  0  0  0  0  0  0  0  0  0
    4.8937    0.0108   -0.5860 C   0  0  0  0  0  0  0  0  0  0  0  0
    5.0264   -0.9577    0.3626 C   0  0  0  0  0  0  0  0  0  0  0  0
    6.2779   -1.3445    0.8852 C   0  0  0  0  0  0  0  0  0  0  0  0
    7.4170   -0.7230    0.4250 C   0  0  0  0  0  0  0  0  0  0  0  0
    8.9582   -1.2195    1.0885 Cl  0  0  0  0  0  0  0  0  0  0  0  0
    7.3091    0.2589   -0.5329 C   0  0  0  0  0  0  0  0  0  0  0  0
    6.0820    0.6281   -1.0366 C   0  0  0  0  0  0  0  0  0  0  0  0
   -4.7231    1.2795   -0.3690 C   0  0  0  0  0  0  0  0  0  0  0  0
   -6.0693    1.1985   -0.2172 C   0  0  0  0  0  0  0  0  0  0  0  0
   -6.1797   -1.6275    1.6537 H   0  0  0  0  0  0  0  0  0  0  0  0
   -3.8084   -1.4515    1.3545 H   0  0  0  0  0  0  0  0  0  0  0  0
   -2.2026    1.3360   -0.6556 H   0  0  0  0  0  0  0  0  0  0  0  0
    1.6592   -0.0534    1.3517 H   0  0  0  0  0  0  0  0  0  0  0  0
    0.6043   -1.5487    1.3348 H   0  0  0  0  0  0  0  0  0  0  0  0
    2.4291   -2.1051   -0.2760 H   0  0  0  0  0  0  0  0  0  0  0  0
    0.9487   -1.6661   -1.1310 H   0  0  0  0  0  0  0  0  0  0  0  0
    0.7137   -0.0277   -2.3902 H   0  0  0  0  0  0  0  0  0  0  0  0
    1.7162    1.5436   -2.3341 H   0  0  0  0  0  0  0  0  0  0  0  0
    1.0131    1.9521   -0.1161 H   0  0  0  0  0  0  0  0  0  0  0  0
   -0.4540    1.6966   -1.1550 H   0  0  0  0  0  0  0  0  0  0  0  0
    4.1758   -1.4572    0.7792 H   0  0  0  0  0  0  0  0  0  0  0  0
    6.3195   -2.1214    1.6347 H   0  0  0  0  0  0  0  0  0  0  0  0
    8.2380    0.7247   -0.8692 H   0  0  0  0  0  0  0  0  0  0  0  0
    6.0497    1.4026   -1.7850 H   0  0  0  0  0  0  0  0  0  0  0  0
   -4.3100    2.0957   -0.9353 H   0  0  0  0  0  0  0  0  0  0  0  0
   -6.7189    1.9575   -0.6702 H   0  0  0  0  0  0  0  0  0  0  0  0
  1  2  1  0
  2  3  1  0
  2  4  1  0
  2  5  1  0
  5  6  2  0
  6  7  1  0
  7  8  2  0
  8  9  1  0
  9 10  1  0
 10 11  2  0
 10 12  1  0
 12 13  1  0
 13 14  1  0
 14 15  1  0
 15 16  1  0
 16 17  1  0
 15 18  1  0
 18 19  2  0
 18 20  1  0
 20 21  2  0
 21 22  1  0
 22 23  2  0
 23 24  1  0
 23 25  1  0
 25 26  2  0
  8 27  1  0
 27 28  2  0
 28  5  1  0
 17 12  1  0
 26 20  1  0
  6 29  1  0
  7 30  1  0
  9 31  1  0
 13 32  1  0
 13 33  1  0
 14 34  1  0
 14 35  1  0
 16 36  1  0
 16 37  1  0
 17 38  1  0
 17 39  1  0
 21 40  1  0
 22 41  1  0
 25 42  1  0
 26 43  1  0
 27 44  1  0
 28 45  1  0
M  END
$$$$
[H]OP(=O)(O[H])OC([H])([H])C([H])([H])C([H])([H])n1nc(-c2c([H])c([H])c(OC([H])([H])c3c([H])c([H])c([H])c(F)c3[H])c(F)c2[H])n(C([H])([H])[H])c1=O
     RDKit          3D

 51 53  0  0  0  0  0  0  0  0999 V2000
    6.2739   -0.9999    0.8603 C   0  0  0  0  0  0  0  0  0  0  0  0
    4.8215   -0.8258    1.2032 C   0  0  0  0  0  0  0  0  0  0  0  0
    4.2261   -0.1451    0.1402 O   0  0  0  0  0  0  0  0  0  0  0  0
    2.9083    0.2055    0.0708 C   0  0  0  0  0  0  0  0  0  0  0  0
    2.0619   -0.1158    1.1056 C   0  0  0  0  0  0  0  0  0  0  0  0
    0.7439    0.2310    1.0432 C   0  0  0  0  0  0  0  0  0  0  0  0
    0.1873    0.9166   -0.0485 C   0  0  0  0  0  0  0  0  0  0  0  0
   -1.2329    1.2543   -0.0033 C   0  0  0  0  0  0  0  0  0  0  0  0
   -2.0064    1.0405    1.1097 N   0  0  0  0  0  0  0  0  0  0  0  0
   -3.2501    1.4080    0.8924 N   0  0  0  0  0  0  0  0  0  0  0  0
   -4.3048    1.3025    1.8742 C   0  0  0  0  0  0  0  0  0  0  0  0
   -5.0265   -0.0040    1.8569 C   0  0  0  0  0  0  0  0  0  0  0  0
   -5.6971   -0.3142    0.5391 C   0  0  0  0  0  0  0  0  0  0  0  0
   -6.3590   -1.5396    0.5793 O   0  0  0  0  0  0  0  0  0  0  0  0
   -7.0936   -1.8505   -0.9067 P   0  0  0  0  0  0  0  0  0  0  0  0
   -5.9956   -2.0979   -1.9140 O   0  0  0  0  0  0  0  0  0  0  0  0
   -7.9536   -0.4394   -1.3334 O   0  0  0  0  0  0  0  0  0  0  0  0
   -8.1946   -3.1017   -0.8218 O   0  0  0  0  0  0  0  0  0  0  0  0
   -3.3374    1.8660   -0.3429 C   0  0  0  0  0  0  0  0  0  0  0  0
   -4.3619    2.3103   -0.9188 O   0  0  0  0  0  0  0  0  0  0  0  0
   -2.0751    1.7635   -0.8874 N   0  0  0  0  0  0  0  0  0  0  0  0
   -1.7824    2.1507   -2.2339 C   0  0  0  0  0  0  0  0  0  0  0  0
    1.0228    1.2391   -1.0792 C   0  0  0  0  0  0  0  0  0  0  0  0
    2.3792    0.8762   -1.0035 C   0  0  0  0  0  0  0  0  0  0  0  0
    3.1420    1.2376   -2.0778 F   0  0  0  0  0  0  0  0  0  0  0  0
    6.6686   -2.1306    0.1753 C   0  0  0  0  0  0  0  0  0  0  0  0
    8.0150   -2.2754   -0.1336 C   0  0  0  0  0  0  0  0  0  0  0  0
    8.9480   -1.3145    0.2320 C   0  0  0  0  0  0  0  0  0  0  0  0
    8.5604   -0.1929    0.9109 C   0  0  0  0  0  0  0  0  0  0  0  0
    9.4180    0.7825    1.2973 F   0  0  0  0  0  0  0  0  0  0  0  0
    7.2180   -0.0612    1.2119 C   0  0  0  0  0  0  0  0  0  0  0  0
    4.3374   -1.8131    1.3495 H   0  0  0  0  0  0  0  0  0  0  0  0
    4.7974   -0.2418    2.1618 H   0  0  0  0  0  0  0  0  0  0  0  0
    2.4659   -0.6526    1.9727 H   0  0  0  0  0  0  0  0  0  0  0  0
    0.0665   -0.0255    1.8675 H   0  0  0  0  0  0  0  0  0  0  0  0
   -3.8626    1.4213    2.8853 H   0  0  0  0  0  0  0  0  0  0  0  0
   -4.9933    2.1556    1.6908 H   0  0  0  0  0  0  0  0  0  0  0  0
   -4.3016   -0.8200    2.1247 H   0  0  0  0  0  0  0  0  0  0  0  0
   -5.8288   -0.0313    2.6238 H   0  0  0  0  0  0  0  0  0  0  0  0
   -6.3397    0.5208    0.2136 H   0  0  0  0  0  0  0  0  0  0  0  0
   -4.9143   -0.4435   -0.2637 H   0  0  0  0  0  0  0  0  0  0  0  0
   -7.3310    0.1025   -1.8826 H   0  0  0  0  0  0  0  0  0  0  0  0
   -8.5355   -3.2566    0.0976 H   0  0  0  0  0  0  0  0  0  0  0  0
   -2.7595    2.3880   -2.7612 H   0  0  0  0  0  0  0  0  0  0  0  0
   -1.1941    3.0740   -2.3371 H   0  0  0  0  0  0  0  0  0  0  0  0
   -1.3689    1.3245   -2.8707 H   0  0  0  0  0  0  0  0  0  0  0  0
    0.6802    1.7723   -1.9432 H   0  0  0  0  0  0  0  0  0  0  0  0
    5.9372   -2.8841   -0.1116 H   0  0  0  0  0  0  0  0  0  0  0  0
    8.3764   -3.1458   -0.6708 H   0  0  0  0  0  0  0  0  0  0  0  0
    9.9902   -1.4338   -0.0110 H   0  0  0  0  0  0  0  0  0  0  0  0
    6.8541    0.8134    1.7518 H   0  0  0  0  0  0  0  0  0  0  0  0
  1  2  1  0
  2  3  1  0
  3  4  1  0
  4  5  2  0
  5  6  1  0
  6  7  2  0
  7  8  1  0
  8  9  2  0
  9 10  1  0
 10 11  1  0
 11 12  1  0
 12 13  1  0
 13 14  1  0
 14 15  1  0
 15 16  2  0
 15 17  1  0
 15 18  1  0
 10 19  1  0
 19 20  2  0
 19 21  1  0
 21 22  1  0
  7 23  1  0
 23 24  2  0
 24 25  1  0
  1 26  2  0
 26 27  1  0
 27 28  2  0
 28 29  1  0
 29 30  1  0
 29 31  2  0
 31  1  1  0
 24  4  1  0
 21  8  1  0
  2 32  1  0
  2 33  1  0
  5 34  1  0
  6 35  1  0
 11 36  1  0
 11 37  1  0
 12 38  1  0
 12 39  1  0
 13 40  1  0
 13 41  1  0
 17 42  1  0
 18 43  1  0
 22 44  1  0
 22 45  1  0
 22 46  1  0
 23 47  1  0
 26 48  1  0
 27 49  1  0
 28 50  1  0
 31 51  1  0
M  END
$$$$
[H]c1nc(N([H])c2c([H])c([H])c(N3C([H])([H])C([H])([H])N(C([H])([H])[H])C([H])([H])C3([H])[H])c([H])c2[H])nc(N([H])c2c([H])c([H])c(C([H])([H])[H])c(N3C([H])([H])C([H])([H])N(C([H])([H])[H])C([H])([H])C3([H])[H])c2[H])n1
     RDKit          3D

 70 74  0  0  0  0  0  0  0  0999 V2000
    1.5040   -1.3952    0.0297 N   0  0  0  0  0  0  0  0  0  0  0  0
    1.1565   -0.1440    0.3263 C   0  0  0  0  0  0  0  0  0  0  0  0
    2.0456    0.9139    0.5143 N   0  0  0  0  0  0  0  0  0  0  0  0
    3.4506    0.7846    0.4309 C   0  0  0  0  0  0  0  0  0  0  0  0
    4.1394    1.9750    0.1235 C   0  0  0  0  0  0  0  0  0  0  0  0
    5.5074    1.9686    0.0451 C   0  0  0  0  0  0  0  0  0  0  0  0
    6.2691    0.8379    0.2546 C   0  0  0  0  0  0  0  0  0  0  0  0
    7.6797    0.8582    0.1716 N   0  0  0  0  0  0  0  0  0  0  0  0
    8.4269   -0.3887    0.3257 C   0  0  0  0  0  0  0  0  0  0  0  0
    9.8086   -0.3072   -0.2560 C   0  0  0  0  0  0  0  0  0  0  0  0
   10.5665    0.8090    0.2022 N   0  0  0  0  0  0  0  0  0  0  0  0
   11.7158    1.1074   -0.5962 C   0  0  0  0  0  0  0  0  0  0  0  0
    9.8202    1.9482    0.6136 C   0  0  0  0  0  0  0  0  0  0  0  0
    8.4411    2.0452   -0.0555 C   0  0  0  0  0  0  0  0  0  0  0  0
    5.5954   -0.3221    0.5547 C   0  0  0  0  0  0  0  0  0  0  0  0
    4.1922   -0.3429    0.6415 C   0  0  0  0  0  0  0  0  0  0  0  0
   -0.1619    0.1076    0.4540 N   0  0  0  0  0  0  0  0  0  0  0  0
   -1.1379   -0.8249    0.3001 C   0  0  0  0  0  0  0  0  0  0  0  0
   -2.4545   -0.3801    0.4507 N   0  0  0  0  0  0  0  0  0  0  0  0
   -3.6114   -1.1868    0.3457 C   0  0  0  0  0  0  0  0  0  0  0  0
   -4.8247   -0.5683    0.0853 C   0  0  0  0  0  0  0  0  0  0  0  0
   -6.0299   -1.2828   -0.0153 C   0  0  0  0  0  0  0  0  0  0  0  0
   -7.2269   -0.5624   -0.2424 N   0  0  0  0  0  0  0  0  0  0  0  0
   -7.0385    0.7694   -0.8829 C   0  0  0  0  0  0  0  0  0  0  0  0
   -8.3290    1.0662   -1.6441 C   0  0  0  0  0  0  0  0  0  0  0  0
   -9.3535    1.2936   -0.6681 N   0  0  0  0  0  0  0  0  0  0  0  0
   -9.1894    2.6160   -0.0982 C   0  0  0  0  0  0  0  0  0  0  0  0
   -9.4031    0.3399    0.3917 C   0  0  0  0  0  0  0  0  0  0  0  0
   -8.5592   -0.9199    0.0993 C   0  0  0  0  0  0  0  0  0  0  0  0
   -6.0560   -2.6382    0.1407 C   0  0  0  0  0  0  0  0  0  0  0  0
   -7.2561   -3.5123    0.0217 C   0  0  0  0  0  0  0  0  0  0  0  0
   -4.8294   -3.2589    0.4048 C   0  0  0  0  0  0  0  0  0  0  0  0
   -3.6550   -2.5462    0.5019 C   0  0  0  0  0  0  0  0  0  0  0  0
   -0.7195   -2.0509    0.0053 N   0  0  0  0  0  0  0  0  0  0  0  0
    0.5783   -2.3468   -0.1310 C   0  0  0  0  0  0  0  0  0  0  0  0
    1.6119    1.8611    0.7354 H   0  0  0  0  0  0  0  0  0  0  0  0
    3.5878    2.9058   -0.0532 H   0  0  0  0  0  0  0  0  0  0  0  0
    6.0792    2.8802   -0.1946 H   0  0  0  0  0  0  0  0  0  0  0  0
    8.3983   -0.7681    1.3474 H   0  0  0  0  0  0  0  0  0  0  0  0
    7.8794   -1.1428   -0.3159 H   0  0  0  0  0  0  0  0  0  0  0  0
   10.3334   -1.2403    0.0364 H   0  0  0  0  0  0  0  0  0  0  0  0
    9.7764   -0.3147   -1.3647 H   0  0  0  0  0  0  0  0  0  0  0  0
   11.6063    0.7137   -1.6192 H   0  0  0  0  0  0  0  0  0  0  0  0
   11.9054    2.1951   -0.5561 H   0  0  0  0  0  0  0  0  0  0  0  0
   12.5855    0.5690   -0.1366 H   0  0  0  0  0  0  0  0  0  0  0  0
   10.3793    2.8591    0.2769 H   0  0  0  0  0  0  0  0  0  0  0  0
    9.7125    2.0497    1.7065 H   0  0  0  0  0  0  0  0  0  0  0  0
    8.5791    2.2333   -1.1232 H   0  0  0  0  0  0  0  0  0  0  0  0
    7.9974    2.9663    0.4252 H   0  0  0  0  0  0  0  0  0  0  0  0
    6.1499   -1.2457    0.7312 H   0  0  0  0  0  0  0  0  0  0  0  0
    3.7244   -1.2692    0.8953 H   0  0  0  0  0  0  0  0  0  0  0  0
   -2.6251    0.6435    0.6651 H   0  0  0  0  0  0  0  0  0  0  0  0
   -4.8425    0.5086   -0.0448 H   0  0  0  0  0  0  0  0  0  0  0  0
   -6.1759    0.7652   -1.5579 H   0  0  0  0  0  0  0  0  0  0  0  0
   -6.9807    1.5150   -0.0655 H   0  0  0  0  0  0  0  0  0  0  0  0
   -8.5857    0.2915   -2.3614 H   0  0  0  0  0  0  0  0  0  0  0  0
   -8.1370    2.0655   -2.1375 H   0  0  0  0  0  0  0  0  0  0  0  0
   -8.6587    2.5116    0.8828 H   0  0  0  0  0  0  0  0  0  0  0  0
   -8.7036    3.3298   -0.7676 H   0  0  0  0  0  0  0  0  0  0  0  0
  -10.1963    3.0171    0.1427 H   0  0  0  0  0  0  0  0  0  0  0  0
   -9.0484    0.7913    1.3366 H   0  0  0  0  0  0  0  0  0  0  0  0
  -10.4583    0.0378    0.5574 H   0  0  0  0  0  0  0  0  0  0  0  0
   -9.1406   -1.4321   -0.6902 H   0  0  0  0  0  0  0  0  0  0  0  0
   -8.5645   -1.4502    1.0717 H   0  0  0  0  0  0  0  0  0  0  0  0
   -7.8586   -3.3068   -0.8819 H   0  0  0  0  0  0  0  0  0  0  0  0
   -7.8395   -3.6217    0.9309 H   0  0  0  0  0  0  0  0  0  0  0  0
   -6.8905   -4.5875   -0.1803 H   0  0  0  0  0  0  0  0  0  0  0  0
   -4.8273   -4.3540    0.5354 H   0  0  0  0  0  0  0  0  0  0  0  0
   -2.7340   -3.0961    0.7283 H   0  0  0  0  0  0  0  0  0  0  0  0
    0.8998   -3.3433   -0.3695 H   0  0  0  0  0  0  0  0  0  0  0  0
  1  2  2  0
  2  3  1  0
  3  4  1  0
  4  5  2  0
  5  6  1  0
  6  7  2  0
  7  8  1  0
  8  9  1  0
  9 10  1  0
 10 11  1  0
 11 12  1  0
 11 13  1  0
 13 14  1  0
  7 15  1  0
 15 16  2  0
  2 17  1  0
 17 18  2  0
 18 19  1  0
 19 20  1  0
 20 21  2  0
 21 22  1  0
 22 23  1  0
 23 24  1  0
 24 25  1  0
 25 26  1  0
 26 27  1  0
 26 28  1  0
 28 29  1  0
 22 30  2  0
 30 31  1  0
 30 32  1  0
 32 33  2  0
 18 34  1  0
 34 35  2  0
 35  1  1  0
 16  4  1  0
 33 20  1  0
 14  8  1  0
 29 23  1  0
  3 36  1  0
  5 37  1  0
  6 38  1  0
  9 39  1  0
  9 40  1  0
 10 41  1  0
 10 42  1  0
 12 43  1  0
 12 44  1  0
 12 45  1  0
 13 46  1  0
 13 47  1  0
 14 48  1  0
 14 49  1  0
 15 50  1  0
 16 51  1  0
 19 52  1  0
 21 53  1  0
 24 54  1  0
 24 55  1  0
 25 56  1  0
 25 57  1  0
 27 58  1  0
 27 59  1  0
 27 60  1  0
 28 61  1  0
 28 62  1  0
 29 63  1  0
 29 64  1  0
 31 65  1  0
 31 66  1  0
 31 67  1  0
 32 68  1  0
 33 69  1  0
 35 70  1  0
M  END
$$$$
[H]Oc1c([H])c([H])c2c(=O)n(-c3c([H])c([H])c([H])c([H])c3Cl)c(-c3c([H])c([H])c(Cl)c([H])c3[H])c([H])c(=O)c2c1[H]
     RDKit          3D

 41 44  0  0  0  0  0  0  0  0999 V2000
   -5.5961    3.3040   -0.3820 Cl  0  0  0  0  0  0  0  0  0  0  0  0
   -4.0075    2.6119   -0.2294 C   0  0  0  0  0  0  0  0  0  0  0  0
   -3.4919    2.2587    0.9863 C   0  0  0  0  0  0  0  0  0  0  0  0
   -2.2366    1.7166    1.0627 C   0  0  0  0  0  0  0  0  0  0  0  0
   -1.4413    1.4979   -0.0234 C   0  0  0  0  0  0  0  0  0  0  0  0
   -1.9441    1.8461   -1.2427 C   0  0  0  0  0  0  0  0  0  0  0  0
   -3.1969    2.3893   -1.3373 C   0  0  0  0  0  0  0  0  0  0  0  0
   -0.0966    0.9220    0.0288 C   0  0  0  0  0  0  0  0  0  0  0  0
    0.9590    1.8240    0.2101 C   0  0  0  0  0  0  0  0  0  0  0  0
    2.3146    1.6680    0.0082 C   0  0  0  0  0  0  0  0  0  0  0  0
    3.0217    2.7088    0.1251 O   0  0  0  0  0  0  0  0  0  0  0  0
    2.9917    0.4980   -0.3088 C   0  0  0  0  0  0  0  0  0  0  0  0
    4.3384    0.6994   -0.4136 C   0  0  0  0  0  0  0  0  0  0  0  0
    5.1741   -0.3745   -0.7279 C   0  0  0  0  0  0  0  0  0  0  0  0
    6.5359   -0.2132   -0.8428 O   0  0  0  0  0  0  0  0  0  0  0  0
    4.6389   -1.6263   -0.9299 C   0  0  0  0  0  0  0  0  0  0  0  0
    3.2719   -1.8396   -0.8254 C   0  0  0  0  0  0  0  0  0  0  0  0
    2.4577   -0.7734   -0.5150 C   0  0  0  0  0  0  0  0  0  0  0  0
    1.1353   -1.1580   -0.4510 C   0  0  0  0  0  0  0  0  0  0  0  0
    0.9286   -2.3653   -0.7641 O   0  0  0  0  0  0  0  0  0  0  0  0
    0.0632   -0.4091   -0.1004 N   0  0  0  0  0  0  0  0  0  0  0  0
   -1.0739   -1.1716    0.1716 C   0  0  0  0  0  0  0  0  0  0  0  0
   -1.9353   -1.5151   -0.8404 C   0  0  0  0  0  0  0  0  0  0  0  0
   -3.0514   -2.2715   -0.5556 C   0  0  0  0  0  0  0  0  0  0  0  0
   -3.2932   -2.6770    0.7431 C   0  0  0  0  0  0  0  0  0  0  0  0
   -2.4100   -2.3211    1.7599 C   0  0  0  0  0  0  0  0  0  0  0  0
   -1.2974   -1.5653    1.4670 C   0  0  0  0  0  0  0  0  0  0  0  0
   -0.1829   -1.1286    2.7919 Cl  0  0  0  0  0  0  0  0  0  0  0  0
   -4.1006    2.4208    1.8634 H   0  0  0  0  0  0  0  0  0  0  0  0
   -1.8613    1.4541    2.0418 H   0  0  0  0  0  0  0  0  0  0  0  0
   -1.4013    1.7195   -2.1868 H   0  0  0  0  0  0  0  0  0  0  0  0
   -3.6452    2.6845   -2.2863 H   0  0  0  0  0  0  0  0  0  0  0  0
    0.6257    2.7884    0.5654 H   0  0  0  0  0  0  0  0  0  0  0  0
    4.7641    1.6761   -0.2569 H   0  0  0  0  0  0  0  0  0  0  0  0
    7.1182   -0.3305   -0.0407 H   0  0  0  0  0  0  0  0  0  0  0  0
    5.2943   -2.4670   -1.1762 H   0  0  0  0  0  0  0  0  0  0  0  0
    2.8647   -2.8241   -0.9858 H   0  0  0  0  0  0  0  0  0  0  0  0
   -1.7622   -1.2060   -1.8925 H   0  0  0  0  0  0  0  0  0  0  0  0
   -3.7345   -2.5474   -1.3387 H   0  0  0  0  0  0  0  0  0  0  0  0
   -4.1539   -3.2725    1.0252 H   0  0  0  0  0  0  0  0  0  0  0  0
   -2.5844   -2.6308    2.7846 H   0  0  0  0  0  0  0  0  0  0  0  0
  1  2  1  0
  2  3  2  0
  3  4  1  0
  4  5  2  0
  5  6  1  0
  6  7  2  0
  5  8  1  0
  8  9  2  0
  9 10  1  0
 10 11  2  0
 10 12  1  0
 12 13  2  0
 13 14  1  0
 14 15  1  0
 14 16  2  0
 16 17  1  0
 17 18  2  0
 18 19  1  0
 19 20  2  0
 19 21  1  0
 21 22  1  0
 22 23  2  0
 23 24  1  0
 24 25  2  0
 25 26  1  0
 26 27  2  0
 27 28  1  0
  7  2  1  0
 21  8  1  0
 27 22  1  0
 18 12  1  0
  3 29  1  0
  4 30  1  0
  6 31  1  0
  7 32  1  0
  9 33  1  0
 13 34  1  0
 15 35  1  0
 16 36  1  0
 17 37  1  0
 23 38  1  0
 24 39  1  0
 25 40  1  0
 26 41  1  0
M  END
$$$$
[H]OC(=O)C([H])([H])[C@]([H])(N([H])C(=O)[C@@]([H])(N([H])C(=O)[C@@]([H])(N([H])C(=O)/C([H])=C(\[H])c1c([H])c([H])c([H])c([H])c1[H])C([H])([H])c1c([H])c([H])c([H])c([H])c1[H])C([H])([H])c1c([H])c([H])c([H])c([H])c1[H])C([H])([H])[H]
     RDKit          3D

 72 74  0  0  0  0  0  0  0  0999 V2000
    6.4540   -1.8463    2.0954 C   0  0  0  0  0  0  0  0  0  0  0  0
    5.5857   -0.7677    1.6894 C   0  0  0  0  0  0  0  0  0  0  0  0
    4.4481   -0.9191    1.0719 C   0  0  0  0  0  0  0  0  0  0  0  0
    3.6178    0.2170    0.6679 C   0  0  0  0  0  0  0  0  0  0  0  0
    4.0571    1.3687    0.9489 O   0  0  0  0  0  0  0  0  0  0  0  0
    2.3819    0.0581   -0.0278 N   0  0  0  0  0  0  0  0  0  0  0  0
    1.7026    1.2451   -0.4596 C   0  0  2  0  0  0  0  0  0  0  0  0
    0.2233    1.0534   -0.1439 C   0  0  0  0  0  0  0  0  0  0  0  0
   -0.2021    1.5037    0.9495 O   0  0  0  0  0  0  0  0  0  0  0  0
   -0.5823    0.3826   -1.0641 N   0  0  0  0  0  0  0  0  0  0  0  0
   -2.0455    0.1590   -0.9653 C   0  0  2  0  0  0  0  0  0  0  0  0
   -2.2223   -0.4213    0.4174 C   0  0  0  0  0  0  0  0  0  0  0  0
   -1.2737   -0.9931    0.9827 O   0  0  0  0  0  0  0  0  0  0  0  0
   -3.4540   -0.3296    1.1380 N   0  0  0  0  0  0  0  0  0  0  0  0
   -3.5751   -0.8444    2.4659 C   0  0  1  0  0  0  0  0  0  0  0  0
   -3.7539    0.2883    3.4554 C   0  0  0  0  0  0  0  0  0  0  0  0
   -4.9529    1.0915    3.2317 C   0  0  0  0  0  0  0  0  0  0  0  0
   -5.1691    2.2282    4.0503 O   0  0  0  0  0  0  0  0  0  0  0  0
   -5.7928    0.8367    2.3731 O   0  0  0  0  0  0  0  0  0  0  0  0
   -4.6526   -1.8907    2.6528 C   0  0  0  0  0  0  0  0  0  0  0  0
   -2.3498   -0.8129   -2.0264 C   0  0  0  0  0  0  0  0  0  0  0  0
   -3.6585   -1.2625   -2.4367 C   0  0  0  0  0  0  0  0  0  0  0  0
   -4.2226   -0.6089   -3.5669 C   0  0  0  0  0  0  0  0  0  0  0  0
   -5.4030   -0.9831   -4.1374 C   0  0  0  0  0  0  0  0  0  0  0  0
   -6.1045   -2.0625   -3.5913 C   0  0  0  0  0  0  0  0  0  0  0  0
   -5.6010   -2.7177   -2.4986 C   0  0  0  0  0  0  0  0  0  0  0  0
   -4.3812   -2.3064   -1.9374 C   0  0  0  0  0  0  0  0  0  0  0  0
    1.8910    1.6047   -1.8851 C   0  0  0  0  0  0  0  0  0  0  0  0
    1.3947    2.9914   -2.1397 C   0  0  0  0  0  0  0  0  0  0  0  0
    0.1448    3.3622   -2.4261 C   0  0  0  0  0  0  0  0  0  0  0  0
   -0.1648    4.7172   -2.6524 C   0  0  0  0  0  0  0  0  0  0  0  0
    0.8113    5.6783   -2.5855 C   0  0  0  0  0  0  0  0  0  0  0  0
    2.1100    5.2810   -2.2864 C   0  0  0  0  0  0  0  0  0  0  0  0
    2.4196    3.9855   -2.0647 C   0  0  0  0  0  0  0  0  0  0  0  0
    7.5892   -1.5345    2.8307 C   0  0  0  0  0  0  0  0  0  0  0  0
    8.4439   -2.5308    3.2021 C   0  0  0  0  0  0  0  0  0  0  0  0
    8.1995   -3.8407    2.8596 C   0  0  0  0  0  0  0  0  0  0  0  0
    7.0745   -4.1553    2.1294 C   0  0  0  0  0  0  0  0  0  0  0  0
    6.1824   -3.1582    1.7356 C   0  0  0  0  0  0  0  0  0  0  0  0
    5.8892    0.2740    1.9045 H   0  0  0  0  0  0  0  0  0  0  0  0
    4.0951   -1.9332    0.8325 H   0  0  0  0  0  0  0  0  0  0  0  0
    2.0241   -0.9202   -0.2090 H   0  0  0  0  0  0  0  0  0  0  0  0
    2.0734    2.1044    0.1787 H   0  0  0  0  0  0  0  0  0  0  0  0
   -0.1549   -0.0590   -1.9501 H   0  0  0  0  0  0  0  0  0  0  0  0
   -2.6034    1.0763   -0.9790 H   0  0  0  0  0  0  0  0  0  0  0  0
   -4.2377    0.1170    0.6607 H   0  0  0  0  0  0  0  0  0  0  0  0
   -2.5979   -1.3247    2.7607 H   0  0  0  0  0  0  0  0  0  0  0  0
   -3.8042   -0.2015    4.4808 H   0  0  0  0  0  0  0  0  0  0  0  0
   -2.8650    0.9209    3.4352 H   0  0  0  0  0  0  0  0  0  0  0  0
   -5.3190    3.1238    3.6167 H   0  0  0  0  0  0  0  0  0  0  0  0
   -5.2864   -1.5774    3.5385 H   0  0  0  0  0  0  0  0  0  0  0  0
   -4.2240   -2.8933    2.8912 H   0  0  0  0  0  0  0  0  0  0  0  0
   -5.2719   -1.9325    1.7623 H   0  0  0  0  0  0  0  0  0  0  0  0
   -1.7521   -0.5218   -2.9656 H   0  0  0  0  0  0  0  0  0  0  0  0
   -1.7951   -1.8185   -1.7761 H   0  0  0  0  0  0  0  0  0  0  0  0
   -3.6655    0.2315   -3.9717 H   0  0  0  0  0  0  0  0  0  0  0  0
   -5.8434   -0.4896   -5.0103 H   0  0  0  0  0  0  0  0  0  0  0  0
   -7.0364   -2.3595   -4.0557 H   0  0  0  0  0  0  0  0  0  0  0  0
   -6.1710   -3.5589   -2.0977 H   0  0  0  0  0  0  0  0  0  0  0  0
   -4.0235   -2.8555   -1.0836 H   0  0  0  0  0  0  0  0  0  0  0  0
    1.3240    0.9512   -2.6102 H   0  0  0  0  0  0  0  0  0  0  0  0
    2.9732    1.5556   -2.1777 H   0  0  0  0  0  0  0  0  0  0  0  0
   -0.6981    2.6675   -2.5262 H   0  0  0  0  0  0  0  0  0  0  0  0
   -1.2072    4.9902   -2.8835 H   0  0  0  0  0  0  0  0  0  0  0  0
    0.5485    6.7080   -2.7604 H   0  0  0  0  0  0  0  0  0  0  0  0
    2.8709    6.0402   -2.2275 H   0  0  0  0  0  0  0  0  0  0  0  0
    3.4057    3.6619   -1.8350 H   0  0  0  0  0  0  0  0  0  0  0  0
    7.7942   -0.5018    3.1008 H   0  0  0  0  0  0  0  0  0  0  0  0
    9.3516   -2.3100    3.7788 H   0  0  0  0  0  0  0  0  0  0  0  0
    8.8917   -4.6365    3.1545 H   0  0  0  0  0  0  0  0  0  0  0  0
    6.8367   -5.1590    1.8216 H   0  0  0  0  0  0  0  0  0  0  0  0
    5.3088   -3.4361    1.1493 H   0  0  0  0  0  0  0  0  0  0  0  0
  1  2  1  0
  2  3  2  0
  3  4  1  0
  4  5  2  0
  4  6  1  0
  6  7  1  0
  7  8  1  0
  8  9  2  0
  8 10  1  0
 10 11  1  0
 11 12  1  0
 12 13  2  0
 12 14  1  0
 14 15  1  0
 15 16  1  0
 16 17  1  0
 17 18  1  0
 17 19  2  0
 15 20  1  0
 11 21  1  0
 21 22  1  0
 22 23  2  0
 23 24  1  0
 24 25  2  0
 25 26  1  0
 26 27  2  0
  7 28  1  0
 28 29  1  0
 29 30  2  0
 30 31  1  0
 31 32  2  0
 32 33  1  0
 33 34  2  0
  1 35  2  0
 35 36  1  0
 36 37  2  0
 37 38  1  0
 38 39  2  0
 39  1  1  0
 27 22  1  0
 34 29  1  0
  2 40  1  0
  3 41  1  0
  6 42  1  0
  7 43  1  1
 10 44  1  0
 11 45  1  1
 14 46  1  0
 15 47  1  1
 16 48  1  0
 16 49  1  0
 18 50  1  0
 20 51  1  0
 20 52  1  0
 20 53  1  0
 21 54  1  0
 21 55  1  0
 23 56  1  0
 24 57  1  0
 25 58  1  0
 26 59  1  0
 27 60  1  0
 28 61  1  0
 28 62  1  0
 30 63  1  0
 31 64  1  0
 32 65  1  0
 33 66  1  0
 34 67  1  0
 35 68  1  0
 36 69  1  0
 37 70  1  0
 38 71  1  0
 39 72  1  0
M  END
$$$$
[H]C1=C(S(=O)(=O)C([H])([H])C([H])([H])c2c([H])c([H])c([H])c([H])c2[H])C([H])([H])[C@]([H])(N([H])C(=O)C([H])([H])[H])[C@@]([H])(N([H])C(=O)[C@@]([H])(C([H])([H])[H])C([H])([H])C([H])(C([H])([H])[H])C([H])([H])[H])[C@@]([H])(C([H])(C([H])([H])[H])C([H])([H])[H])OC1([H])[H]
     RDKit          3D

 77 78  0  0  0  0  0  0  0  0999 V2000
    0.4267   -2.2015   -2.5353 C   0  0  0  0  0  0  0  0  0  0  0  0
    1.3533   -1.1972   -1.9942 C   0  0  0  0  0  0  0  0  0  0  0  0
    1.3655   -0.2433   -1.0740 C   0  0  0  0  0  0  0  0  0  0  0  0
    2.9666    0.5309   -1.0723 S   0  0  0  0  0  0  0  0  0  0  0  0
    4.0526   -0.2740    0.0360 C   0  0  0  0  0  0  0  0  0  0  0  0
    5.4301    0.2601    0.1189 C   0  0  0  0  0  0  0  0  0  0  0  0
    5.5763    1.6523    0.5371 C   0  0  0  0  0  0  0  0  0  0  0  0
    5.6586    2.0448    1.8595 C   0  0  0  0  0  0  0  0  0  0  0  0
    5.8151    3.3781    2.1616 C   0  0  0  0  0  0  0  0  0  0  0  0
    5.8970    4.3688    1.2118 C   0  0  0  0  0  0  0  0  0  0  0  0
    5.8121    3.9536   -0.1153 C   0  0  0  0  0  0  0  0  0  0  0  0
    5.6566    2.6331   -0.4294 C   0  0  0  0  0  0  0  0  0  0  0  0
    3.5500    0.5527   -2.4340 O   0  0  0  0  0  0  0  0  0  0  0  0
    2.6928    1.9664   -0.6427 O   0  0  0  0  0  0  0  0  0  0  0  0
    0.4107    0.2953   -0.1118 C   0  0  0  0  0  0  0  0  0  0  0  0
   -0.2493   -0.7096    0.7912 C   0  0  2  0  0  0  0  0  0  0  0  0
    0.7661   -1.5049    1.4236 N   0  0  0  0  0  0  0  0  0  0  0  0
    1.0817   -1.5125    2.7829 C   0  0  0  0  0  0  0  0  0  0  0  0
    2.1576   -2.3860    3.3042 C   0  0  0  0  0  0  0  0  0  0  0  0
    0.4613   -0.7843    3.5710 O   0  0  0  0  0  0  0  0  0  0  0  0
   -1.3724   -1.4769    0.1775 C   0  0  1  0  0  0  0  0  0  0  0  0
   -2.1513   -0.5202   -0.6034 N   0  0  0  0  0  0  0  0  0  0  0  0
   -3.4369   -0.0798   -0.2256 C   0  0  0  0  0  0  0  0  0  0  0  0
   -3.9750   -0.5054    0.8279 O   0  0  0  0  0  0  0  0  0  0  0  0
   -4.1637    0.8758   -1.0596 C   0  0  2  0  0  0  0  0  0  0  0  0
   -4.8387    2.0058   -0.4045 C   0  0  0  0  0  0  0  0  0  0  0  0
   -4.0833    3.0089    0.3478 C   0  0  0  0  0  0  0  0  0  0  0  0
   -3.3222    2.4840    1.5178 C   0  0  0  0  0  0  0  0  0  0  0  0
   -3.0999    3.7944   -0.5109 C   0  0  0  0  0  0  0  0  0  0  0  0
   -5.2614    0.1245   -1.8664 C   0  0  0  0  0  0  0  0  0  0  0  0
   -0.9660   -2.5723   -0.7332 C   0  0  1  0  0  0  0  0  0  0  0  0
   -1.9340   -3.7218   -0.8339 C   0  0  0  0  0  0  0  0  0  0  0  0
   -2.1747   -4.3994    0.4930 C   0  0  0  0  0  0  0  0  0  0  0  0
   -3.2806   -3.3354   -1.3976 C   0  0  0  0  0  0  0  0  0  0  0  0
   -0.8416   -2.0556   -2.0434 O   0  0  0  0  0  0  0  0  0  0  0  0
    0.3626   -2.0258   -3.6490 H   0  0  0  0  0  0  0  0  0  0  0  0
    0.7689   -3.2461   -2.3783 H   0  0  0  0  0  0  0  0  0  0  0  0
    2.3217   -1.2842   -2.5316 H   0  0  0  0  0  0  0  0  0  0  0  0
    3.5398   -0.3470    1.0212 H   0  0  0  0  0  0  0  0  0  0  0  0
    4.1444   -1.3504   -0.2982 H   0  0  0  0  0  0  0  0  0  0  0  0
    5.8991    0.1260   -0.8890 H   0  0  0  0  0  0  0  0  0  0  0  0
    6.0161   -0.4015    0.7971 H   0  0  0  0  0  0  0  0  0  0  0  0
    5.5940    1.2616    2.6132 H   0  0  0  0  0  0  0  0  0  0  0  0
    5.8767    3.6561    3.2143 H   0  0  0  0  0  0  0  0  0  0  0  0
    6.0191    5.4008    1.4689 H   0  0  0  0  0  0  0  0  0  0  0  0
    5.8729    4.7108   -0.9058 H   0  0  0  0  0  0  0  0  0  0  0  0
    5.5969    2.3722   -1.4981 H   0  0  0  0  0  0  0  0  0  0  0  0
    1.0104    0.9582    0.5857 H   0  0  0  0  0  0  0  0  0  0  0  0
   -0.3222    1.0085   -0.5581 H   0  0  0  0  0  0  0  0  0  0  0  0
   -0.7113   -0.0968    1.6245 H   0  0  0  0  0  0  0  0  0  0  0  0
    1.3119   -2.1312    0.7917 H   0  0  0  0  0  0  0  0  0  0  0  0
    1.7969   -2.8665    4.2540 H   0  0  0  0  0  0  0  0  0  0  0  0
    2.2934   -3.2235    2.5885 H   0  0  0  0  0  0  0  0  0  0  0  0
    3.1157   -1.8614    3.4468 H   0  0  0  0  0  0  0  0  0  0  0  0
   -2.0401   -1.7884    1.0230 H   0  0  0  0  0  0  0  0  0  0  0  0
   -1.6983   -0.1712   -1.4771 H   0  0  0  0  0  0  0  0  0  0  0  0
   -3.4628    1.1905   -1.8800 H   0  0  0  0  0  0  0  0  0  0  0  0
   -5.4827    2.5810   -1.1545 H   0  0  0  0  0  0  0  0  0  0  0  0
   -5.6553    1.5463    0.2511 H   0  0  0  0  0  0  0  0  0  0  0  0
   -4.7680    3.8201    0.7641 H   0  0  0  0  0  0  0  0  0  0  0  0
   -2.4567    1.8763    1.2269 H   0  0  0  0  0  0  0  0  0  0  0  0
   -4.0007    1.9380    2.1986 H   0  0  0  0  0  0  0  0  0  0  0  0
   -2.8592    3.3370    2.1091 H   0  0  0  0  0  0  0  0  0  0  0  0
   -2.1838    3.2109   -0.7059 H   0  0  0  0  0  0  0  0  0  0  0  0
   -2.7968    4.6758    0.0829 H   0  0  0  0  0  0  0  0  0  0  0  0
   -3.5922    4.1736   -1.4297 H   0  0  0  0  0  0  0  0  0  0  0  0
   -4.8016   -0.4448   -2.6887 H   0  0  0  0  0  0  0  0  0  0  0  0
   -6.0405    0.8326   -2.1754 H   0  0  0  0  0  0  0  0  0  0  0  0
   -5.6981   -0.5853   -1.1595 H   0  0  0  0  0  0  0  0  0  0  0  0
    0.0207   -3.0204   -0.5001 H   0  0  0  0  0  0  0  0  0  0  0  0
   -1.5063   -4.4987   -1.5222 H   0  0  0  0  0  0  0  0  0  0  0  0
   -2.6402   -5.3894    0.2831 H   0  0  0  0  0  0  0  0  0  0  0  0
   -1.1521   -4.6411    0.9073 H   0  0  0  0  0  0  0  0  0  0  0  0
   -2.7395   -3.7955    1.2022 H   0  0  0  0  0  0  0  0  0  0  0  0
   -3.6880   -4.2601   -1.9053 H   0  0  0  0  0  0  0  0  0  0  0  0
   -3.2400   -2.5534   -2.1557 H   0  0  0  0  0  0  0  0  0  0  0  0
   -4.0051   -3.1431   -0.5762 H   0  0  0  0  0  0  0  0  0  0  0  0
  1  2  1  0
  2  3  2  0
  3  4  1  0
  4  5  1  0
  5  6  1  0
  6  7  1  0
  7  8  2  0
  8  9  1  0
  9 10  2  0
 10 11  1  0
 11 12  2  0
  4 13  2  0
  4 14  2  0
  3 15  1  0
 15 16  1  0
 16 17  1  0
 17 18  1  0
 18 19  1  0
 18 20  2  0
 16 21  1  0
 21 22  1  0
 22 23  1  0
 23 24  2  0
 23 25  1  0
 25 26  1  0
 26 27  1  0
 27 28  1  0
 27 29  1  0
 25 30  1  0
 21 31  1  0
 31 32  1  0
 32 33  1  0
 32 34  1  0
 31 35  1  0
 35  1  1  0
 12  7  1  0
  1 36  1  0
  1 37  1  0
  2 38  1  0
  5 39  1  0
  5 40  1  0
  6 41  1  0
  6 42  1  0
  8 43  1  0
  9 44  1  0
 10 45  1  0
 11 46  1  0
 12 47  1  0
 15 48  1  0
 15 49  1  0
 16 50  1  1
 17 51  1  0
 19 52  1  0
 19 53  1  0
 19 54  1  0
 21 55  1  1
 22 56  1  0
 25 57  1  6
 26 58  1  0
 26 59  1  0
 27 60  1  0
 28 61  1  0
 28 62  1  0
 28 63  1  0
 29 64  1  0
 29 65  1  0
 29 66  1  0
 30 67  1  0
 30 68  1  0
 30 69  1  0
 31 70  1  1
 32 71  1  0
 33 72  1  0
 33 73  1  0
 33 74  1  0
 34 75  1  0
 34 76  1  0
 34 77  1  0
M  END
$$$$
[H]c1c([H])c([H])c(-c2c([H])c([H])c(C3([H])C([H])([H])C4([H])N([H])C3([H])C([H])([H])C4([H])[H])c([H])c2[H])c(Br)c1[H]
     RDKit          3D

 38 41  0  0  0  0  0  0  0  0999 V2000
    2.5705    1.4333    2.7818 Br  0  0  0  0  0  0  0  0  0  0  0  0
    3.8144    0.8916    1.4345 C   0  0  0  0  0  0  0  0  0  0  0  0
    5.1807    1.1506    1.6231 C   0  0  0  0  0  0  0  0  0  0  0  0
    6.1053    0.7596    0.6827 C   0  0  0  0  0  0  0  0  0  0  0  0
    5.6519    0.1086   -0.4457 C   0  0  0  0  0  0  0  0  0  0  0  0
    4.3157   -0.1419   -0.6255 C   0  0  0  0  0  0  0  0  0  0  0  0
    3.3632    0.2461    0.3147 C   0  0  0  0  0  0  0  0  0  0  0  0
    1.9437   -0.0191    0.0872 C   0  0  0  0  0  0  0  0  0  0  0  0
    0.9921    0.9626    0.1721 C   0  0  0  0  0  0  0  0  0  0  0  0
   -0.3611    0.6850   -0.0360 C   0  0  0  0  0  0  0  0  0  0  0  0
   -0.8004   -0.5799   -0.3347 C   0  0  0  0  0  0  0  0  0  0  0  0
    0.1638   -1.5536   -0.4173 C   0  0  0  0  0  0  0  0  0  0  0  0
    1.5021   -1.3035   -0.2161 C   0  0  0  0  0  0  0  0  0  0  0  0
   -2.1986   -0.9301   -0.5519 C   0  0  0  0  0  0  0  0  0  0  0  0
   -3.0048    0.1162   -1.2861 C   0  0  0  0  0  0  0  0  0  0  0  0
   -4.3441    0.0613   -0.6065 C   0  0  0  0  0  0  0  0  0  0  0  0
   -4.2565    0.9339    0.6241 C   0  0  0  0  0  0  0  0  0  0  0  0
   -3.2837    0.1233    1.4776 C   0  0  0  0  0  0  0  0  0  0  0  0
   -3.0301   -1.1317    0.6827 C   0  0  0  0  0  0  0  0  0  0  0  0
   -4.3566   -1.2633    0.0329 N   0  0  0  0  0  0  0  0  0  0  0  0
    5.5004    1.6633    2.5199 H   0  0  0  0  0  0  0  0  0  0  0  0
    7.1684    0.9546    0.8170 H   0  0  0  0  0  0  0  0  0  0  0  0
    6.4103   -0.1897   -1.1741 H   0  0  0  0  0  0  0  0  0  0  0  0
    3.9588   -0.6575   -1.5196 H   0  0  0  0  0  0  0  0  0  0  0  0
    1.3232    1.9694    0.3971 H   0  0  0  0  0  0  0  0  0  0  0  0
   -1.0247    1.5278    0.0465 H   0  0  0  0  0  0  0  0  0  0  0  0
   -0.1174   -2.5842   -0.6524 H   0  0  0  0  0  0  0  0  0  0  0  0
    2.2668   -2.0649   -0.2795 H   0  0  0  0  0  0  0  0  0  0  0  0
   -2.2854   -1.9221   -1.1080 H   0  0  0  0  0  0  0  0  0  0  0  0
   -2.6018    1.1403   -1.1770 H   0  0  0  0  0  0  0  0  0  0  0  0
   -3.0590   -0.1143   -2.3682 H   0  0  0  0  0  0  0  0  0  0  0  0
   -5.1944    0.2430   -1.2357 H   0  0  0  0  0  0  0  0  0  0  0  0
   -5.2442    1.0231    1.1082 H   0  0  0  0  0  0  0  0  0  0  0  0
   -3.8261    1.9160    0.3412 H   0  0  0  0  0  0  0  0  0  0  0  0
   -3.8395   -0.1768    2.4115 H   0  0  0  0  0  0  0  0  0  0  0  0
   -2.3839    0.6664    1.7614 H   0  0  0  0  0  0  0  0  0  0  0  0
   -2.7787   -2.0009    1.2716 H   0  0  0  0  0  0  0  0  0  0  0  0
   -4.2403   -1.9425   -0.7549 H   0  0  0  0  0  0  0  0  0  0  0  0
  1  2  1  0
  2  3  2  0
  3  4  1  0
  4  5  2  0
  5  6  1  0
  6  7  2  0
  7  8  1  0
  8  9  2  0
  9 10  1  0
 10 11  2  0
 11 12  1  0
 12 13  2  0
 11 14  1  0
 14 15  1  0
 15 16  1  0
 16 17  1  0
 17 18  1  0
 18 19  1  0
 19 20  1  0
  7  2  1  0
 13  8  1  0
 19 14  1  0
 20 16  1  0
  3 21  1  0
  4 22  1  0
  5 23  1  0
  6 24  1  0
  9 25  1  0
 10 26  1  0
 12 27  1  0
 13 28  1  0
 14 29  1  0
 15 30  1  0
 15 31  1  0
 16 32  1  0
 17 33  1  0
 17 34  1  0
 18 35  1  0
 18 36  1  0
 19 37  1  0
 20 38  1  0
M  END
$$$$
[H]OC([H])([H])c1sc(C2=NC(=O)/C(=C(/[H])c3nn([H])c(C([H])([H])[H])c3[H])C(=O)N2c2nc([H])c([H])c(C([H])([H])[H])c2[H])c([H])c1[H]
     RDKit          3D

 46 49  0  0  0  0  0  0  0  0999 V2000
    4.4706   -1.1533   -2.6711 C   0  0  0  0  0  0  0  0  0  0  0  0
    3.4442   -1.7305   -1.7852 C   0  0  0  0  0  0  0  0  0  0  0  0
    3.5689   -3.0382   -1.3573 C   0  0  0  0  0  0  0  0  0  0  0  0
    2.5977   -3.5623   -0.5319 C   0  0  0  0  0  0  0  0  0  0  0  0
    1.5708   -2.8137   -0.1649 N   0  0  0  0  0  0  0  0  0  0  0  0
    1.3929   -1.5130   -0.5558 C   0  0  0  0  0  0  0  0  0  0  0  0
    2.3646   -1.0094   -1.3735 C   0  0  0  0  0  0  0  0  0  0  0  0
    0.2470   -0.8234   -0.1149 N   0  0  0  0  0  0  0  0  0  0  0  0
   -1.0590   -1.2825   -0.5573 C   0  0  0  0  0  0  0  0  0  0  0  0
   -1.1542   -2.2718   -1.2957 O   0  0  0  0  0  0  0  0  0  0  0  0
   -2.2544   -0.5585   -0.1161 C   0  0  0  0  0  0  0  0  0  0  0  0
   -3.4626   -0.8856   -0.5081 C   0  0  0  0  0  0  0  0  0  0  0  0
   -4.7062   -0.2551   -0.1364 C   0  0  0  0  0  0  0  0  0  0  0  0
   -5.6569    0.3349   -0.9617 C   0  0  0  0  0  0  0  0  0  0  0  0
   -6.6961    0.7120   -0.1765 C   0  0  0  0  0  0  0  0  0  0  0  0
   -7.9547    1.3899   -0.5977 C   0  0  0  0  0  0  0  0  0  0  0  0
   -6.4312    0.3829    1.0895 N   0  0  0  0  0  0  0  0  0  0  0  0
   -5.2538   -0.1851    1.0867 N   0  0  0  0  0  0  0  0  0  0  0  0
   -2.0457    0.5783    0.7393 C   0  0  0  0  0  0  0  0  0  0  0  0
   -2.9783    1.2745    1.1741 O   0  0  0  0  0  0  0  0  0  0  0  0
   -0.7299    0.9473    1.1170 N   0  0  0  0  0  0  0  0  0  0  0  0
    0.3408    0.2920    0.7176 C   0  0  0  0  0  0  0  0  0  0  0  0
    1.6478    0.7769    1.1624 C   0  0  0  0  0  0  0  0  0  0  0  0
    2.7515    0.1758    1.6585 C   0  0  0  0  0  0  0  0  0  0  0  0
    3.8105    0.9331    1.9752 C   0  0  0  0  0  0  0  0  0  0  0  0
    3.7014    2.2838    1.7725 C   0  0  0  0  0  0  0  0  0  0  0  0
    4.7156    3.3617    2.0391 C   0  0  0  0  0  0  0  0  0  0  0  0
    5.7348    2.7907    2.7681 O   0  0  0  0  0  0  0  0  0  0  0  0
    2.1277    2.4486    1.1468 S   0  0  0  0  0  0  0  0  0  0  0  0
    4.6042   -1.7884   -3.5776 H   0  0  0  0  0  0  0  0  0  0  0  0
    4.2218   -0.1176   -2.9510 H   0  0  0  0  0  0  0  0  0  0  0  0
    5.4541   -1.1511   -2.1452 H   0  0  0  0  0  0  0  0  0  0  0  0
    4.4270   -3.6420   -1.6722 H   0  0  0  0  0  0  0  0  0  0  0  0
    2.7426   -4.5995   -0.2213 H   0  0  0  0  0  0  0  0  0  0  0  0
    2.2689    0.0157   -1.7113 H   0  0  0  0  0  0  0  0  0  0  0  0
   -3.4631   -1.7600   -1.2091 H   0  0  0  0  0  0  0  0  0  0  0  0
   -5.5401    0.4469   -2.0225 H   0  0  0  0  0  0  0  0  0  0  0  0
   -7.8867    1.7919   -1.6243 H   0  0  0  0  0  0  0  0  0  0  0  0
   -8.1398    2.1823    0.1696 H   0  0  0  0  0  0  0  0  0  0  0  0
   -8.8364    0.7203   -0.5486 H   0  0  0  0  0  0  0  0  0  0  0  0
   -7.0300    0.5385    1.9205 H   0  0  0  0  0  0  0  0  0  0  0  0
    2.7653   -0.9288    1.8044 H   0  0  0  0  0  0  0  0  0  0  0  0
    4.7648    0.5403    2.3890 H   0  0  0  0  0  0  0  0  0  0  0  0
    4.2193    4.1896    2.5810 H   0  0  0  0  0  0  0  0  0  0  0  0
    5.0468    3.7607    1.0543 H   0  0  0  0  0  0  0  0  0  0  0  0
    6.2776    2.2010    2.2216 H   0  0  0  0  0  0  0  0  0  0  0  0
  1  2  1  0
  2  3  2  0
  3  4  1  0
  4  5  2  0
  5  6  1  0
  6  7  2  0
  6  8  1  0
  8  9  1  0
  9 10  2  0
  9 11  1  0
 11 12  2  0
 12 13  1  0
 13 14  1  0
 14 15  2  0
 15 16  1  0
 15 17  1  0
 17 18  1  0
 11 19  1  0
 19 20  2  0
 19 21  1  0
 21 22  2  0
 22 23  1  0
 23 24  2  0
 24 25  1  0
 25 26  2  0
 26 27  1  0
 27 28  1  0
 26 29  1  0
  7  2  1  0
 22  8  1  0
 29 23  1  0
 18 13  2  0
  1 30  1  0
  1 31  1  0
  1 32  1  0
  3 33  1  0
  4 34  1  0
  7 35  1  0
 12 36  1  0
 14 37  1  0
 16 38  1  0
 16 39  1  0
 16 40  1  0
 17 41  1  0
 24 42  1  0
 25 43  1  0
 27 44  1  0
 27 45  1  0
 28 46  1  0
M  END
$$$$
[H]OC(=O)C([H])([H])N([H])C([H])([H])c1c([H])c(-c2c([H])c([H])c3nc([N+](=O)[O-])n(C([H])([H])[H])c3c2[H])c(C(=O)N([H])c2c([H])c([H])c(Cl)c([H])c2[H])c2c([H])c([H])c([H])nc12
     RDKit          3D

 60 64  0  0  0  0  0  0  0  0999 V2000
    3.8293    1.0618    2.2557 C   0  0  0  0  0  0  0  0  0  0  0  0
    4.0858    0.4388    0.9781 N   0  0  0  0  0  0  0  0  0  0  0  0
    5.2657    0.2214    0.3762 C   0  0  0  0  0  0  0  0  0  0  0  0
    5.0584   -0.3931   -0.8191 N   0  0  0  0  0  0  0  0  0  0  0  0
    3.7319   -0.5670   -0.9759 C   0  0  0  0  0  0  0  0  0  0  0  0
    3.0047   -1.1357   -2.0061 C   0  0  0  0  0  0  0  0  0  0  0  0
    1.6432   -1.1703   -1.8807 C   0  0  0  0  0  0  0  0  0  0  0  0
    0.9843   -0.6700   -0.7887 C   0  0  0  0  0  0  0  0  0  0  0  0
    1.7347   -0.1109    0.2190 C   0  0  0  0  0  0  0  0  0  0  0  0
    3.1299   -0.0463    0.1480 C   0  0  0  0  0  0  0  0  0  0  0  0
   -0.4657   -0.7604   -0.6788 C   0  0  0  0  0  0  0  0  0  0  0  0
   -1.1400   -1.9417   -0.7541 C   0  0  0  0  0  0  0  0  0  0  0  0
   -2.4985   -2.0298   -0.6201 C   0  0  0  0  0  0  0  0  0  0  0  0
   -3.1796   -3.3622   -0.7089 C   0  0  0  0  0  0  0  0  0  0  0  0
   -2.2124   -4.4156   -0.9434 N   0  0  0  0  0  0  0  0  0  0  0  0
   -2.9032   -5.6919   -1.0172 C   0  0  0  0  0  0  0  0  0  0  0  0
   -1.9433   -6.7879   -1.2573 C   0  0  0  0  0  0  0  0  0  0  0  0
   -2.3590   -8.1001   -1.3650 O   0  0  0  0  0  0  0  0  0  0  0  0
   -0.7301   -6.5141   -1.3642 O   0  0  0  0  0  0  0  0  0  0  0  0
   -3.2081   -0.8741   -0.4024 C   0  0  0  0  0  0  0  0  0  0  0  0
   -4.5543   -1.0131   -0.3003 N   0  0  0  0  0  0  0  0  0  0  0  0
   -5.2769    0.0997   -0.1130 C   0  0  0  0  0  0  0  0  0  0  0  0
   -4.7344    1.3478   -0.0219 C   0  0  0  0  0  0  0  0  0  0  0  0
   -3.3610    1.4859   -0.1260 C   0  0  0  0  0  0  0  0  0  0  0  0
   -2.5816    0.3748   -0.3151 C   0  0  0  0  0  0  0  0  0  0  0  0
   -1.2008    0.4105   -0.4552 C   0  0  0  0  0  0  0  0  0  0  0  0
   -0.4933    1.6830   -0.4199 C   0  0  0  0  0  0  0  0  0  0  0  0
    0.2588    1.9933   -1.3623 O   0  0  0  0  0  0  0  0  0  0  0  0
   -0.6390    2.5608    0.6635 N   0  0  0  0  0  0  0  0  0  0  0  0
   -0.0135    3.8297    0.8059 C   0  0  0  0  0  0  0  0  0  0  0  0
    0.4504    4.6069   -0.2224 C   0  0  0  0  0  0  0  0  0  0  0  0
    1.0660    5.8007    0.0433 C   0  0  0  0  0  0  0  0  0  0  0  0
    1.2379    6.2565    1.3338 C   0  0  0  0  0  0  0  0  0  0  0  0
    2.0252    7.7833    1.6771 Cl  0  0  0  0  0  0  0  0  0  0  0  0
    0.7685    5.4705    2.3642 C   0  0  0  0  0  0  0  0  0  0  0  0
    0.1593    4.2889    2.1063 C   0  0  0  0  0  0  0  0  0  0  0  0
    6.5233    0.5826    0.9148 N   0  0  0  0  0  0  0  0  0  0  0  0
    6.6329    1.2020    2.1286 O   0  0  0  0  0  0  0  0  0  0  0  0
    7.5773    0.3388    0.2832 O   0  0  0  0  0  0  0  0  0  0  0  0
    4.2556    0.3714    3.0283 H   0  0  0  0  0  0  0  0  0  0  0  0
    2.7491    1.1307    2.4807 H   0  0  0  0  0  0  0  0  0  0  0  0
    4.3313    2.0323    2.3872 H   0  0  0  0  0  0  0  0  0  0  0  0
    3.5226   -1.5404   -2.8868 H   0  0  0  0  0  0  0  0  0  0  0  0
    1.0624   -1.6089   -2.6723 H   0  0  0  0  0  0  0  0  0  0  0  0
    1.3053    0.3036    1.1208 H   0  0  0  0  0  0  0  0  0  0  0  0
   -0.5576   -2.8385   -0.9274 H   0  0  0  0  0  0  0  0  0  0  0  0
   -3.8817   -3.3040   -1.5652 H   0  0  0  0  0  0  0  0  0  0  0  0
   -3.7544   -3.5107    0.2146 H   0  0  0  0  0  0  0  0  0  0  0  0
   -1.6991   -4.2538   -1.8362 H   0  0  0  0  0  0  0  0  0  0  0  0
   -3.4993   -5.8772   -0.0980 H   0  0  0  0  0  0  0  0  0  0  0  0
   -3.6415   -5.6466   -1.8473 H   0  0  0  0  0  0  0  0  0  0  0  0
   -2.4155   -8.6567   -0.5377 H   0  0  0  0  0  0  0  0  0  0  0  0
   -6.3621   -0.0335   -0.0323 H   0  0  0  0  0  0  0  0  0  0  0  0
   -5.3690    2.2210    0.1300 H   0  0  0  0  0  0  0  0  0  0  0  0
   -2.9135    2.4555   -0.0907 H   0  0  0  0  0  0  0  0  0  0  0  0
   -1.2672    2.2678    1.4826 H   0  0  0  0  0  0  0  0  0  0  0  0
    0.3080    4.2696   -1.2611 H   0  0  0  0  0  0  0  0  0  0  0  0
    1.4329    6.4125   -0.7850 H   0  0  0  0  0  0  0  0  0  0  0  0
    0.9207    5.8630    3.3794 H   0  0  0  0  0  0  0  0  0  0  0  0
   -0.1996    3.6892    2.9369 H   0  0  0  0  0  0  0  0  0  0  0  0
  1  2  1  0
  2  3  1  0
  3  4  2  0
  4  5  1  0
  5  6  2  0
  6  7  1  0
  7  8  2  0
  8  9  1  0
  9 10  2  0
  8 11  1  0
 11 12  2  0
 12 13  1  0
 13 14  1  0
 14 15  1  0
 15 16  1  0
 16 17  1  0
 17 18  1  0
 17 19  2  0
 13 20  2  0
 20 21  1  0
 21 22  2  0
 22 23  1  0
 23 24  2  0
 24 25  1  0
 25 26  2  0
 26 27  1  0
 27 28  2  0
 27 29  1  0
 29 30  1  0
 30 31  2  0
 31 32  1  0
 32 33  2  0
 33 34  1  0
 33 35  1  0
 35 36  2  0
  3 37  1  0
 37 38  1  0
 37 39  2  0
 10  2  1  0
 26 11  1  0
 36 30  1  0
 10  5  1  0
 25 20  1  0
  1 40  1  0
  1 41  1  0
  1 42  1  0
  6 43  1  0
  7 44  1  0
  9 45  1  0
 12 46  1  0
 14 47  1  0
 14 48  1  0
 15 49  1  0
 16 50  1  0
 16 51  1  0
 18 52  1  0
 22 53  1  0
 23 54  1  0
 24 55  1  0
 29 56  1  0
 31 57  1  0
 32 58  1  0
 35 59  1  0
 36 60  1  0
M  CHG  2  37   1  38  -1
M  END
$$$$
[H]c1c([H])c(OC(C([H])([H])[H])(C([H])([H])[H])C([H])([H])[H])c([H])c(C(=O)c2c([H])c([H])c(C([H])([H])[H])n2[H])c1[H]
     RDKit          3D

 38 39  0  0  0  0  0  0  0  0999 V2000
   -1.5083   -0.2776   -1.3616 C   0  0  0  0  0  0  0  0  0  0  0  0
   -1.6288    0.3354   -0.1346 C   0  0  0  0  0  0  0  0  0  0  0  0
   -2.7971    0.6039    0.5131 O   0  0  0  0  0  0  0  0  0  0  0  0
   -4.1003    0.3316    0.1129 C   0  0  0  0  0  0  0  0  0  0  0  0
   -4.4927    0.9850   -1.1875 C   0  0  0  0  0  0  0  0  0  0  0  0
   -4.4525   -1.1513    0.1401 C   0  0  0  0  0  0  0  0  0  0  0  0
   -5.0061    0.9748    1.1787 C   0  0  0  0  0  0  0  0  0  0  0  0
   -0.4418    0.7108    0.4926 C   0  0  0  0  0  0  0  0  0  0  0  0
    0.8019    0.4832   -0.0811 C   0  0  0  0  0  0  0  0  0  0  0  0
    1.9712    0.9229    0.6672 C   0  0  0  0  0  0  0  0  0  0  0  0
    1.8554    1.8955    1.4905 O   0  0  0  0  0  0  0  0  0  0  0  0
    3.2832    0.3344    0.5519 C   0  0  0  0  0  0  0  0  0  0  0  0
    3.6047   -0.9419    0.1377 C   0  0  0  0  0  0  0  0  0  0  0  0
    4.9834   -1.1224    0.1634 C   0  0  0  0  0  0  0  0  0  0  0  0
    5.4863    0.0760    0.6034 C   0  0  0  0  0  0  0  0  0  0  0  0
    6.9357    0.3453    0.7874 C   0  0  0  0  0  0  0  0  0  0  0  0
    4.4685    0.9285    0.8292 N   0  0  0  0  0  0  0  0  0  0  0  0
    0.8870   -0.1249   -1.2951 C   0  0  0  0  0  0  0  0  0  0  0  0
   -0.2701   -0.5174   -1.9590 C   0  0  0  0  0  0  0  0  0  0  0  0
   -2.4283   -0.5722   -1.8568 H   0  0  0  0  0  0  0  0  0  0  0  0
   -5.4494    1.5568   -1.1179 H   0  0  0  0  0  0  0  0  0  0  0  0
   -3.7298    1.6897   -1.5633 H   0  0  0  0  0  0  0  0  0  0  0  0
   -4.7094    0.1594   -1.9052 H   0  0  0  0  0  0  0  0  0  0  0  0
   -5.3340   -1.2830   -0.5551 H   0  0  0  0  0  0  0  0  0  0  0  0
   -4.8480   -1.4317    1.1464 H   0  0  0  0  0  0  0  0  0  0  0  0
   -3.6166   -1.7849   -0.1766 H   0  0  0  0  0  0  0  0  0  0  0  0
   -4.5576    0.8217    2.1947 H   0  0  0  0  0  0  0  0  0  0  0  0
   -5.1078    2.0527    0.9237 H   0  0  0  0  0  0  0  0  0  0  0  0
   -6.0168    0.5310    1.1001 H   0  0  0  0  0  0  0  0  0  0  0  0
   -0.4898    1.2031    1.4721 H   0  0  0  0  0  0  0  0  0  0  0  0
    2.9397   -1.7336   -0.1733 H   0  0  0  0  0  0  0  0  0  0  0  0
    5.5391   -2.0163   -0.1059 H   0  0  0  0  0  0  0  0  0  0  0  0
    7.5019   -0.6016    0.8958 H   0  0  0  0  0  0  0  0  0  0  0  0
    7.3683    0.8484   -0.1072 H   0  0  0  0  0  0  0  0  0  0  0  0
    7.1328    0.9731    1.6956 H   0  0  0  0  0  0  0  0  0  0  0  0
    4.6171    1.9074    1.1720 H   0  0  0  0  0  0  0  0  0  0  0  0
    1.8479   -0.3043   -1.7529 H   0  0  0  0  0  0  0  0  0  0  0  0
   -0.2388   -1.0090   -2.9356 H   0  0  0  0  0  0  0  0  0  0  0  0
  1  2  2  0
  2  3  1  0
  3  4  1  0
  4  5  1  0
  4  6  1  0
  4  7  1  0
  2  8  1  0
  8  9  2  0
  9 10  1  0
 10 11  2  0
 10 12  1  0
 12 13  2  0
 13 14  1  0
 14 15  2  0
 15 16  1  0
 15 17  1  0
  9 18  1  0
 18 19  2  0
 19  1  1  0
 17 12  1  0
  1 20  1  0
  5 21  1  0
  5 22  1  0
  5 23  1  0
  6 24  1  0
  6 25  1  0
  6 26  1  0
  7 27  1  0
  7 28  1  0
  7 29  1  0
  8 30  1  0
 13 31  1  0
 14 32  1  0
 16 33  1  0
 16 34  1  0
 16 35  1  0
 17 36  1  0
 18 37  1  0
 19 38  1  0
M  END
$$$$
[H]c1c([H])c(S(=O)(=O)N2C(F)(F)OC([H])(C([H])([H])[H])C2([H])[H])c([H])c([H])c1F
     RDKit          3D

 28 29  0  0  0  0  0  0  0  0999 V2000
    2.5258    0.6460   -0.5822 C   0  0  0  0  0  0  0  0  0  0  0  0
    1.8344    0.1134    0.5017 C   0  0  0  0  0  0  0  0  0  0  0  0
    0.3351    0.8055    1.0773 S   0  0  0  0  0  0  0  0  0  0  0  0
    0.2624    0.6299    2.5596 O   0  0  0  0  0  0  0  0  0  0  0  0
   -1.0087    0.0658    0.2817 N   0  0  0  0  0  0  0  0  0  0  0  0
   -0.9830    0.2760   -1.1344 C   0  0  0  0  0  0  0  0  0  0  0  0
   -0.7645    1.5992   -1.4112 F   0  0  0  0  0  0  0  0  0  0  0  0
   -0.0916   -0.5525   -1.7971 F   0  0  0  0  0  0  0  0  0  0  0  0
   -2.3016   -0.0521   -1.5185 O   0  0  0  0  0  0  0  0  0  0  0  0
   -3.1263    0.4331   -0.5277 C   0  0  0  0  0  0  0  0  0  0  0  0
   -4.1889   -0.6086   -0.2240 C   0  0  0  0  0  0  0  0  0  0  0  0
   -2.2521    0.6594    0.6906 C   0  0  0  0  0  0  0  0  0  0  0  0
    0.3335    2.3030    0.8169 O   0  0  0  0  0  0  0  0  0  0  0  0
    2.3410   -1.0113    1.1629 C   0  0  0  0  0  0  0  0  0  0  0  0
    3.5239   -1.5364    0.6881 C   0  0  0  0  0  0  0  0  0  0  0  0
    4.2095   -1.0054   -0.3895 C   0  0  0  0  0  0  0  0  0  0  0  0
    5.3625   -1.6092   -0.7638 F   0  0  0  0  0  0  0  0  0  0  0  0
    3.7077    0.1036   -1.0394 C   0  0  0  0  0  0  0  0  0  0  0  0
    2.1451    1.5088   -1.0956 H   0  0  0  0  0  0  0  0  0  0  0  0
   -3.6404    1.3851   -0.8056 H   0  0  0  0  0  0  0  0  0  0  0  0
   -3.8194   -1.2205    0.6496 H   0  0  0  0  0  0  0  0  0  0  0  0
   -4.3248   -1.3225   -1.0698 H   0  0  0  0  0  0  0  0  0  0  0  0
   -5.1636   -0.1675    0.0248 H   0  0  0  0  0  0  0  0  0  0  0  0
   -2.7150    0.1322    1.5565 H   0  0  0  0  0  0  0  0  0  0  0  0
   -2.1583    1.7517    0.8791 H   0  0  0  0  0  0  0  0  0  0  0  0
    1.8027   -1.4282    2.0088 H   0  0  0  0  0  0  0  0  0  0  0  0
    3.9111   -2.4214    1.2178 H   0  0  0  0  0  0  0  0  0  0  0  0
    4.2433    0.5228   -1.8855 H   0  0  0  0  0  0  0  0  0  0  0  0
  1  2  2  0
  2  3  1  0
  3  4  2  0
  3  5  1  0
  5  6  1  0
  6  7  1  0
  6  8  1  0
  6  9  1  0
  9 10  1  0
 10 11  1  0
 10 12  1  0
  3 13  2  0
  2 14  1  0
 14 15  2  0
 15 16  1  0
 16 17  1  0
 16 18  2  0
 18  1  1  0
 12  5  1  0
  1 19  1  0
 10 20  1  0
 11 21  1  0
 11 22  1  0
 11 23  1  0
 12 24  1  0
 12 25  1  0
 14 26  1  0
 15 27  1  0
 18 28  1  0
M  END
$$$$
[H]C1=C2C([H])([H])N3C([H])([H])C([H])([H])C([H])([H])C([H])([H])C3([H])C([H])([H])C([H])([H])C2([H])N(C([H])([H])C([H])([H])c2c(C([H])([H])[H])oc3c([H])c([H])c([H])c([H])c23)C([H])([H])C1([H])[H]
     RDKit          3D

 59 63  0  0  0  0  0  0  0  0999 V2000
    4.5239   -2.9078   -0.3226 C   0  0  0  0  0  0  0  0  0  0  0  0
    4.5767   -1.4522   -0.0080 C   0  0  0  0  0  0  0  0  0  0  0  0
    5.4001   -0.5738   -0.5036 O   0  0  0  0  0  0  0  0  0  0  0  0
    5.1943    0.6108   -0.0316 C   0  0  0  0  0  0  0  0  0  0  0  0
    5.8313    1.8361   -0.2890 C   0  0  0  0  0  0  0  0  0  0  0  0
    5.3532    2.9436    0.3899 C   0  0  0  0  0  0  0  0  0  0  0  0
    4.2974    2.8814    1.2903 C   0  0  0  0  0  0  0  0  0  0  0  0
    3.7044    1.6621    1.5123 C   0  0  0  0  0  0  0  0  0  0  0  0
    4.1577    0.5417    0.8511 C   0  0  0  0  0  0  0  0  0  0  0  0
    3.7469   -0.7995    0.8730 C   0  0  0  0  0  0  0  0  0  0  0  0
    2.5845   -1.2598    1.6256 C   0  0  0  0  0  0  0  0  0  0  0  0
    1.2239   -0.9408    1.1370 C   0  0  0  0  0  0  0  0  0  0  0  0
    0.7584   -1.3042   -0.1259 N   0  0  0  0  0  0  0  0  0  0  0  0
    1.2786   -0.6161   -1.2546 C   0  0  0  0  0  0  0  0  0  0  0  0
    0.7731    0.8575   -1.2489 C   0  0  0  0  0  0  0  0  0  0  0  0
   -0.6403    0.6996   -1.7010 C   0  0  0  0  0  0  0  0  0  0  0  0
   -1.2675   -0.3856   -1.2027 C   0  0  0  0  0  0  0  0  0  0  0  0
   -2.6774   -0.4368   -1.7344 C   0  0  0  0  0  0  0  0  0  0  0  0
   -3.6636    0.1374   -0.9275 N   0  0  0  0  0  0  0  0  0  0  0  0
   -4.0837    1.4727   -1.1895 C   0  0  0  0  0  0  0  0  0  0  0  0
   -5.5715    1.5278   -0.7857 C   0  0  0  0  0  0  0  0  0  0  0  0
   -5.7071    1.1678    0.6599 C   0  0  0  0  0  0  0  0  0  0  0  0
   -4.9510   -0.1014    1.0228 C   0  0  0  0  0  0  0  0  0  0  0  0
   -3.5332   -0.0758    0.4796 C   0  0  0  0  0  0  0  0  0  0  0  0
   -2.8870   -1.4130    0.7798 C   0  0  0  0  0  0  0  0  0  0  0  0
   -1.4043   -1.3128    1.0339 C   0  0  0  0  0  0  0  0  0  0  0  0
   -0.6800   -1.3599   -0.2723 C   0  0  0  0  0  0  0  0  0  0  0  0
    5.0979   -3.1399   -1.2422 H   0  0  0  0  0  0  0  0  0  0  0  0
    3.4690   -3.1655   -0.4968 H   0  0  0  0  0  0  0  0  0  0  0  0
    4.9870   -3.4792    0.4944 H   0  0  0  0  0  0  0  0  0  0  0  0
    6.6542    1.9185   -0.9807 H   0  0  0  0  0  0  0  0  0  0  0  0
    5.8221    3.8990    0.2028 H   0  0  0  0  0  0  0  0  0  0  0  0
    3.9386    3.7386    1.7996 H   0  0  0  0  0  0  0  0  0  0  0  0
    2.8760    1.5312    2.1976 H   0  0  0  0  0  0  0  0  0  0  0  0
    2.7165   -0.8777    2.6900 H   0  0  0  0  0  0  0  0  0  0  0  0
    2.7179   -2.3793    1.7831 H   0  0  0  0  0  0  0  0  0  0  0  0
    0.5421   -1.3727    1.9580 H   0  0  0  0  0  0  0  0  0  0  0  0
    1.0657    0.1711    1.3339 H   0  0  0  0  0  0  0  0  0  0  0  0
    0.7393   -1.0692   -2.1509 H   0  0  0  0  0  0  0  0  0  0  0  0
    2.3099   -0.6657   -1.5057 H   0  0  0  0  0  0  0  0  0  0  0  0
    1.4170    1.3843   -1.9768 H   0  0  0  0  0  0  0  0  0  0  0  0
    0.8728    1.3240   -0.2774 H   0  0  0  0  0  0  0  0  0  0  0  0
   -1.1577    1.3590   -2.3628 H   0  0  0  0  0  0  0  0  0  0  0  0
   -2.7036    0.0900   -2.7381 H   0  0  0  0  0  0  0  0  0  0  0  0
   -2.8970   -1.5020   -1.9649 H   0  0  0  0  0  0  0  0  0  0  0  0
   -3.5957    2.2087   -0.5068 H   0  0  0  0  0  0  0  0  0  0  0  0
   -3.9907    1.7822   -2.2504 H   0  0  0  0  0  0  0  0  0  0  0  0
   -5.9393    2.5398   -0.9592 H   0  0  0  0  0  0  0  0  0  0  0  0
   -6.0784    0.8043   -1.4630 H   0  0  0  0  0  0  0  0  0  0  0  0
   -5.2933    1.9916    1.2611 H   0  0  0  0  0  0  0  0  0  0  0  0
   -6.7722    0.9592    0.9155 H   0  0  0  0  0  0  0  0  0  0  0  0
   -5.4770   -0.9315    0.4649 H   0  0  0  0  0  0  0  0  0  0  0  0
   -4.9906   -0.2492    2.1066 H   0  0  0  0  0  0  0  0  0  0  0  0
   -2.9934    0.7445    0.9493 H   0  0  0  0  0  0  0  0  0  0  0  0
   -3.3909   -1.8182    1.7056 H   0  0  0  0  0  0  0  0  0  0  0  0
   -3.0551   -2.1725    0.0054 H   0  0  0  0  0  0  0  0  0  0  0  0
   -1.1837   -0.3781    1.5766 H   0  0  0  0  0  0  0  0  0  0  0  0
   -1.1798   -2.2375    1.6617 H   0  0  0  0  0  0  0  0  0  0  0  0
   -0.8654   -2.4067   -0.6764 H   0  0  0  0  0  0  0  0  0  0  0  0
  1  2  1  0
  2  3  1  0
  3  4  1  0
  4  5  2  0
  5  6  1  0
  6  7  2  0
  7  8  1  0
  8  9  2  0
  9 10  1  0
 10 11  1  0
 11 12  1  0
 12 13  1  0
 13 14  1  0
 14 15  1  0
 15 16  1  0
 16 17  2  0
 17 18  1  0
 18 19  1  0
 19 20  1  0
 20 21  1  0
 21 22  1  0
 22 23  1  0
 23 24  1  0
 24 25  1  0
 25 26  1  0
 26 27  1  0
 10  2  2  0
 27 13  1  0
  9  4  1  0
 27 17  1  0
 24 19  1  0
  1 28  1  0
  1 29  1  0
  1 30  1  0
  5 31  1  0
  6 32  1  0
  7 33  1  0
  8 34  1  0
 11 35  1  0
 11 36  1  0
 12 37  1  0
 12 38  1  0
 14 39  1  0
 14 40  1  0
 15 41  1  0
 15 42  1  0
 16 43  1  0
 18 44  1  0
 18 45  1  0
 20 46  1  0
 20 47  1  0
 21 48  1  0
 21 49  1  0
 22 50  1  0
 22 51  1  0
 23 52  1  0
 23 53  1  0
 24 54  1  0
 25 55  1  0
 25 56  1  0
 26 57  1  0
 26 58  1  0
 27 59  1  0
M  END
$$$$
[H]c1nc(N([H])c2c([H])c([H])c(N3C([H])([H])C([H])([H])C([H])(N4C([H])([H])C([H])([H])N(C([H])([H])[H])C([H])([H])C4([H])[H])C([H])([H])C3([H])[H])c([H])c2OC([H])([H])[H])nc(N([H])c2c([H])c([H])c([H])c([H])c2S(=O)(=O)C([H])(C([H])([H])[H])C([H])([H])[H])c1Cl
     RDKit          3D

 82 86  0  0  0  0  0  0  0  0999 V2000
   -0.1870    3.7228   -1.2569 C   0  0  0  0  0  0  0  0  0  0  0  0
    0.4390    2.5297   -0.8437 O   0  0  0  0  0  0  0  0  0  0  0  0
   -0.3483    1.4775   -0.4024 C   0  0  0  0  0  0  0  0  0  0  0  0
   -1.7220    1.6350   -0.3827 C   0  0  0  0  0  0  0  0  0  0  0  0
   -2.5624    0.6308    0.0436 C   0  0  0  0  0  0  0  0  0  0  0  0
   -1.9599   -0.5357    0.4478 C   0  0  0  0  0  0  0  0  0  0  0  0
   -0.5748   -0.7280    0.4408 C   0  0  0  0  0  0  0  0  0  0  0  0
    0.2576    0.2764    0.0150 C   0  0  0  0  0  0  0  0  0  0  0  0
    1.6540    0.2011   -0.0367 N   0  0  0  0  0  0  0  0  0  0  0  0
    2.4984   -0.8842    0.3177 C   0  0  0  0  0  0  0  0  0  0  0  0
    2.1033   -2.0726    0.7812 N   0  0  0  0  0  0  0  0  0  0  0  0
    2.9559   -3.0558    1.0957 C   0  0  0  0  0  0  0  0  0  0  0  0
    4.3092   -2.8632    0.9451 C   0  0  0  0  0  0  0  0  0  0  0  0
    5.4455   -4.1449    1.3534 Cl  0  0  0  0  0  0  0  0  0  0  0  0
    4.7527   -1.6166    0.4572 C   0  0  0  0  0  0  0  0  0  0  0  0
    6.1380   -1.4466    0.3110 N   0  0  0  0  0  0  0  0  0  0  0  0
    6.9009   -0.3576   -0.1368 C   0  0  0  0  0  0  0  0  0  0  0  0
    6.2766    0.8084   -0.5266 C   0  0  0  0  0  0  0  0  0  0  0  0
    7.0240    1.9039   -0.9778 C   0  0  0  0  0  0  0  0  0  0  0  0
    8.3820    1.8034   -1.0274 C   0  0  0  0  0  0  0  0  0  0  0  0
    9.0024    0.6381   -0.6374 C   0  0  0  0  0  0  0  0  0  0  0  0
    8.2961   -0.4485   -0.1920 C   0  0  0  0  0  0  0  0  0  0  0  0
    9.0842   -1.8926    0.2913 S   0  0  0  0  0  0  0  0  0  0  0  0
    8.6633   -3.0312   -0.6035 O   0  0  0  0  0  0  0  0  0  0  0  0
    8.8235   -2.3045    1.7132 O   0  0  0  0  0  0  0  0  0  0  0  0
   10.8572   -1.7881    0.1370 C   0  0  0  0  0  0  0  0  0  0  0  0
   11.2609   -1.6791   -1.2975 C   0  0  0  0  0  0  0  0  0  0  0  0
   11.4760   -0.7869    1.0544 C   0  0  0  0  0  0  0  0  0  0  0  0
    3.8248   -0.7008    0.1721 N   0  0  0  0  0  0  0  0  0  0  0  0
   -3.9818    0.8060    0.0512 N   0  0  0  0  0  0  0  0  0  0  0  0
   -4.5241    1.9609   -0.5784 C   0  0  0  0  0  0  0  0  0  0  0  0
   -6.0011    1.9283   -0.8544 C   0  0  0  0  0  0  0  0  0  0  0  0
   -6.8245    1.3726    0.2584 C   0  0  0  0  0  0  0  0  0  0  0  0
   -6.0036    0.6088    1.2781 C   0  0  0  0  0  0  0  0  0  0  0  0
   -4.8657   -0.1463    0.6796 C   0  0  0  0  0  0  0  0  0  0  0  0
   -7.9560    0.6086   -0.0875 N   0  0  0  0  0  0  0  0  0  0  0  0
   -7.7905   -0.5856   -0.8057 C   0  0  0  0  0  0  0  0  0  0  0  0
   -9.1362   -1.0235   -1.3907 C   0  0  0  0  0  0  0  0  0  0  0  0
  -10.1390   -0.8718   -0.3544 N   0  0  0  0  0  0  0  0  0  0  0  0
  -10.0361   -1.8235    0.7053 C   0  0  0  0  0  0  0  0  0  0  0  0
  -10.3349    0.4834    0.0484 C   0  0  0  0  0  0  0  0  0  0  0  0
   -9.1475    1.3193   -0.4248 C   0  0  0  0  0  0  0  0  0  0  0  0
    0.5375    4.4499   -1.6799 H   0  0  0  0  0  0  0  0  0  0  0  0
   -0.9481    3.5330   -2.0530 H   0  0  0  0  0  0  0  0  0  0  0  0
   -0.6880    4.2523   -0.4156 H   0  0  0  0  0  0  0  0  0  0  0  0
   -2.1476    2.5764   -0.7105 H   0  0  0  0  0  0  0  0  0  0  0  0
   -2.6020   -1.3517    0.7883 H   0  0  0  0  0  0  0  0  0  0  0  0
   -0.2121   -1.6859    0.7807 H   0  0  0  0  0  0  0  0  0  0  0  0
    2.1500    1.0935   -0.3956 H   0  0  0  0  0  0  0  0  0  0  0  0
    2.6174   -4.0222    1.4737 H   0  0  0  0  0  0  0  0  0  0  0  0
    6.7215   -2.3022    0.5911 H   0  0  0  0  0  0  0  0  0  0  0  0
    5.2202    0.9989   -0.5296 H   0  0  0  0  0  0  0  0  0  0  0  0
    6.5603    2.8305   -1.2896 H   0  0  0  0  0  0  0  0  0  0  0  0
    9.0220    2.6252   -1.3712 H   0  0  0  0  0  0  0  0  0  0  0  0
   10.0936    0.6299   -0.7052 H   0  0  0  0  0  0  0  0  0  0  0  0
   11.2252   -2.8031    0.4806 H   0  0  0  0  0  0  0  0  0  0  0  0
   11.9033   -0.7785   -1.4926 H   0  0  0  0  0  0  0  0  0  0  0  0
   10.3307   -1.5514   -1.9199 H   0  0  0  0  0  0  0  0  0  0  0  0
   11.7765   -2.5763   -1.6995 H   0  0  0  0  0  0  0  0  0  0  0  0
   12.0225   -1.2557    1.8769 H   0  0  0  0  0  0  0  0  0  0  0  0
   12.1781   -0.1622    0.4319 H   0  0  0  0  0  0  0  0  0  0  0  0
   10.7434   -0.0899    1.5079 H   0  0  0  0  0  0  0  0  0  0  0  0
   -4.2803    2.8410    0.0525 H   0  0  0  0  0  0  0  0  0  0  0  0
   -3.9354    2.1199   -1.5269 H   0  0  0  0  0  0  0  0  0  0  0  0
   -6.3084    2.9635   -1.1164 H   0  0  0  0  0  0  0  0  0  0  0  0
   -6.1470    1.3325   -1.7818 H   0  0  0  0  0  0  0  0  0  0  0  0
   -7.2139    2.2642    0.8421 H   0  0  0  0  0  0  0  0  0  0  0  0
   -6.6586   -0.1075    1.8153 H   0  0  0  0  0  0  0  0  0  0  0  0
   -5.5929    1.2907    2.0626 H   0  0  0  0  0  0  0  0  0  0  0  0
   -5.1731   -0.8869   -0.0780 H   0  0  0  0  0  0  0  0  0  0  0  0
   -4.3121   -0.6097    1.5260 H   0  0  0  0  0  0  0  0  0  0  0  0
   -7.5080   -1.4012   -0.0997 H   0  0  0  0  0  0  0  0  0  0  0  0
   -7.0082   -0.5774   -1.5870 H   0  0  0  0  0  0  0  0  0  0  0  0
   -9.4445   -0.3742   -2.2343 H   0  0  0  0  0  0  0  0  0  0  0  0
   -9.0261   -2.0597   -1.7202 H   0  0  0  0  0  0  0  0  0  0  0  0
   -9.1822   -2.5377    0.5321 H   0  0  0  0  0  0  0  0  0  0  0  0
   -9.9814   -1.3564    1.7041 H   0  0  0  0  0  0  0  0  0  0  0  0
  -10.9456   -2.4645    0.6802 H   0  0  0  0  0  0  0  0  0  0  0  0
  -11.2261    0.8855   -0.4545 H   0  0  0  0  0  0  0  0  0  0  0  0
  -10.4517    0.5517    1.1515 H   0  0  0  0  0  0  0  0  0  0  0  0
   -9.2778    1.5186   -1.4917 H   0  0  0  0  0  0  0  0  0  0  0  0
   -9.1611    2.2698    0.1783 H   0  0  0  0  0  0  0  0  0  0  0  0
  1  2  1  0
  2  3  1  0
  3  4  2  0
  4  5  1  0
  5  6  2  0
  6  7  1  0
  7  8  2  0
  8  9  1  0
  9 10  1  0
 10 11  2  0
 11 12  1  0
 12 13  2  0
 13 14  1  0
 13 15  1  0
 15 16  1  0
 16 17  1  0
 17 18  2  0
 18 19  1  0
 19 20  2  0
 20 21  1  0
 21 22  2  0
 22 23  1  0
 23 24  2  0
 23 25  2  0
 23 26  1  0
 26 27  1  0
 26 28  1  0
 15 29  2  0
  5 30  1  0
 30 31  1  0
 31 32  1  0
 32 33  1  0
 33 34  1  0
 34 35  1  0
 33 36  1  0
 36 37  1  0
 37 38  1  0
 38 39  1  0
 39 40  1  0
 39 41  1  0
 41 42  1  0
  8  3  1  0
 29 10  1  0
 35 30  1  0
 42 36  1  0
 22 17  1  0
  1 43  1  0
  1 44  1  0
  1 45  1  0
  4 46  1  0
  6 47  1  0
  7 48  1  0
  9 49  1  0
 12 50  1  0
 16 51  1  0
 18 52  1  0
 19 53  1  0
 20 54  1  0
 21 55  1  0
 26 56  1  0
 27 57  1  0
 27 58  1  0
 27 59  1  0
 28 60  1  0
 28 61  1  0
 28 62  1  0
 31 63  1  0
 31 64  1  0
 32 65  1  0
 32 66  1  0
 33 67  1  0
 34 68  1  0
 34 69  1  0
 35 70  1  0
 35 71  1  0
 37 72  1  0
 37 73  1  0
 38 74  1  0
 38 75  1  0
 40 76  1  0
 40 77  1  0
 40 78  1  0
 41 79  1  0
 41 80  1  0
 42 81  1  0
 42 82  1  0
M  END
$$$$
[H]c1c([H])c(-c2c(C(=O)N([H])[H])c([H])n3nc(N([H])C([H])([H])C(=O)N4C([H])([H])C([H])([H])C([H])(N(C([H])([H])[H])C([H])([H])[H])C([H])([H])C4([H])[H])nc3c2[H])c(F)c([H])c1F
     RDKit          3D

 58 61  0  0  0  0  0  0  0  0999 V2000
   -8.2441    1.0956    1.1953 C   0  0  0  0  0  0  0  0  0  0  0  0
   -7.3820    1.4575    0.1408 N   0  0  0  0  0  0  0  0  0  0  0  0
   -7.4365    2.7738   -0.3682 C   0  0  0  0  0  0  0  0  0  0  0  0
   -6.1453    0.7928    0.0050 C   0  0  0  0  0  0  0  0  0  0  0  0
   -5.2074    0.9556    1.1802 C   0  0  0  0  0  0  0  0  0  0  0  0
   -3.8314    0.4786    0.7340 C   0  0  0  0  0  0  0  0  0  0  0  0
   -3.9476   -0.8965    0.3293 N   0  0  0  0  0  0  0  0  0  0  0  0
   -5.2649   -1.5143    0.4349 C   0  0  0  0  0  0  0  0  0  0  0  0
   -6.3034   -0.6742   -0.2846 C   0  0  0  0  0  0  0  0  0  0  0  0
   -2.8255   -1.6062   -0.1246 C   0  0  0  0  0  0  0  0  0  0  0  0
   -2.9529   -2.7763   -0.5282 O   0  0  0  0  0  0  0  0  0  0  0  0
   -1.4899   -0.9758   -0.1223 C   0  0  0  0  0  0  0  0  0  0  0  0
   -0.4970   -1.8917   -0.6448 N   0  0  0  0  0  0  0  0  0  0  0  0
    0.9049   -1.6143   -0.6105 C   0  0  0  0  0  0  0  0  0  0  0  0
    1.5400   -0.5494   -0.1051 N   0  0  0  0  0  0  0  0  0  0  0  0
    2.8848   -0.6883   -0.3004 C   0  0  0  0  0  0  0  0  0  0  0  0
    3.9994    0.0648   -0.0106 C   0  0  0  0  0  0  0  0  0  0  0  0
    5.2851   -0.3408   -0.3507 C   0  0  0  0  0  0  0  0  0  0  0  0
    5.4611   -1.5355   -1.0004 C   0  0  0  0  0  0  0  0  0  0  0  0
    4.2932   -2.2604   -1.2692 C   0  0  0  0  0  0  0  0  0  0  0  0
    3.0603   -1.8611   -0.9367 N   0  0  0  0  0  0  0  0  0  0  0  0
    1.8597   -2.4103   -1.1175 N   0  0  0  0  0  0  0  0  0  0  0  0
    6.7288   -2.0996   -1.4084 C   0  0  0  0  0  0  0  0  0  0  0  0
    7.9731   -1.5257   -1.2211 N   0  0  0  0  0  0  0  0  0  0  0  0
    6.7092   -3.2347   -2.0001 O   0  0  0  0  0  0  0  0  0  0  0  0
    6.4102    0.5372   -0.0567 C   0  0  0  0  0  0  0  0  0  0  0  0
    6.8118    1.4625   -1.0325 C   0  0  0  0  0  0  0  0  0  0  0  0
    7.8337    2.3452   -0.8174 C   0  0  0  0  0  0  0  0  0  0  0  0
    8.4970    2.3247    0.4134 C   0  0  0  0  0  0  0  0  0  0  0  0
    9.5007    3.2195    0.5862 F   0  0  0  0  0  0  0  0  0  0  0  0
    8.1255    1.4328    1.3829 C   0  0  0  0  0  0  0  0  0  0  0  0
    7.0744    0.5419    1.1274 C   0  0  0  0  0  0  0  0  0  0  0  0
    6.7361   -0.3348    2.1014 F   0  0  0  0  0  0  0  0  0  0  0  0
   -8.9028    0.2641    0.8177 H   0  0  0  0  0  0  0  0  0  0  0  0
   -7.7388    0.7582    2.1290 H   0  0  0  0  0  0  0  0  0  0  0  0
   -8.9221    1.9223    1.5042 H   0  0  0  0  0  0  0  0  0  0  0  0
   -6.4591    3.0226   -0.8128 H   0  0  0  0  0  0  0  0  0  0  0  0
   -7.8367    3.5544    0.2884 H   0  0  0  0  0  0  0  0  0  0  0  0
   -8.1431    2.7530   -1.2556 H   0  0  0  0  0  0  0  0  0  0  0  0
   -5.5969    1.2748   -0.8633 H   0  0  0  0  0  0  0  0  0  0  0  0
   -5.0836    2.0461    1.3999 H   0  0  0  0  0  0  0  0  0  0  0  0
   -5.4820    0.3753    2.0668 H   0  0  0  0  0  0  0  0  0  0  0  0
   -3.0689    0.6560    1.5305 H   0  0  0  0  0  0  0  0  0  0  0  0
   -3.5468    1.0732   -0.1860 H   0  0  0  0  0  0  0  0  0  0  0  0
   -5.2245   -2.4986   -0.0684 H   0  0  0  0  0  0  0  0  0  0  0  0
   -5.5835   -1.6145    1.4885 H   0  0  0  0  0  0  0  0  0  0  0  0
   -7.2870   -1.0996   -0.0673 H   0  0  0  0  0  0  0  0  0  0  0  0
   -6.1030   -0.8540   -1.3863 H   0  0  0  0  0  0  0  0  0  0  0  0
   -1.5034   -0.0556   -0.7510 H   0  0  0  0  0  0  0  0  0  0  0  0
   -1.2395   -0.6862    0.9111 H   0  0  0  0  0  0  0  0  0  0  0  0
   -0.8271   -2.7880   -1.0627 H   0  0  0  0  0  0  0  0  0  0  0  0
    3.8909    1.0172    0.5041 H   0  0  0  0  0  0  0  0  0  0  0  0
    4.4003   -3.2058   -1.7774 H   0  0  0  0  0  0  0  0  0  0  0  0
    8.5601   -1.7082   -0.3712 H   0  0  0  0  0  0  0  0  0  0  0  0
    8.4390   -0.8735   -1.9297 H   0  0  0  0  0  0  0  0  0  0  0  0
    6.2968    1.4771   -1.9816 H   0  0  0  0  0  0  0  0  0  0  0  0
    8.1489    3.0750   -1.5785 H   0  0  0  0  0  0  0  0  0  0  0  0
    8.6520    1.4220    2.3438 H   0  0  0  0  0  0  0  0  0  0  0  0
  1  2  1  0
  2  3  1  0
  2  4  1  0
  4  5  1  0
  5  6  1  0
  6  7  1  0
  7  8  1  0
  8  9  1  0
  7 10  1  0
 10 11  2  0
 10 12  1  0
 12 13  1  0
 13 14  1  0
 14 15  1  0
 15 16  2  0
 16 17  1  0
 17 18  2  0
 18 19  1  0
 19 20  2  0
 20 21  1  0
 21 22  1  0
 19 23  1  0
 23 24  1  0
 23 25  2  0
 18 26  1  0
 26 27  2  0
 27 28  1  0
 28 29  2  0
 29 30  1  0
 29 31  1  0
 31 32  2  0
 32 33  1  0
  9  4  1  0
 22 14  2  0
 32 26  1  0
 21 16  1  0
  1 34  1  0
  1 35  1  0
  1 36  1  0
  3 37  1  0
  3 38  1  0
  3 39  1  0
  4 40  1  0
  5 41  1  0
  5 42  1  0
  6 43  1  0
  6 44  1  0
  8 45  1  0
  8 46  1  0
  9 47  1  0
  9 48  1  0
 12 49  1  0
 12 50  1  0
 13 51  1  0
 17 52  1  0
 20 53  1  0
 24 54  1  0
 24 55  1  0
 27 56  1  0
 28 57  1  0
 31 58  1  0
M  END
$$$$
[H]c1nc(N2C([H])([H])C([H])([H])N(C(=O)N([H])c3c([H])c([H])c(S(=O)(=O)N([H])[H])c([H])c3[H])C([H])([H])C2([H])[H])c2c([H])c([H])n([H])c2n1
     RDKit          3D

 47 50  0  0  0  0  0  0  0  0999 V2000
   -8.6710   -0.5188   -0.9756 N   0  0  0  0  0  0  0  0  0  0  0  0
   -7.8021   -0.5690    0.5316 S   0  0  0  0  0  0  0  0  0  0  0  0
   -8.2862    0.5687    1.3863 O   0  0  0  0  0  0  0  0  0  0  0  0
   -8.1431   -1.8372    1.2511 O   0  0  0  0  0  0  0  0  0  0  0  0
   -6.0806   -0.4048    0.2707 C   0  0  0  0  0  0  0  0  0  0  0  0
   -5.4428    0.8079    0.2523 C   0  0  0  0  0  0  0  0  0  0  0  0
   -4.0650    0.9547    0.0446 C   0  0  0  0  0  0  0  0  0  0  0  0
   -3.3113   -0.1646   -0.1501 C   0  0  0  0  0  0  0  0  0  0  0  0
   -1.9178   -0.1056   -0.3430 N   0  0  0  0  0  0  0  0  0  0  0  0
   -1.0361    0.9554   -0.0734 C   0  0  0  0  0  0  0  0  0  0  0  0
   -1.4185    2.0275    0.4029 O   0  0  0  0  0  0  0  0  0  0  0  0
    0.3469    0.8042   -0.3531 N   0  0  0  0  0  0  0  0  0  0  0  0
    1.2743    1.8916   -0.0730 C   0  0  0  0  0  0  0  0  0  0  0  0
    2.5113    1.2957    0.5764 C   0  0  0  0  0  0  0  0  0  0  0  0
    2.9999    0.1675   -0.1378 N   0  0  0  0  0  0  0  0  0  0  0  0
    2.2660   -0.2838   -1.2970 C   0  0  0  0  0  0  0  0  0  0  0  0
    0.8149   -0.4280   -0.9124 C   0  0  0  0  0  0  0  0  0  0  0  0
    4.1722   -0.5018    0.2623 C   0  0  0  0  0  0  0  0  0  0  0  0
    4.1328   -1.7722    0.7679 N   0  0  0  0  0  0  0  0  0  0  0  0
    5.1897   -2.4530    1.1769 C   0  0  0  0  0  0  0  0  0  0  0  0
    6.3853   -1.8795    1.0996 N   0  0  0  0  0  0  0  0  0  0  0  0
    6.5043   -0.6154    0.6063 C   0  0  0  0  0  0  0  0  0  0  0  0
    7.5761    0.1693    0.4221 N   0  0  0  0  0  0  0  0  0  0  0  0
    7.1999    1.3466   -0.1040 C   0  0  0  0  0  0  0  0  0  0  0  0
    5.8260    1.3450   -0.2761 C   0  0  0  0  0  0  0  0  0  0  0  0
    5.4013    0.1051    0.1753 C   0  0  0  0  0  0  0  0  0  0  0  0
   -3.9314   -1.4123   -0.1373 C   0  0  0  0  0  0  0  0  0  0  0  0
   -5.2877   -1.5175    0.0697 C   0  0  0  0  0  0  0  0  0  0  0  0
   -9.3066   -1.3419   -1.0429 H   0  0  0  0  0  0  0  0  0  0  0  0
   -7.9374   -0.6269   -1.7335 H   0  0  0  0  0  0  0  0  0  0  0  0
   -6.0407    1.7118    0.4083 H   0  0  0  0  0  0  0  0  0  0  0  0
   -3.6688    1.9791    0.0395 H   0  0  0  0  0  0  0  0  0  0  0  0
   -1.5070   -1.0221   -0.7629 H   0  0  0  0  0  0  0  0  0  0  0  0
    0.7927    2.5203    0.7034 H   0  0  0  0  0  0  0  0  0  0  0  0
    1.5072    2.5056   -0.9409 H   0  0  0  0  0  0  0  0  0  0  0  0
    2.2219    0.9884    1.6025 H   0  0  0  0  0  0  0  0  0  0  0  0
    3.2734    2.0843    0.6445 H   0  0  0  0  0  0  0  0  0  0  0  0
    2.6079   -1.2791   -1.6567 H   0  0  0  0  0  0  0  0  0  0  0  0
    2.3875    0.4970   -2.0763 H   0  0  0  0  0  0  0  0  0  0  0  0
    0.2135   -0.7614   -1.7886 H   0  0  0  0  0  0  0  0  0  0  0  0
    0.7785   -1.1943   -0.0961 H   0  0  0  0  0  0  0  0  0  0  0  0
    5.0453   -3.4665    1.5658 H   0  0  0  0  0  0  0  0  0  0  0  0
    8.5803   -0.0878    0.6530 H   0  0  0  0  0  0  0  0  0  0  0  0
    7.8105    2.1851   -0.3682 H   0  0  0  0  0  0  0  0  0  0  0  0
    5.2073    2.1464   -0.6855 H   0  0  0  0  0  0  0  0  0  0  0  0
   -3.3644   -2.3374   -0.2893 H   0  0  0  0  0  0  0  0  0  0  0  0
   -5.8082   -2.4767    0.0865 H   0  0  0  0  0  0  0  0  0  0  0  0
  1  2  1  0
  2  3  2  0
  2  4  2  0
  2  5  1  0
  5  6  2  0
  6  7  1  0
  7  8  2  0
  8  9  1  0
  9 10  1  0
 10 11  2  0
 10 12  1  0
 12 13  1  0
 13 14  1  0
 14 15  1  0
 15 16  1  0
 16 17  1  0
 15 18  1  0
 18 19  2  0
 19 20  1  0
 20 21  2  0
 21 22  1  0
 22 23  1  0
 23 24  1  0
 24 25  2  0
 25 26  1  0
  8 27  1  0
 27 28  2  0
 28  5  1  0
 17 12  1  0
 26 18  1  0
 26 22  2  0
  1 29  1  0
  1 30  1  0
  6 31  1  0
  7 32  1  0
  9 33  1  0
 13 34  1  0
 13 35  1  0
 14 36  1  0
 14 37  1  0
 16 38  1  0
 16 39  1  0
 17 40  1  0
 17 41  1  0
 20 42  1  0
 23 43  1  0
 24 44  1  0
 25 45  1  0
 27 46  1  0
 28 47  1  0
M  END
$$$$
[H]c1c([H])c(Cl)c([H])c(N([H])C(=O)Oc2c([H])c([H])c(Cl)c([H])c2OC([H])([H])C2([H])C(=O)N([H])c3c([H])c(Cl)c(OC([H])([H])[H])c([H])c3C([H])([H])C([H])([H])[C@]2([H])N([H])C(=O)c2c([H])c([H])c([H])n2[H])c1[H]
     RDKit          3D

 71 75  0  0  0  0  0  0  0  0999 V2000
   -7.4709   -4.3428    0.3487 C   0  0  0  0  0  0  0  0  0  0  0  0
   -6.2897   -5.0172   -0.0301 O   0  0  0  0  0  0  0  0  0  0  0  0
   -5.1386   -4.2703   -0.2405 C   0  0  0  0  0  0  0  0  0  0  0  0
   -5.1372   -2.8940   -0.0850 C   0  0  0  0  0  0  0  0  0  0  0  0
   -3.9843   -2.2139   -0.3035 C   0  0  0  0  0  0  0  0  0  0  0  0
   -4.2265   -0.7555   -0.0770 C   0  0  0  0  0  0  0  0  0  0  0  0
   -3.2400    0.0882   -0.8952 C   0  0  0  0  0  0  0  0  0  0  0  0
   -2.2182    0.7760   -0.0584 C   0  0  2  0  0  0  0  0  0  0  0  0
   -1.8129    1.9749   -0.7227 N   0  0  0  0  0  0  0  0  0  0  0  0
   -2.0871    3.2367   -0.1375 C   0  0  0  0  0  0  0  0  0  0  0  0
   -2.6962    3.3291    0.9828 O   0  0  0  0  0  0  0  0  0  0  0  0
   -1.6887    4.4813   -0.7825 C   0  0  0  0  0  0  0  0  0  0  0  0
   -1.0268    4.5524   -1.9862 C   0  0  0  0  0  0  0  0  0  0  0  0
   -0.8275    5.8878   -2.2600 C   0  0  0  0  0  0  0  0  0  0  0  0
   -1.3645    6.6283   -1.2303 C   0  0  0  0  0  0  0  0  0  0  0  0
   -1.8834    5.7469   -0.3421 N   0  0  0  0  0  0  0  0  0  0  0  0
   -1.0410   -0.1013    0.3206 C   0  0  0  0  0  0  0  0  0  0  0  0
    0.2148    0.6814    0.4931 C   0  0  0  0  0  0  0  0  0  0  0  0
    1.2787   -0.1087    0.8334 O   0  0  0  0  0  0  0  0  0  0  0  0
    1.6016   -0.8711    1.8725 C   0  0  0  0  0  0  0  0  0  0  0  0
    0.8161   -1.0003    2.9893 C   0  0  0  0  0  0  0  0  0  0  0  0
    1.2289   -1.8250    4.0310 C   0  0  0  0  0  0  0  0  0  0  0  0
    0.1996   -1.9785    5.4622 Cl  0  0  0  0  0  0  0  0  0  0  0  0
    2.4239   -2.5240    3.9685 C   0  0  0  0  0  0  0  0  0  0  0  0
    3.2185   -2.3849    2.8256 C   0  0  0  0  0  0  0  0  0  0  0  0
    2.8237   -1.5757    1.7906 C   0  0  0  0  0  0  0  0  0  0  0  0
    3.5653   -1.4004    0.6408 O   0  0  0  0  0  0  0  0  0  0  0  0
    4.5328   -0.3623    0.5769 C   0  0  0  0  0  0  0  0  0  0  0  0
    4.6049    0.3117    1.6303 O   0  0  0  0  0  0  0  0  0  0  0  0
    5.2958   -0.1690   -0.5847 N   0  0  0  0  0  0  0  0  0  0  0  0
    6.2838    0.7729   -0.8640 C   0  0  0  0  0  0  0  0  0  0  0  0
    6.9390    0.7843   -2.0943 C   0  0  0  0  0  0  0  0  0  0  0  0
    7.9091    1.6968   -2.3951 C   0  0  0  0  0  0  0  0  0  0  0  0
    8.2808    2.6492   -1.4870 C   0  0  0  0  0  0  0  0  0  0  0  0
    7.6614    2.6722   -0.2669 C   0  0  0  0  0  0  0  0  0  0  0  0
    8.1297    3.8913    0.9070 Cl  0  0  0  0  0  0  0  0  0  0  0  0
    6.6684    1.7322    0.0310 C   0  0  0  0  0  0  0  0  0  0  0  0
   -0.8159   -1.2051   -0.6808 C   0  0  0  0  0  0  0  0  0  0  0  0
    0.1674   -1.0112   -1.4443 O   0  0  0  0  0  0  0  0  0  0  0  0
   -1.4609   -2.4374   -0.9748 N   0  0  0  0  0  0  0  0  0  0  0  0
   -2.8065   -2.8698   -0.6793 C   0  0  0  0  0  0  0  0  0  0  0  0
   -2.7817   -4.2266   -0.8392 C   0  0  0  0  0  0  0  0  0  0  0  0
   -3.9647   -4.9226   -0.6151 C   0  0  0  0  0  0  0  0  0  0  0  0
   -3.9914   -6.6681   -0.8066 Cl  0  0  0  0  0  0  0  0  0  0  0  0
   -7.8486   -3.6758   -0.4635 H   0  0  0  0  0  0  0  0  0  0  0  0
   -7.2613   -3.6797    1.2327 H   0  0  0  0  0  0  0  0  0  0  0  0
   -8.2592   -5.0618    0.6739 H   0  0  0  0  0  0  0  0  0  0  0  0
   -6.0226   -2.3517    0.2029 H   0  0  0  0  0  0  0  0  0  0  0  0
   -4.0956   -0.4526    0.9702 H   0  0  0  0  0  0  0  0  0  0  0  0
   -5.2799   -0.5804   -0.3863 H   0  0  0  0  0  0  0  0  0  0  0  0
   -2.8552   -0.4376   -1.7736 H   0  0  0  0  0  0  0  0  0  0  0  0
   -3.8926    0.9120   -1.3240 H   0  0  0  0  0  0  0  0  0  0  0  0
   -2.7378    1.0700    0.8965 H   0  0  0  0  0  0  0  0  0  0  0  0
   -1.3140    1.9618   -1.6374 H   0  0  0  0  0  0  0  0  0  0  0  0
   -0.6983    3.7591   -2.6394 H   0  0  0  0  0  0  0  0  0  0  0  0
   -0.3337    6.2923   -3.1346 H   0  0  0  0  0  0  0  0  0  0  0  0
   -1.3809    7.7189   -1.1273 H   0  0  0  0  0  0  0  0  0  0  0  0
   -2.3683    5.9533    0.5572 H   0  0  0  0  0  0  0  0  0  0  0  0
   -1.3183   -0.6031    1.2497 H   0  0  0  0  0  0  0  0  0  0  0  0
    0.4221    1.3396   -0.4050 H   0  0  0  0  0  0  0  0  0  0  0  0
   -0.0080    1.4555    1.3037 H   0  0  0  0  0  0  0  0  0  0  0  0
   -0.1109   -0.4805    3.1281 H   0  0  0  0  0  0  0  0  0  0  0  0
    2.6897   -3.1406    4.7980 H   0  0  0  0  0  0  0  0  0  0  0  0
    4.1465   -2.9291    2.7790 H   0  0  0  0  0  0  0  0  0  0  0  0
    5.0807   -0.8587   -1.3834 H   0  0  0  0  0  0  0  0  0  0  0  0
    6.6268    0.0143   -2.8051 H   0  0  0  0  0  0  0  0  0  0  0  0
    8.3859    1.6688   -3.3536 H   0  0  0  0  0  0  0  0  0  0  0  0
    9.0653    3.3938   -1.7201 H   0  0  0  0  0  0  0  0  0  0  0  0
    6.2248    1.8176    1.0202 H   0  0  0  0  0  0  0  0  0  0  0  0
   -0.8866   -3.1484   -1.4834 H   0  0  0  0  0  0  0  0  0  0  0  0
   -1.8598   -4.7147   -1.1311 H   0  0  0  0  0  0  0  0  0  0  0  0
  1  2  1  0
  2  3  1  0
  3  4  2  0
  4  5  1  0
  5  6  1  0
  6  7  1  0
  7  8  1  0
  8  9  1  0
  9 10  1  0
 10 11  2  0
 10 12  1  0
 12 13  2  0
 13 14  1  0
 14 15  2  0
 15 16  1  0
  8 17  1  0
 17 18  1  0
 18 19  1  0
 19 20  1  0
 20 21  2  0
 21 22  1  0
 22 23  1  0
 22 24  2  0
 24 25  1  0
 25 26  2  0
 26 27  1  0
 27 28  1  0
 28 29  2  0
 28 30  1  0
 30 31  1  0
 31 32  2  0
 32 33  1  0
 33 34  2  0
 34 35  1  0
 35 36  1  0
 35 37  2  0
 17 38  1  0
 38 39  2  0
 38 40  1  0
 40 41  1  0
 41 42  1  0
 42 43  2  0
 43 44  1  0
 43  3  1  0
 41  5  2  0
 16 12  1  0
 26 20  1  0
 37 31  1  0
  1 45  1  0
  1 46  1  0
  1 47  1  0
  4 48  1  0
  6 49  1  0
  6 50  1  0
  7 51  1  0
  7 52  1  0
  8 53  1  1
  9 54  1  0
 13 55  1  0
 14 56  1  0
 15 57  1  0
 16 58  1  0
 17 59  1  0
 18 60  1  0
 18 61  1  0
 21 62  1  0
 24 63  1  0
 25 64  1  0
 30 65  1  0
 32 66  1  0
 33 67  1  0
 34 68  1  0
 37 69  1  0
 40 70  1  0
 42 71  1  0
M  END
$$$$
[H]c1nc2c(c([H])c1C(=O)N1C([H])([H])C([H])([H])N(S(=O)(=O)c3c([H])c([H])c(OC([H])([H])[H])c([H])c3[H])C([H])([H])C1([H])[H])c([H])c([H])n2[H]
     RDKit          3D

 48 51  0  0  0  0  0  0  0  0999 V2000
    7.9658    1.3980    0.5360 C   0  0  0  0  0  0  0  0  0  0  0  0
    7.2988    0.2570    1.0450 O   0  0  0  0  0  0  0  0  0  0  0  0
    6.1055   -0.1352    0.4330 C   0  0  0  0  0  0  0  0  0  0  0  0
    5.5859    0.5635   -0.6363 C   0  0  0  0  0  0  0  0  0  0  0  0
    4.4067    0.1814   -1.2461 C   0  0  0  0  0  0  0  0  0  0  0  0
    3.6853   -0.9177   -0.8203 C   0  0  0  0  0  0  0  0  0  0  0  0
    4.2139   -1.6100    0.2504 C   0  0  0  0  0  0  0  0  0  0  0  0
    5.3916   -1.2335    0.8642 C   0  0  0  0  0  0  0  0  0  0  0  0
    2.1944   -1.3970   -1.5952 S   0  0  0  0  0  0  0  0  0  0  0  0
    2.0444   -2.9108   -1.5801 O   0  0  0  0  0  0  0  0  0  0  0  0
    2.2916   -1.0288   -3.0700 O   0  0  0  0  0  0  0  0  0  0  0  0
    0.8166   -0.7100   -0.9536 N   0  0  0  0  0  0  0  0  0  0  0  0
    0.6393    0.6657   -0.9708 C   0  0  0  0  0  0  0  0  0  0  0  0
   -0.0842    1.3316    0.1554 C   0  0  0  0  0  0  0  0  0  0  0  0
   -1.2957    0.4383    0.3679 N   0  0  0  0  0  0  0  0  0  0  0  0
   -0.8569   -0.8485    0.8138 C   0  0  0  0  0  0  0  0  0  0  0  0
   -0.1290   -1.5614   -0.3142 C   0  0  0  0  0  0  0  0  0  0  0  0
   -2.5499    0.9827    0.1501 C   0  0  0  0  0  0  0  0  0  0  0  0
   -2.5120    2.2688   -0.1517 O   0  0  0  0  0  0  0  0  0  0  0  0
   -3.8622    0.3878    0.1989 C   0  0  0  0  0  0  0  0  0  0  0  0
   -4.1602   -0.9409    0.2655 C   0  0  0  0  0  0  0  0  0  0  0  0
   -5.4438   -1.4064    0.3660 N   0  0  0  0  0  0  0  0  0  0  0  0
   -6.4859   -0.5834    0.4033 C   0  0  0  0  0  0  0  0  0  0  0  0
   -7.8281   -0.8151    0.4991 N   0  0  0  0  0  0  0  0  0  0  0  0
   -8.4902    0.3532    0.4989 C   0  0  0  0  0  0  0  0  0  0  0  0
   -7.5362    1.3420    0.4004 C   0  0  0  0  0  0  0  0  0  0  0  0
   -6.2742    0.7714    0.3395 C   0  0  0  0  0  0  0  0  0  0  0  0
   -4.9959    1.2371    0.2402 C   0  0  0  0  0  0  0  0  0  0  0  0
    8.1357    1.2061   -0.5634 H   0  0  0  0  0  0  0  0  0  0  0  0
    8.9037    1.6070    1.0496 H   0  0  0  0  0  0  0  0  0  0  0  0
    7.2506    2.2648    0.5596 H   0  0  0  0  0  0  0  0  0  0  0  0
    6.1520    1.4356   -0.9793 H   0  0  0  0  0  0  0  0  0  0  0  0
    4.0042    0.7403   -2.0907 H   0  0  0  0  0  0  0  0  0  0  0  0
    3.6623   -2.4713    0.5953 H   0  0  0  0  0  0  0  0  0  0  0  0
    5.8116   -1.7790    1.7106 H   0  0  0  0  0  0  0  0  0  0  0  0
    1.6366    1.1669   -1.0730 H   0  0  0  0  0  0  0  0  0  0  0  0
    0.0978    0.9748   -1.9152 H   0  0  0  0  0  0  0  0  0  0  0  0
    0.4671    1.2944    1.0911 H   0  0  0  0  0  0  0  0  0  0  0  0
   -0.4707    2.3046   -0.1365 H   0  0  0  0  0  0  0  0  0  0  0  0
   -0.0520   -0.7069    1.6377 H   0  0  0  0  0  0  0  0  0  0  0  0
   -1.5870   -1.4737    1.2570 H   0  0  0  0  0  0  0  0  0  0  0  0
    0.4023   -2.4223    0.1345 H   0  0  0  0  0  0  0  0  0  0  0  0
   -0.8637   -1.9397   -1.0509 H   0  0  0  0  0  0  0  0  0  0  0  0
   -3.3666   -1.6578    0.2008 H   0  0  0  0  0  0  0  0  0  0  0  0
   -8.2318   -1.7765    0.5609 H   0  0  0  0  0  0  0  0  0  0  0  0
   -9.5683    0.4497    0.5655 H   0  0  0  0  0  0  0  0  0  0  0  0
   -7.6978    2.4090    0.3714 H   0  0  0  0  0  0  0  0  0  0  0  0
   -4.8217    2.2941    0.1906 H   0  0  0  0  0  0  0  0  0  0  0  0
  1  2  1  0
  2  3  1  0
  3  4  2  0
  4  5  1  0
  5  6  2  0
  6  7  1  0
  7  8  2  0
  6  9  1  0
  9 10  2  0
  9 11  2  0
  9 12  1  0
 12 13  1  0
 13 14  1  0
 14 15  1  0
 15 16  1  0
 16 17  1  0
 15 18  1  0
 18 19  2  0
 18 20  1  0
 20 21  2  0
 21 22  1  0
 22 23  2  0
 23 24  1  0
 24 25  1  0
 25 26  2  0
 26 27  1  0
 27 28  2  0
  8  3  1  0
 17 12  1  0
 28 20  1  0
 27 23  1  0
  1 29  1  0
  1 30  1  0
  1 31  1  0
  4 32  1  0
  5 33  1  0
  7 34  1  0
  8 35  1  0
 13 36  1  0
 13 37  1  0
 14 38  1  0
 14 39  1  0
 16 40  1  0
 16 41  1  0
 17 42  1  0
 17 43  1  0
 21 44  1  0
 24 45  1  0
 25 46  1  0
 26 47  1  0
 28 48  1  0
M  END
$$$$
[H]OC(=O)c1c([H])c([H])c(Oc2c([H])c([H])c3c(c2[H])OC([H])([H])O3)c([H])c1[H]
     RDKit          3D

 29 31  0  0  0  0  0  0  0  0999 V2000
   -5.6008   -0.1958   -1.3198 O   0  0  0  0  0  0  0  0  0  0  0  0
   -4.6911   -1.1842   -1.0160 C   0  0  0  0  0  0  0  0  0  0  0  0
   -4.9359   -2.3513   -1.3849 O   0  0  0  0  0  0  0  0  0  0  0  0
   -3.4743   -0.9064   -0.2890 C   0  0  0  0  0  0  0  0  0  0  0  0
   -3.2244    0.4097    0.1125 C   0  0  0  0  0  0  0  0  0  0  0  0
   -2.0990    0.7634    0.8042 C   0  0  0  0  0  0  0  0  0  0  0  0
   -1.1766   -0.1956    1.1209 C   0  0  0  0  0  0  0  0  0  0  0  0
   -0.0097    0.1057    1.8251 O   0  0  0  0  0  0  0  0  0  0  0  0
    1.1036    0.4562    1.0436 C   0  0  0  0  0  0  0  0  0  0  0  0
    1.3415    1.7753    0.6981 C   0  0  0  0  0  0  0  0  0  0  0  0
    2.4600    2.0738   -0.0794 C   0  0  0  0  0  0  0  0  0  0  0  0
    3.3262    1.0914   -0.5073 C   0  0  0  0  0  0  0  0  0  0  0  0
    4.4851    1.1152   -1.2718 O   0  0  0  0  0  0  0  0  0  0  0  0
    5.2089   -0.1008   -1.0317 C   0  0  0  0  0  0  0  0  0  0  0  0
    4.1135   -0.9767   -0.7275 O   0  0  0  0  0  0  0  0  0  0  0  0
    3.0888   -0.2286   -0.1619 C   0  0  0  0  0  0  0  0  0  0  0  0
    1.9863   -0.5163    0.6034 C   0  0  0  0  0  0  0  0  0  0  0  0
   -1.4089   -1.4943    0.7326 C   0  0  0  0  0  0  0  0  0  0  0  0
   -2.5439   -1.8488    0.0354 C   0  0  0  0  0  0  0  0  0  0  0  0
   -5.3593    0.7135   -1.6753 H   0  0  0  0  0  0  0  0  0  0  0  0
   -3.9623    1.1706   -0.1421 H   0  0  0  0  0  0  0  0  0  0  0  0
   -1.8923    1.7755    1.1211 H   0  0  0  0  0  0  0  0  0  0  0  0
    0.6657    2.5569    1.0298 H   0  0  0  0  0  0  0  0  0  0  0  0
    2.5970    3.1144   -0.3187 H   0  0  0  0  0  0  0  0  0  0  0  0
    5.7840    0.0081   -0.1092 H   0  0  0  0  0  0  0  0  0  0  0  0
    5.7708   -0.4255   -1.9074 H   0  0  0  0  0  0  0  0  0  0  0  0
    1.8256   -1.5669    0.8597 H   0  0  0  0  0  0  0  0  0  0  0  0
   -0.6695   -2.2641    0.9862 H   0  0  0  0  0  0  0  0  0  0  0  0
   -2.7089   -2.8744   -0.2612 H   0  0  0  0  0  0  0  0  0  0  0  0
  1  2  1  0
  2  3  2  0
  2  4  1  0
  4  5  2  0
  5  6  1  0
  6  7  2  0
  7  8  1  0
  8  9  1  0
  9 10  2  0
 10 11  1  0
 11 12  2  0
 12 13  1  0
 13 14  1  0
 14 15  1  0
 15 16  1  0
 16 17  2  0
  7 18  1  0
 18 19  2  0
 19  4  1  0
 17  9  1  0
 16 12  1  0
  1 20  1  0
  5 21  1  0
  6 22  1  0
 10 23  1  0
 11 24  1  0
 14 25  1  0
 14 26  1  0
 17 27  1  0
 18 28  1  0
 19 29  1  0
M  END
$$$$
[H]Oc1c([H])c([H])c(C(=O)c2c([H])oc3c([H])c(-c4c([H])c([H])c(O[H])c([H])c4[H])c(O[H])c([H])c23)c([H])c1[H]
     RDKit          3D

 40 43  0  0  0  0  0  0  0  0999 V2000
    2.7374    0.5464    2.0215 O   0  0  0  0  0  0  0  0  0  0  0  0
    1.9275    0.4302    0.9037 C   0  0  0  0  0  0  0  0  0  0  0  0
    0.5400    0.5275    1.0432 C   0  0  0  0  0  0  0  0  0  0  0  0
   -0.3175    0.4221   -0.0219 C   0  0  0  0  0  0  0  0  0  0  0  0
   -1.6983    0.4726   -0.2054 C   0  0  0  0  0  0  0  0  0  0  0  0
   -1.8846    0.2903   -1.5457 C   0  0  0  0  0  0  0  0  0  0  0  0
   -0.7237    0.1414   -2.1309 O   0  0  0  0  0  0  0  0  0  0  0  0
    0.2500    0.2109   -1.2703 C   0  0  0  0  0  0  0  0  0  0  0  0
    1.6261    0.1129   -1.4188 C   0  0  0  0  0  0  0  0  0  0  0  0
    2.4586    0.2222   -0.3359 C   0  0  0  0  0  0  0  0  0  0  0  0
    3.8923    0.1136   -0.5105 C   0  0  0  0  0  0  0  0  0  0  0  0
    4.6686   -0.6763    0.3154 C   0  0  0  0  0  0  0  0  0  0  0  0
    6.0333   -0.7635    0.1343 C   0  0  0  0  0  0  0  0  0  0  0  0
    6.6749   -0.0768   -0.8643 C   0  0  0  0  0  0  0  0  0  0  0  0
    8.0400   -0.1776   -1.0285 O   0  0  0  0  0  0  0  0  0  0  0  0
    5.8877    0.7095   -1.6836 C   0  0  0  0  0  0  0  0  0  0  0  0
    4.5226    0.8264   -1.5395 C   0  0  0  0  0  0  0  0  0  0  0  0
   -2.6597    0.6857    0.8609 C   0  0  0  0  0  0  0  0  0  0  0  0
   -2.2915    1.2575    1.9422 O   0  0  0  0  0  0  0  0  0  0  0  0
   -4.0548    0.2901    0.8014 C   0  0  0  0  0  0  0  0  0  0  0  0
   -5.0199    0.9499    1.5412 C   0  0  0  0  0  0  0  0  0  0  0  0
   -6.3519    0.5807    1.4978 C   0  0  0  0  0  0  0  0  0  0  0  0
   -6.7692   -0.4627    0.7126 C   0  0  0  0  0  0  0  0  0  0  0  0
   -8.1093   -0.8535    0.6527 O   0  0  0  0  0  0  0  0  0  0  0  0
   -5.8174   -1.1356   -0.0354 C   0  0  0  0  0  0  0  0  0  0  0  0
   -4.4872   -0.7545    0.0184 C   0  0  0  0  0  0  0  0  0  0  0  0
    2.3184    0.7016    2.9377 H   0  0  0  0  0  0  0  0  0  0  0  0
    0.1002    0.6924    2.0234 H   0  0  0  0  0  0  0  0  0  0  0  0
   -2.8139    0.2677   -2.0653 H   0  0  0  0  0  0  0  0  0  0  0  0
    2.0663   -0.0498   -2.3807 H   0  0  0  0  0  0  0  0  0  0  0  0
    4.1599   -1.2229    1.1058 H   0  0  0  0  0  0  0  0  0  0  0  0
    6.5685   -1.4038    0.8238 H   0  0  0  0  0  0  0  0  0  0  0  0
    8.6993    0.4322   -0.5763 H   0  0  0  0  0  0  0  0  0  0  0  0
    6.3396    1.2874   -2.5052 H   0  0  0  0  0  0  0  0  0  0  0  0
    3.9329    1.4521   -2.1995 H   0  0  0  0  0  0  0  0  0  0  0  0
   -4.6968    1.7750    2.1635 H   0  0  0  0  0  0  0  0  0  0  0  0
   -7.0827    1.1087    2.0815 H   0  0  0  0  0  0  0  0  0  0  0  0
   -8.6953   -0.4327   -0.0329 H   0  0  0  0  0  0  0  0  0  0  0  0
   -6.1764   -1.9558   -0.6464 H   0  0  0  0  0  0  0  0  0  0  0  0
   -3.7940   -1.3193   -0.5840 H   0  0  0  0  0  0  0  0  0  0  0  0
  1  2  1  0
  2  3  2  0
  3  4  1  0
  4  5  1  0
  5  6  2  0
  6  7  1  0
  7  8  1  0
  8  9  1  0
  9 10  2  0
 10 11  1  0
 11 12  2  0
 12 13  1  0
 13 14  2  0
 14 15  1  0
 14 16  1  0
 16 17  2  0
  5 18  1  0
 18 19  2  0
 18 20  1  0
 20 21  2  0
 21 22  1  0
 22 23  2  0
 23 24  1  0
 23 25  1  0
 25 26  2  0
 10  2  1  0
 17 11  1  0
 26 20  1  0
  8  4  2  0
  1 27  1  0
  3 28  1  0
  6 29  1  0
  9 30  1  0
 12 31  1  0
 13 32  1  0
 15 33  1  0
 16 34  1  0
 17 35  1  0
 21 36  1  0
 22 37  1  0
 24 38  1  0
 25 39  1  0
 26 40  1  0
M  END
$$$$
[H]Oc1c([H])c([H])c2c(oc(=O)c3c(O[H])c([H])c([H])c(O[H])c32)c1C([H])([H])[H]
     RDKit          3D

 29 31  0  0  0  0  0  0  0  0999 V2000
   -3.1682   -2.0253   -0.0963 C   0  0  0  0  0  0  0  0  0  0  0  0
   -2.4165   -0.7463   -0.0523 C   0  0  0  0  0  0  0  0  0  0  0  0
   -3.1089    0.4396   -0.0033 C   0  0  0  0  0  0  0  0  0  0  0  0
   -4.5169    0.4401    0.0049 O   0  0  0  0  0  0  0  0  0  0  0  0
   -2.4299    1.6245    0.0376 C   0  0  0  0  0  0  0  0  0  0  0  0
   -1.0244    1.6065    0.0287 C   0  0  0  0  0  0  0  0  0  0  0  0
   -0.3340    0.4287   -0.0200 C   0  0  0  0  0  0  0  0  0  0  0  0
   -1.0383   -0.7919   -0.0621 C   0  0  0  0  0  0  0  0  0  0  0  0
   -0.3930   -1.9318   -0.1090 O   0  0  0  0  0  0  0  0  0  0  0  0
    0.9080   -1.9862   -0.1187 C   0  0  0  0  0  0  0  0  0  0  0  0
    1.4816   -3.0948   -0.1640 O   0  0  0  0  0  0  0  0  0  0  0  0
    1.6669   -0.8357   -0.0796 C   0  0  0  0  0  0  0  0  0  0  0  0
    3.0532   -0.9023   -0.0902 C   0  0  0  0  0  0  0  0  0  0  0  0
    3.6648   -2.1528   -0.1411 O   0  0  0  0  0  0  0  0  0  0  0  0
    3.8095    0.2492   -0.0510 C   0  0  0  0  0  0  0  0  0  0  0  0
    3.1661    1.4669   -0.0011 C   0  0  0  0  0  0  0  0  0  0  0  0
    1.7802    1.5733    0.0110 C   0  0  0  0  0  0  0  0  0  0  0  0
    1.2593    2.8417    0.0621 O   0  0  0  0  0  0  0  0  0  0  0  0
    1.0476    0.4187   -0.0284 C   0  0  0  0  0  0  0  0  0  0  0  0
   -4.1512   -1.8564   -0.6120 H   0  0  0  0  0  0  0  0  0  0  0  0
   -2.5921   -2.7432   -0.7349 H   0  0  0  0  0  0  0  0  0  0  0  0
   -3.3177   -2.4705    0.8988 H   0  0  0  0  0  0  0  0  0  0  0  0
   -5.0299    1.2922    0.0402 H   0  0  0  0  0  0  0  0  0  0  0  0
   -2.9004    2.5919    0.0770 H   0  0  0  0  0  0  0  0  0  0  0  0
   -0.5461    2.5387    0.0612 H   0  0  0  0  0  0  0  0  0  0  0  0
    4.6831   -2.2009   -0.1488 H   0  0  0  0  0  0  0  0  0  0  0  0
    4.8958    0.1808   -0.0599 H   0  0  0  0  0  0  0  0  0  0  0  0
    3.7775    2.3658    0.0294 H   0  0  0  0  0  0  0  0  0  0  0  0
    1.7738    3.6796    0.0909 H   0  0  0  0  0  0  0  0  0  0  0  0
  1  2  1  0
  2  3  2  0
  3  4  1  0
  3  5  1  0
  5  6  2  0
  6  7  1  0
  7  8  2  0
  8  9  1  0
  9 10  1  0
 10 11  2  0
 10 12  1  0
 12 13  2  0
 13 14  1  0
 13 15  1  0
 15 16  2  0
 16 17  1  0
 17 18  1  0
 17 19  2  0
  8  2  1  0
 19 12  1  0
 19  7  1  0
  1 20  1  0
  1 21  1  0
  1 22  1  0
  4 23  1  0
  5 24  1  0
  6 25  1  0
 14 26  1  0
 15 27  1  0
 16 28  1  0
 18 29  1  0
M  END
$$$$
[H]Oc1c([H])c([H])c2c(C(=O)C(=O)N([H])[H])c(C([H])([H])C([H])(C([H])([H])[H])C([H])([H])[H])n(C([H])([H])c3c([H])c([H])c(Cl)c([H])c3[H])c2c1N1C([H])([H])C([H])([H])C([H])([H])C([H])([H])C1([H])[H]
     RDKit          3D

 63 66  0  0  0  0  0  0  0  0999 V2000
   -3.9305   -0.5302   -2.3323 C   0  0  0  0  0  0  0  0  0  0  0  0
   -3.3298    0.6620   -1.6663 C   0  0  0  0  0  0  0  0  0  0  0  0
   -4.5436    1.6153   -1.4577 C   0  0  0  0  0  0  0  0  0  0  0  0
   -2.7438    0.4842   -0.3125 C   0  0  0  0  0  0  0  0  0  0  0  0
   -1.6393   -0.4386   -0.0993 C   0  0  0  0  0  0  0  0  0  0  0  0
   -1.6981   -1.7693    0.1760 C   0  0  0  0  0  0  0  0  0  0  0  0
   -2.8181   -2.6739    0.3699 C   0  0  0  0  0  0  0  0  0  0  0  0
   -3.2930   -3.3349   -0.5693 O   0  0  0  0  0  0  0  0  0  0  0  0
   -3.4321   -2.8415    1.6847 C   0  0  0  0  0  0  0  0  0  0  0  0
   -4.5216   -3.7019    1.9419 N   0  0  0  0  0  0  0  0  0  0  0  0
   -2.9593   -2.1801    2.6352 O   0  0  0  0  0  0  0  0  0  0  0  0
   -0.3877   -2.2154    0.2784 C   0  0  0  0  0  0  0  0  0  0  0  0
    0.0832   -3.4833    0.5391 C   0  0  0  0  0  0  0  0  0  0  0  0
    1.4310   -3.7326    0.5902 C   0  0  0  0  0  0  0  0  0  0  0  0
    2.2655   -2.6669    0.3686 C   0  0  0  0  0  0  0  0  0  0  0  0
    3.6311   -2.9062    0.4160 O   0  0  0  0  0  0  0  0  0  0  0  0
    1.7816   -1.3771    0.1031 C   0  0  0  0  0  0  0  0  0  0  0  0
    0.4492   -1.1158    0.0556 C   0  0  0  0  0  0  0  0  0  0  0  0
   -0.3192   -0.0391   -0.1688 N   0  0  0  0  0  0  0  0  0  0  0  0
    0.0741    1.2802   -0.4183 C   0  0  0  0  0  0  0  0  0  0  0  0
    0.0087    2.1838    0.7806 C   0  0  0  0  0  0  0  0  0  0  0  0
   -0.2557    3.5283    0.6026 C   0  0  0  0  0  0  0  0  0  0  0  0
   -0.3730    4.4310    1.6387 C   0  0  0  0  0  0  0  0  0  0  0  0
   -0.2172    3.9653    2.9241 C   0  0  0  0  0  0  0  0  0  0  0  0
   -0.3546    5.0651    4.2906 Cl  0  0  0  0  0  0  0  0  0  0  0  0
    0.0509    2.6175    3.1596 C   0  0  0  0  0  0  0  0  0  0  0  0
    0.1526    1.7829    2.0766 C   0  0  0  0  0  0  0  0  0  0  0  0
    2.7577   -0.4273   -0.1850 N   0  0  0  0  0  0  0  0  0  0  0  0
    3.2659   -0.2062   -1.5566 C   0  0  0  0  0  0  0  0  0  0  0  0
    4.2852    0.8789   -1.5914 C   0  0  0  0  0  0  0  0  0  0  0  0
    5.4251    0.6459   -0.6234 C   0  0  0  0  0  0  0  0  0  0  0  0
    4.8923    0.3795    0.7509 C   0  0  0  0  0  0  0  0  0  0  0  0
    3.3878    0.3620    0.8274 C   0  0  0  0  0  0  0  0  0  0  0  0
   -4.6981   -1.0096   -1.6628 H   0  0  0  0  0  0  0  0  0  0  0  0
   -3.1755   -1.2769   -2.6629 H   0  0  0  0  0  0  0  0  0  0  0  0
   -4.5011   -0.2518   -3.2419 H   0  0  0  0  0  0  0  0  0  0  0  0
   -2.6233    1.2004   -2.3544 H   0  0  0  0  0  0  0  0  0  0  0  0
   -4.2155    2.5066   -0.8770 H   0  0  0  0  0  0  0  0  0  0  0  0
   -4.9755    1.9120   -2.4174 H   0  0  0  0  0  0  0  0  0  0  0  0
   -5.2394    1.0242   -0.8171 H   0  0  0  0  0  0  0  0  0  0  0  0
   -3.6586    0.1692    0.3230 H   0  0  0  0  0  0  0  0  0  0  0  0
   -2.5569    1.4990    0.1340 H   0  0  0  0  0  0  0  0  0  0  0  0
   -5.2873   -3.8048    1.2493 H   0  0  0  0  0  0  0  0  0  0  0  0
   -4.5812   -4.2463    2.8218 H   0  0  0  0  0  0  0  0  0  0  0  0
   -0.5729   -4.3244    0.7118 H   0  0  0  0  0  0  0  0  0  0  0  0
    1.7925   -4.7306    0.7970 H   0  0  0  0  0  0  0  0  0  0  0  0
    3.9955   -3.8240    0.6057 H   0  0  0  0  0  0  0  0  0  0  0  0
   -0.7150    1.7319   -1.1109 H   0  0  0  0  0  0  0  0  0  0  0  0
    0.9756    1.5402   -0.9168 H   0  0  0  0  0  0  0  0  0  0  0  0
   -0.3873    3.9492   -0.4072 H   0  0  0  0  0  0  0  0  0  0  0  0
   -0.5844    5.4867    1.4302 H   0  0  0  0  0  0  0  0  0  0  0  0
    0.1703    2.2707    4.1752 H   0  0  0  0  0  0  0  0  0  0  0  0
    0.3613    0.7374    2.2553 H   0  0  0  0  0  0  0  0  0  0  0  0
    3.6173   -1.1621   -1.9935 H   0  0  0  0  0  0  0  0  0  0  0  0
    2.3921    0.1024   -2.1507 H   0  0  0  0  0  0  0  0  0  0  0  0
    3.7900    1.8558   -1.4170 H   0  0  0  0  0  0  0  0  0  0  0  0
    4.7174    0.9096   -2.6021 H   0  0  0  0  0  0  0  0  0  0  0  0
    5.9778   -0.2538   -0.9790 H   0  0  0  0  0  0  0  0  0  0  0  0
    6.1076    1.5094   -0.6958 H   0  0  0  0  0  0  0  0  0  0  0  0
    5.3657   -0.5048    1.2505 H   0  0  0  0  0  0  0  0  0  0  0  0
    5.2112    1.2549    1.3931 H   0  0  0  0  0  0  0  0  0  0  0  0
    3.1044    0.0583    1.8557 H   0  0  0  0  0  0  0  0  0  0  0  0
    3.0679    1.4296    0.6304 H   0  0  0  0  0  0  0  0  0  0  0  0
  1  2  1  0
  2  3  1  0
  2  4  1  0
  4  5  1  0
  5  6  2  0
  6  7  1  0
  7  8  2  0
  7  9  1  0
  9 10  1  0
  9 11  2  0
  6 12  1  0
 12 13  2  0
 13 14  1  0
 14 15  2  0
 15 16  1  0
 15 17  1  0
 17 18  2  0
 18 19  1  0
 19 20  1  0
 20 21  1  0
 21 22  2  0
 22 23  1  0
 23 24  2  0
 24 25  1  0
 24 26  1  0
 26 27  2  0
 17 28  1  0
 28 29  1  0
 29 30  1  0
 30 31  1  0
 31 32  1  0
 32 33  1  0
 19  5  1  0
 27 21  1  0
 33 28  1  0
 18 12  1  0
  1 34  1  0
  1 35  1  0
  1 36  1  0
  2 37  1  0
  3 38  1  0
  3 39  1  0
  3 40  1  0
  4 41  1  0
  4 42  1  0
 10 43  1  0
 10 44  1  0
 13 45  1  0
 14 46  1  0
 16 47  1  0
 20 48  1  0
 20 49  1  0
 22 50  1  0
 23 51  1  0
 26 52  1  0
 27 53  1  0
 29 54  1  0
 29 55  1  0
 30 56  1  0
 30 57  1  0
 31 58  1  0
 31 59  1  0
 32 60  1  0
 32 61  1  0
 33 62  1  0
 33 63  1  0
M  END
$$$$
[H]Oc1c([H])c([H])c2c(c1[H])C(C#N)(c1c([H])c([H])c([H])c([H])c1[H])C([H])([H])N([H])C([H])([H])C([H])([H])N2[H]
     RDKit          3D

 38 40  0  0  0  0  0  0  0  0999 V2000
   -1.7953    3.9313    0.4140 O   0  0  0  0  0  0  0  0  0  0  0  0
   -1.8146    2.5878    0.0748 C   0  0  0  0  0  0  0  0  0  0  0  0
   -2.7610    2.0327   -0.7731 C   0  0  0  0  0  0  0  0  0  0  0  0
   -2.7736    0.6765   -1.1102 C   0  0  0  0  0  0  0  0  0  0  0  0
   -1.7922   -0.1188   -0.5624 C   0  0  0  0  0  0  0  0  0  0  0  0
   -2.0443   -1.4478   -1.0759 N   0  0  0  0  0  0  0  0  0  0  0  0
   -1.2566   -2.6497   -1.2279 C   0  0  0  0  0  0  0  0  0  0  0  0
   -0.8115   -3.4064   -0.0640 C   0  0  0  0  0  0  0  0  0  0  0  0
    0.3753   -2.8978    0.6912 N   0  0  0  0  0  0  0  0  0  0  0  0
    0.2465   -1.6016    0.7834 C   0  0  0  0  0  0  0  0  0  0  0  0
    0.3501   -0.2083    1.0412 C   0  0  0  0  0  0  0  0  0  0  0  0
    0.2026    0.0709    2.4790 C   0  0  0  0  0  0  0  0  0  0  0  0
    0.0710    0.3058    3.6134 N   0  0  0  0  0  0  0  0  0  0  0  0
    1.5691    0.4571    0.5275 C   0  0  0  0  0  0  0  0  0  0  0  0
    1.7966    0.4307   -0.8270 C   0  0  0  0  0  0  0  0  0  0  0  0
    2.9250    1.0324   -1.3804 C   0  0  0  0  0  0  0  0  0  0  0  0
    3.7989    1.6530   -0.5097 C   0  0  0  0  0  0  0  0  0  0  0  0
    3.5712    1.6792    0.8421 C   0  0  0  0  0  0  0  0  0  0  0  0
    2.4599    1.0854    1.3786 C   0  0  0  0  0  0  0  0  0  0  0  0
   -0.8227    0.4161    0.2982 C   0  0  0  0  0  0  0  0  0  0  0  0
   -0.8438    1.7477    0.6040 C   0  0  0  0  0  0  0  0  0  0  0  0
   -1.2651    4.5810   -0.1585 H   0  0  0  0  0  0  0  0  0  0  0  0
   -3.5015    2.7145   -1.1665 H   0  0  0  0  0  0  0  0  0  0  0  0
   -3.5141    0.2754   -1.7647 H   0  0  0  0  0  0  0  0  0  0  0  0
   -3.0158   -1.4911   -1.3890 H   0  0  0  0  0  0  0  0  0  0  0  0
   -1.9157   -3.3637   -1.8139 H   0  0  0  0  0  0  0  0  0  0  0  0
   -0.4115   -2.4808   -1.9687 H   0  0  0  0  0  0  0  0  0  0  0  0
   -1.6172   -3.4142    0.7039 H   0  0  0  0  0  0  0  0  0  0  0  0
   -0.6115   -4.4391   -0.3288 H   0  0  0  0  0  0  0  0  0  0  0  0
    0.3762   -3.4595    1.5646 H   0  0  0  0  0  0  0  0  0  0  0  0
   -0.8434   -1.6334    1.1747 H   0  0  0  0  0  0  0  0  0  0  0  0
    0.3343   -1.4504   -0.3554 H   0  0  0  0  0  0  0  0  0  0  0  0
    1.1336   -0.0412   -1.5335 H   0  0  0  0  0  0  0  0  0  0  0  0
    3.0837    0.9993   -2.4457 H   0  0  0  0  0  0  0  0  0  0  0  0
    4.6782    2.1202   -0.9555 H   0  0  0  0  0  0  0  0  0  0  0  0
    4.2594    2.1673    1.5232 H   0  0  0  0  0  0  0  0  0  0  0  0
    2.2431    1.0819    2.4284 H   0  0  0  0  0  0  0  0  0  0  0  0
   -0.0635    2.0573    1.2687 H   0  0  0  0  0  0  0  0  0  0  0  0
  1  2  1  0
  2  3  2  0
  3  4  1  0
  4  5  2  0
  5  6  1  0
  6  7  1  0
  7  8  1  0
  8  9  1  0
  9 10  1  0
 10 11  1  0
 11 12  1  0
 12 13  3  0
 11 14  1  0
 14 15  2  0
 15 16  1  0
 16 17  2  0
 17 18  1  0
 18 19  2  0
 11 20  1  0
 20 21  2  0
 21  2  1  0
 20  5  1  0
 19 14  1  0
  1 22  1  0
  3 23  1  0
  4 24  1  0
  6 25  1  0
  7 26  1  0
  7 27  1  0
  8 28  1  0
  8 29  1  0
  9 30  1  0
 10 31  1  0
 10 32  1  0
 15 33  1  0
 16 34  1  0
 17 35  1  0
 18 36  1  0
 19 37  1  0
 21 38  1  0
M  END
$$$$
[H]c1nc(N([H])c2c([H])c(OC([H])([H])[H])c(OC([H])([H])[H])c(OC([H])([H])[H])c2[H])nc(N([H])c2c([H])c([H])c(C([H])([H])N3C([H])([H])C([H])([H])N(C([H])([H])[H])C([H])([H])C3([H])[H])c([H])c2[H])c1C#N
     RDKit          3D

 67 70  0  0  0  0  0  0  0  0999 V2000
    4.7526    4.1680   -0.9779 C   0  0  0  0  0  0  0  0  0  0  0  0
    5.8991    3.3556   -0.6897 O   0  0  0  0  0  0  0  0  0  0  0  0
    5.6777    2.0191   -0.3521 C   0  0  0  0  0  0  0  0  0  0  0  0
    4.4105    1.4882   -0.2944 C   0  0  0  0  0  0  0  0  0  0  0  0
    4.1949    0.1405    0.0467 C   0  0  0  0  0  0  0  0  0  0  0  0
    2.8608   -0.3146    0.0608 N   0  0  0  0  0  0  0  0  0  0  0  0
    2.3516   -1.4762    0.6868 C   0  0  0  0  0  0  0  0  0  0  0  0
    3.1001   -2.3326    1.3916 N   0  0  0  0  0  0  0  0  0  0  0  0
    2.6366   -3.4390    1.9936 C   0  0  0  0  0  0  0  0  0  0  0  0
    1.2932   -3.6932    1.8648 C   0  0  0  0  0  0  0  0  0  0  0  0
    0.7854   -4.8541    2.4914 C   0  0  0  0  0  0  0  0  0  0  0  0
    0.3542   -5.7992    3.0001 N   0  0  0  0  0  0  0  0  0  0  0  0
    0.4471   -2.8426    1.1426 C   0  0  0  0  0  0  0  0  0  0  0  0
   -0.9119   -3.1832    1.0819 N   0  0  0  0  0  0  0  0  0  0  0  0
   -1.9557   -2.4960    0.4076 C   0  0  0  0  0  0  0  0  0  0  0  0
   -1.7875   -1.5179   -0.5383 C   0  0  0  0  0  0  0  0  0  0  0  0
   -2.8800   -0.8741   -1.1391 C   0  0  0  0  0  0  0  0  0  0  0  0
   -4.1779   -1.1854   -0.8158 C   0  0  0  0  0  0  0  0  0  0  0  0
   -5.3416   -0.5076   -1.4418 C   0  0  0  0  0  0  0  0  0  0  0  0
   -5.0223    0.7617   -2.0324 N   0  0  0  0  0  0  0  0  0  0  0  0
   -6.2227    1.3238   -2.6548 C   0  0  0  0  0  0  0  0  0  0  0  0
   -7.3515    1.5095   -1.7234 C   0  0  0  0  0  0  0  0  0  0  0  0
   -7.0536    2.0674   -0.4557 N   0  0  0  0  0  0  0  0  0  0  0  0
   -8.0565    1.8469    0.5455 C   0  0  0  0  0  0  0  0  0  0  0  0
   -5.7190    1.9429    0.0084 C   0  0  0  0  0  0  0  0  0  0  0  0
   -4.6749    1.7713   -1.0237 C   0  0  0  0  0  0  0  0  0  0  0  0
   -4.3540   -2.1684    0.1342 C   0  0  0  0  0  0  0  0  0  0  0  0
   -3.2907   -2.8021    0.7259 C   0  0  0  0  0  0  0  0  0  0  0  0
    1.0416   -1.7864    0.6008 N   0  0  0  0  0  0  0  0  0  0  0  0
    5.3110   -0.6022    0.3138 C   0  0  0  0  0  0  0  0  0  0  0  0
    6.6036   -0.0544    0.2536 C   0  0  0  0  0  0  0  0  0  0  0  0
    7.7232   -0.8254    0.5291 O   0  0  0  0  0  0  0  0  0  0  0  0
    7.6304   -2.1912    0.8821 C   0  0  0  0  0  0  0  0  0  0  0  0
    6.7960    1.2623   -0.0802 C   0  0  0  0  0  0  0  0  0  0  0  0
    8.0649    1.8276   -0.1463 O   0  0  0  0  0  0  0  0  0  0  0  0
    8.6049    2.4234    1.0374 C   0  0  0  0  0  0  0  0  0  0  0  0
    4.0310    4.1188   -0.1155 H   0  0  0  0  0  0  0  0  0  0  0  0
    5.0350    5.2256   -1.0955 H   0  0  0  0  0  0  0  0  0  0  0  0
    4.2748    3.8214   -1.9068 H   0  0  0  0  0  0  0  0  0  0  0  0
    3.5512    2.0939   -0.5095 H   0  0  0  0  0  0  0  0  0  0  0  0
    2.1082    0.2645   -0.4621 H   0  0  0  0  0  0  0  0  0  0  0  0
    3.3183   -4.0643    2.5374 H   0  0  0  0  0  0  0  0  0  0  0  0
   -1.2200   -4.0745    1.6005 H   0  0  0  0  0  0  0  0  0  0  0  0
   -0.8003   -1.2291   -0.8495 H   0  0  0  0  0  0  0  0  0  0  0  0
   -2.7037   -0.1062   -1.8865 H   0  0  0  0  0  0  0  0  0  0  0  0
   -5.7887   -1.1463   -2.2330 H   0  0  0  0  0  0  0  0  0  0  0  0
   -6.1657   -0.3454   -0.7048 H   0  0  0  0  0  0  0  0  0  0  0  0
   -5.9114    2.3129   -3.0844 H   0  0  0  0  0  0  0  0  0  0  0  0
   -6.4943    0.6028   -3.4629 H   0  0  0  0  0  0  0  0  0  0  0  0
   -8.1001    2.1906   -2.2192 H   0  0  0  0  0  0  0  0  0  0  0  0
   -7.8874    0.5476   -1.5875 H   0  0  0  0  0  0  0  0  0  0  0  0
   -7.6183    1.4726    1.5062 H   0  0  0  0  0  0  0  0  0  0  0  0
   -8.7497    1.0682    0.1996 H   0  0  0  0  0  0  0  0  0  0  0  0
   -8.6128    2.7756    0.8221 H   0  0  0  0  0  0  0  0  0  0  0  0
   -5.6799    1.0630    0.7045 H   0  0  0  0  0  0  0  0  0  0  0  0
   -5.4592    2.8289    0.6218 H   0  0  0  0  0  0  0  0  0  0  0  0
   -4.5608    2.7240   -1.6187 H   0  0  0  0  0  0  0  0  0  0  0  0
   -3.7072    1.5929   -0.5477 H   0  0  0  0  0  0  0  0  0  0  0  0
   -5.3898   -2.4110    0.3863 H   0  0  0  0  0  0  0  0  0  0  0  0
   -3.4587   -3.5721    1.4713 H   0  0  0  0  0  0  0  0  0  0  0  0
    5.2300   -1.6357    0.5658 H   0  0  0  0  0  0  0  0  0  0  0  0
    7.2309   -2.7240   -0.0045 H   0  0  0  0  0  0  0  0  0  0  0  0
    8.6608   -2.5393    1.1180 H   0  0  0  0  0  0  0  0  0  0  0  0
    6.9506   -2.2497    1.7560 H   0  0  0  0  0  0  0  0  0  0  0  0
    8.0081    2.1154    1.9345 H   0  0  0  0  0  0  0  0  0  0  0  0
    9.6366    2.1061    1.2295 H   0  0  0  0  0  0  0  0  0  0  0  0
    8.5331    3.5299    1.0016 H   0  0  0  0  0  0  0  0  0  0  0  0
  1  2  1  0
  2  3  1  0
  3  4  2  0
  4  5  1  0
  5  6  1  0
  6  7  1  0
  7  8  2  0
  8  9  1  0
  9 10  2  0
 10 11  1  0
 11 12  3  0
 10 13  1  0
 13 14  1  0
 14 15  1  0
 15 16  2  0
 16 17  1  0
 17 18  2  0
 18 19  1  0
 19 20  1  0
 20 21  1  0
 21 22  1  0
 22 23  1  0
 23 24  1  0
 23 25  1  0
 25 26  1  0
 18 27  1  0
 27 28  2  0
 13 29  2  0
  5 30  2  0
 30 31  1  0
 31 32  1  0
 32 33  1  0
 31 34  2  0
 34 35  1  0
 35 36  1  0
 34  3  1  0
 29  7  1  0
 28 15  1  0
 26 20  1  0
  1 37  1  0
  1 38  1  0
  1 39  1  0
  4 40  1  0
  6 41  1  0
  9 42  1  0
 14 43  1  0
 16 44  1  0
 17 45  1  0
 19 46  1  0
 19 47  1  0
 21 48  1  0
 21 49  1  0
 22 50  1  0
 22 51  1  0
 24 52  1  0
 24 53  1  0
 24 54  1  0
 25 55  1  0
 25 56  1  0
 26 57  1  0
 26 58  1  0
 27 59  1  0
 28 60  1  0
 30 61  1  0
 33 62  1  0
 33 63  1  0
 33 64  1  0
 36 65  1  0
 36 66  1  0
 36 67  1  0
M  END
$$$$
[H]c1nc([H])c([H])c(-c2c([H])c([H])c(OC([H])([H])C([H])([H])C([H])([H])N3C(=S)N(c4c([H])c([H])c(C#N)c(C(F)(F)F)c4[H])C(=O)C3(C([H])([H])[H])C([H])([H])[H])c([H])c2[H])c1[H]
     RDKit          3D

 60 63  0  0  0  0  0  0  0  0999 V2000
   -2.2079    1.9819   -1.8736 C   0  0  0  0  0  0  0  0  0  0  0  0
   -2.5537    1.7248   -0.4347 C   0  0  0  0  0  0  0  0  0  0  0  0
   -2.0356    2.8899    0.3849 C   0  0  0  0  0  0  0  0  0  0  0  0
   -2.0302    0.4645    0.0409 N   0  0  0  0  0  0  0  0  0  0  0  0
   -0.7582    0.2200    0.6767 C   0  0  0  0  0  0  0  0  0  0  0  0
    0.3549    0.4325   -0.3213 C   0  0  0  0  0  0  0  0  0  0  0  0
    1.6681    0.1560    0.4249 C   0  0  0  0  0  0  0  0  0  0  0  0
    2.6885    0.3582   -0.5163 O   0  0  0  0  0  0  0  0  0  0  0  0
    4.0042    0.1803   -0.1367 C   0  0  0  0  0  0  0  0  0  0  0  0
    5.0303    0.3742   -1.0493 C   0  0  0  0  0  0  0  0  0  0  0  0
    6.3445    0.1983   -0.6756 C   0  0  0  0  0  0  0  0  0  0  0  0
    6.6723   -0.1794    0.6302 C   0  0  0  0  0  0  0  0  0  0  0  0
    5.6286   -0.3624    1.5068 C   0  0  0  0  0  0  0  0  0  0  0  0
    4.2975   -0.1906    1.1519 C   0  0  0  0  0  0  0  0  0  0  0  0
    8.0757   -0.3528    0.9753 C   0  0  0  0  0  0  0  0  0  0  0  0
    8.5043   -0.0893    2.2584 C   0  0  0  0  0  0  0  0  0  0  0  0
    9.8514   -0.2497    2.6067 C   0  0  0  0  0  0  0  0  0  0  0  0
   10.7180   -0.6633    1.6768 N   0  0  0  0  0  0  0  0  0  0  0  0
   10.3538   -0.9349    0.4101 C   0  0  0  0  0  0  0  0  0  0  0  0
    9.0249   -0.7753    0.0696 C   0  0  0  0  0  0  0  0  0  0  0  0
   -3.0453   -0.4965   -0.2537 C   0  0  0  0  0  0  0  0  0  0  0  0
   -2.7563   -2.1156   -0.3166 S   0  0  0  0  0  0  0  0  0  0  0  0
   -4.2813    0.1706   -0.4692 N   0  0  0  0  0  0  0  0  0  0  0  0
   -4.0074    1.5544   -0.3019 C   0  0  0  0  0  0  0  0  0  0  0  0
   -4.8852    2.4571   -0.0789 O   0  0  0  0  0  0  0  0  0  0  0  0
   -5.5394   -0.4549   -0.7903 C   0  0  0  0  0  0  0  0  0  0  0  0
   -5.8769   -0.7457   -2.0903 C   0  0  0  0  0  0  0  0  0  0  0  0
   -7.0842   -1.3413   -2.3774 C   0  0  0  0  0  0  0  0  0  0  0  0
   -8.0019   -1.6722   -1.4032 C   0  0  0  0  0  0  0  0  0  0  0  0
   -9.2625   -2.2963   -1.7210 C   0  0  0  0  0  0  0  0  0  0  0  0
  -10.2867   -2.7852   -1.9900 N   0  0  0  0  0  0  0  0  0  0  0  0
   -7.6495   -1.3745   -0.1050 C   0  0  0  0  0  0  0  0  0  0  0  0
   -6.4447   -0.7786    0.1975 C   0  0  0  0  0  0  0  0  0  0  0  0
   -8.6196   -1.7207    0.9682 C   0  0  0  0  0  0  0  0  0  0  0  0
   -9.7838   -1.0146    0.6887 F   0  0  0  0  0  0  0  0  0  0  0  0
   -8.8995   -3.0793    0.9951 F   0  0  0  0  0  0  0  0  0  0  0  0
   -8.1540   -1.2641    2.1892 F   0  0  0  0  0  0  0  0  0  0  0  0
   -1.8380    1.0136   -2.2924 H   0  0  0  0  0  0  0  0  0  0  0  0
   -1.4247    2.7608   -1.9890 H   0  0  0  0  0  0  0  0  0  0  0  0
   -3.1339    2.2481   -2.4146 H   0  0  0  0  0  0  0  0  0  0  0  0
   -1.8227    2.6331    1.4234 H   0  0  0  0  0  0  0  0  0  0  0  0
   -1.1103    3.2304   -0.0923 H   0  0  0  0  0  0  0  0  0  0  0  0
   -2.7856    3.7050    0.2697 H   0  0  0  0  0  0  0  0  0  0  0  0
   -0.6772   -0.7650    1.1328 H   0  0  0  0  0  0  0  0  0  0  0  0
   -0.6487    0.9682    1.4951 H   0  0  0  0  0  0  0  0  0  0  0  0
    0.2334   -0.3238   -1.1193 H   0  0  0  0  0  0  0  0  0  0  0  0
    0.3528    1.4227   -0.7710 H   0  0  0  0  0  0  0  0  0  0  0  0
    1.7574    0.8143    1.3088 H   0  0  0  0  0  0  0  0  0  0  0  0
    1.6917   -0.8900    0.7889 H   0  0  0  0  0  0  0  0  0  0  0  0
    4.7750    0.6663   -2.0555 H   0  0  0  0  0  0  0  0  0  0  0  0
    7.1713    0.3438   -1.3742 H   0  0  0  0  0  0  0  0  0  0  0  0
    5.8570   -0.6567    2.5315 H   0  0  0  0  0  0  0  0  0  0  0  0
    3.5084   -0.3483    1.8815 H   0  0  0  0  0  0  0  0  0  0  0  0
    7.8103    0.2434    3.0072 H   0  0  0  0  0  0  0  0  0  0  0  0
   10.1480   -0.0330    3.6165 H   0  0  0  0  0  0  0  0  0  0  0  0
   11.0842   -1.2649   -0.3080 H   0  0  0  0  0  0  0  0  0  0  0  0
    8.6723   -0.9781   -0.9378 H   0  0  0  0  0  0  0  0  0  0  0  0
   -5.1548   -0.4869   -2.8689 H   0  0  0  0  0  0  0  0  0  0  0  0
   -7.3618   -1.5747   -3.3991 H   0  0  0  0  0  0  0  0  0  0  0  0
   -6.1571   -0.5385    1.2197 H   0  0  0  0  0  0  0  0  0  0  0  0
  1  2  1  0
  2  3  1  0
  2  4  1  0
  4  5  1  0
  5  6  1  0
  6  7  1  0
  7  8  1  0
  8  9  1  0
  9 10  2  0
 10 11  1  0
 11 12  2  0
 12 13  1  0
 13 14  2  0
 12 15  1  0
 15 16  2  0
 16 17  1  0
 17 18  2  0
 18 19  1  0
 19 20  2  0
  4 21  1  0
 21 22  2  0
 21 23  1  0
 23 24  1  0
 24 25  2  0
 23 26  1  0
 26 27  2  0
 27 28  1  0
 28 29  2  0
 29 30  1  0
 30 31  3  0
 29 32  1  0
 32 33  2  0
 32 34  1  0
 34 35  1  0
 34 36  1  0
 34 37  1  0
 24  2  1  0
 33 26  1  0
 14  9  1  0
 20 15  1  0
  1 38  1  0
  1 39  1  0
  1 40  1  0
  3 41  1  0
  3 42  1  0
  3 43  1  0
  5 44  1  0
  5 45  1  0
  6 46  1  0
  6 47  1  0
  7 48  1  0
  7 49  1  0
 10 50  1  0
 11 51  1  0
 13 52  1  0
 14 53  1  0
 16 54  1  0
 17 55  1  0
 19 56  1  0
 20 57  1  0
 27 58  1  0
 28 59  1  0
 33 60  1  0
M  END
$$$$
[H]OC([H])([H])C(=O)[C@@]1([H])C([H])([H])C([H])([H])[C@]2(O[H])C([H])([H])[C@@]3([H])[C@]4([H])C([H])([H])C([H])([H])C([H])([H])[C@]([H])(O[H])C([H])([H])[C@]4(C([H])([H])[H])[C@@]3(C([H])([H])[H])[C@@]([H])(O[H])C([H])([H])[C@]2(C([H])([H])[H])[C@]([H])(C([H])([H])C([H])([H])[H])C1([H])[H]
     RDKit          3D

 75 78  0  0  0  0  0  0  0  0999 V2000
    3.8599   -3.1886   -0.3833 C   0  0  0  0  0  0  0  0  0  0  0  0
    2.5928   -2.3194   -0.2247 C   0  0  0  0  0  0  0  0  0  0  0  0
    2.6791   -1.0581   -0.9870 C   0  0  2  0  0  0  0  0  0  0  0  0
    3.8506   -0.2423   -0.5062 C   0  0  0  0  0  0  0  0  0  0  0  0
    3.8839    0.0098    0.9675 C   0  0  2  0  0  0  0  0  0  0  0  0
    2.5901    0.6158    1.4020 C   0  0  0  0  0  0  0  0  0  0  0  0
    2.1492    1.5015    0.3172 C   0  0  0  0  0  0  0  0  0  0  0  0
    1.1287    0.9597   -0.6517 C   0  0  2  0  0  0  0  0  0  0  0  0
    1.2799    1.9881   -1.6563 O   0  0  0  0  0  0  0  0  0  0  0  0
   -0.2270    1.1739   -0.1394 C   0  0  0  0  0  0  0  0  0  0  0  0
   -1.1007    0.1477    0.4041 C   0  0  1  0  0  0  0  0  0  0  0  0
   -2.4895    0.7746    0.6720 C   0  0  2  0  0  0  0  0  0  0  0  0
   -2.9802    0.5122    2.0494 C   0  0  0  0  0  0  0  0  0  0  0  0
   -4.2284    1.2941    2.3120 C   0  0  0  0  0  0  0  0  0  0  0  0
   -5.0427    1.5314    1.0626 C   0  0  0  0  0  0  0  0  0  0  0  0
   -5.4647    0.2607    0.3995 C   0  0  2  0  0  0  0  0  0  0  0  0
   -6.3095   -0.4073    1.3200 O   0  0  0  0  0  0  0  0  0  0  0  0
   -4.3603   -0.6805    0.0697 C   0  0  0  0  0  0  0  0  0  0  0  0
   -3.0987    0.0243   -0.4435 C   0  0  1  0  0  0  0  0  0  0  0  0
   -3.5058    0.7502   -1.6885 C   0  0  0  0  0  0  0  0  0  0  0  0
   -1.8759   -0.7509   -0.5099 C   0  0  2  0  0  0  0  0  0  0  0  0
   -2.0114   -2.1632    0.0620 C   0  0  0  0  0  0  0  0  0  0  0  0
   -1.0115   -0.8514   -1.7405 C   0  0  1  0  0  0  0  0  0  0  0  0
   -1.0596    0.1879   -2.5880 O   0  0  0  0  0  0  0  0  0  0  0  0
    0.3055   -1.3175   -1.2346 C   0  0  0  0  0  0  0  0  0  0  0  0
    1.4592   -0.3039   -1.3668 C   0  0  2  0  0  0  0  0  0  0  0  0
    1.5341   -0.1062   -2.8985 C   0  0  0  0  0  0  0  0  0  0  0  0
    4.9700    1.0174    1.2020 C   0  0  0  0  0  0  0  0  0  0  0  0
    5.5876    1.4288    0.2373 O   0  0  0  0  0  0  0  0  0  0  0  0
    5.3466    1.5468    2.5098 C   0  0  0  0  0  0  0  0  0  0  0  0
    6.3898    2.4538    2.3596 O   0  0  0  0  0  0  0  0  0  0  0  0
    4.6910   -2.7878    0.2296 H   0  0  0  0  0  0  0  0  0  0  0  0
    3.6604   -4.2362   -0.1833 H   0  0  0  0  0  0  0  0  0  0  0  0
    4.1684   -3.0153   -1.4559 H   0  0  0  0  0  0  0  0  0  0  0  0
    1.7802   -3.0022   -0.3517 H   0  0  0  0  0  0  0  0  0  0  0  0
    2.6268   -2.0818    0.8629 H   0  0  0  0  0  0  0  0  0  0  0  0
    3.1112   -1.4759   -1.9668 H   0  0  0  0  0  0  0  0  0  0  0  0
    4.8193   -0.8276   -0.6754 H   0  0  0  0  0  0  0  0  0  0  0  0
    3.9877    0.6246   -1.1514 H   0  0  0  0  0  0  0  0  0  0  0  0
    4.1905   -0.8663    1.5641 H   0  0  0  0  0  0  0  0  0  0  0  0
    2.8506    1.2457    2.3120 H   0  0  0  0  0  0  0  0  0  0  0  0
    1.8293   -0.0651    1.8065 H   0  0  0  0  0  0  0  0  0  0  0  0
    3.0143    2.0233   -0.1212 H   0  0  0  0  0  0  0  0  0  0  0  0
    1.6071    2.3695    0.8207 H   0  0  0  0  0  0  0  0  0  0  0  0
    0.9005    2.8138   -1.2623 H   0  0  0  0  0  0  0  0  0  0  0  0
   -0.1408    1.8940    0.7508 H   0  0  0  0  0  0  0  0  0  0  0  0
   -0.8557    1.8473   -0.8100 H   0  0  0  0  0  0  0  0  0  0  0  0
   -0.7326   -0.3596    1.3190 H   0  0  0  0  0  0  0  0  0  0  0  0
   -2.5415    1.8713    0.4739 H   0  0  0  0  0  0  0  0  0  0  0  0
   -2.1961    0.9377    2.7488 H   0  0  0  0  0  0  0  0  0  0  0  0
   -3.1039   -0.5159    2.3498 H   0  0  0  0  0  0  0  0  0  0  0  0
   -4.9087    0.8021    3.0433 H   0  0  0  0  0  0  0  0  0  0  0  0
   -3.9946    2.2935    2.7333 H   0  0  0  0  0  0  0  0  0  0  0  0
   -5.9926    2.0346    1.4162 H   0  0  0  0  0  0  0  0  0  0  0  0
   -4.5433    2.2591    0.4241 H   0  0  0  0  0  0  0  0  0  0  0  0
   -6.1286    0.5187   -0.4485 H   0  0  0  0  0  0  0  0  0  0  0  0
   -6.5838   -1.2877    0.9635 H   0  0  0  0  0  0  0  0  0  0  0  0
   -4.1706   -1.3935    0.8631 H   0  0  0  0  0  0  0  0  0  0  0  0
   -4.7089   -1.2902   -0.8184 H   0  0  0  0  0  0  0  0  0  0  0  0
   -4.5897    1.0739   -1.6576 H   0  0  0  0  0  0  0  0  0  0  0  0
   -3.5095   -0.0241   -2.5149 H   0  0  0  0  0  0  0  0  0  0  0  0
   -2.9449    1.6377   -1.9445 H   0  0  0  0  0  0  0  0  0  0  0  0
   -1.2697   -2.8751   -0.3586 H   0  0  0  0  0  0  0  0  0  0  0  0
   -1.8763   -2.1892    1.1503 H   0  0  0  0  0  0  0  0  0  0  0  0
   -2.9994   -2.6097   -0.2616 H   0  0  0  0  0  0  0  0  0  0  0  0
   -1.4555   -1.7333   -2.3066 H   0  0  0  0  0  0  0  0  0  0  0  0
   -1.2868   -0.0250   -3.5331 H   0  0  0  0  0  0  0  0  0  0  0  0
    0.6862   -2.1990   -1.8381 H   0  0  0  0  0  0  0  0  0  0  0  0
    0.3124   -1.6231   -0.1962 H   0  0  0  0  0  0  0  0  0  0  0  0
    1.1905    0.8294   -3.2778 H   0  0  0  0  0  0  0  0  0  0  0  0
    1.0617   -0.9202   -3.4632 H   0  0  0  0  0  0  0  0  0  0  0  0
    2.6237   -0.1623   -3.2174 H   0  0  0  0  0  0  0  0  0  0  0  0
    5.7628    0.7012    3.1163 H   0  0  0  0  0  0  0  0  0  0  0  0
    4.5512    2.0798    3.0548 H   0  0  0  0  0  0  0  0  0  0  0  0
    6.2664    2.9194    1.4839 H   0  0  0  0  0  0  0  0  0  0  0  0
  1  2  1  0
  2  3  1  0
  3  4  1  0
  4  5  1  0
  5  6  1  0
  6  7  1  0
  7  8  1  0
  8  9  1  6
  8 10  1  0
 10 11  1  0
 11 12  1  0
 12 13  1  0
 13 14  1  0
 14 15  1  0
 15 16  1  0
 16 17  1  0
 16 18  1  0
 18 19  1  0
 19 20  1  6
 19 21  1  0
 21 22  1  1
 21 23  1  0
 23 24  1  0
 23 25  1  0
 25 26  1  0
 26 27  1  6
  5 28  1  0
 28 29  2  0
 28 30  1  0
 30 31  1  0
 26  3  1  0
 26  8  1  0
 21 11  1  0
 19 12  1  0
  1 32  1  0
  1 33  1  0
  1 34  1  0
  2 35  1  0
  2 36  1  0
  3 37  1  6
  4 38  1  0
  4 39  1  0
  5 40  1  1
  6 41  1  0
  6 42  1  0
  7 43  1  0
  7 44  1  0
  9 45  1  0
 10 46  1  0
 10 47  1  0
 11 48  1  1
 12 49  1  6
 13 50  1  0
 13 51  1  0
 14 52  1  0
 14 53  1  0
 15 54  1  0
 15 55  1  0
 16 56  1  6
 17 57  1  0
 18 58  1  0
 18 59  1  0
 20 60  1  0
 20 61  1  0
 20 62  1  0
 22 63  1  0
 22 64  1  0
 22 65  1  0
 23 66  1  6
 24 67  1  0
 25 68  1  0
 25 69  1  0
 27 70  1  0
 27 71  1  0
 27 72  1  0
 30 73  1  0
 30 74  1  0
 31 75  1  0
M  END
$$$$
[H]c1c([H])c([H])c2c(c1[H])c1c3c(c4c5c([H])c([H])c([H])c([H])c5n5c4c1n2[C@@]1(C([H])([H])[H])O[C@]5([H])C([H])([H])[C@@]([H])(N([H])C([H])([H])[H])[C@@]1([H])OC([H])([H])[H])C(=O)N([H])C3([H])[H]
     RDKit          3D

 61 68  0  0  0  0  0  0  0  0999 V2000
   -3.3415   -2.0929    0.8927 C   0  0  0  0  0  0  0  0  0  0  0  0
   -2.7520   -0.8244    0.5060 N   0  0  0  0  0  0  0  0  0  0  0  0
   -2.5947   -0.7699   -0.9652 C   0  0  2  0  0  0  0  0  0  0  0  0
   -1.6635   -1.8336   -1.3456 C   0  0  0  0  0  0  0  0  0  0  0  0
   -0.4098   -1.3263   -1.9401 C   0  0  1  0  0  0  0  0  0  0  0  0
   -0.2904   -0.0961   -2.3609 O   0  0  0  0  0  0  0  0  0  0  0  0
   -0.9141    0.9817   -1.7381 C   0  0  1  0  0  0  0  0  0  0  0  0
   -0.8729    2.0231   -2.8643 C   0  0  0  0  0  0  0  0  0  0  0  0
   -2.2914    0.6326   -1.4119 C   0  0  2  0  0  0  0  0  0  0  0  0
   -2.9229    1.4324   -0.4622 O   0  0  0  0  0  0  0  0  0  0  0  0
   -4.0664    2.0564   -0.9455 C   0  0  0  0  0  0  0  0  0  0  0  0
   -0.0747    1.3904   -0.5981 N   0  0  0  0  0  0  0  0  0  0  0  0
    0.0066    2.5943   -0.0347 C   0  0  0  0  0  0  0  0  0  0  0  0
   -0.6403    3.7755   -0.2701 C   0  0  0  0  0  0  0  0  0  0  0  0
   -0.3753    4.9057    0.4704 C   0  0  0  0  0  0  0  0  0  0  0  0
    0.5715    4.8915    1.4994 C   0  0  0  0  0  0  0  0  0  0  0  0
    1.2169    3.7192    1.7374 C   0  0  0  0  0  0  0  0  0  0  0  0
    0.9447    2.6014    0.9941 C   0  0  0  0  0  0  0  0  0  0  0  0
    1.4533    1.3308    1.0530 C   0  0  0  0  0  0  0  0  0  0  0  0
    2.4134    0.7192    1.8621 C   0  0  0  0  0  0  0  0  0  0  0  0
    3.2252    1.2814    2.9656 C   0  0  0  0  0  0  0  0  0  0  0  0
    4.0513    0.2282    3.4563 N   0  0  0  0  0  0  0  0  0  0  0  0
    3.7725   -0.9500    2.6928 C   0  0  0  0  0  0  0  0  0  0  0  0
    4.3602   -2.0093    2.9202 O   0  0  0  0  0  0  0  0  0  0  0  0
    2.7553   -0.6238    1.7110 C   0  0  0  0  0  0  0  0  0  0  0  0
    2.1006   -1.3257    0.7242 C   0  0  0  0  0  0  0  0  0  0  0  0
    2.1422   -2.6347    0.2794 C   0  0  0  0  0  0  0  0  0  0  0  0
    2.8759   -3.7217    0.6638 C   0  0  0  0  0  0  0  0  0  0  0  0
    2.6892   -4.9254    0.0128 C   0  0  0  0  0  0  0  0  0  0  0  0
    1.7808   -5.0386   -1.0084 C   0  0  0  0  0  0  0  0  0  0  0  0
    1.0343   -3.9515   -1.4066 C   0  0  0  0  0  0  0  0  0  0  0  0
    1.2263   -2.7646   -0.7562 C   0  0  0  0  0  0  0  0  0  0  0  0
    0.6469   -1.5975   -0.9447 N   0  0  0  0  0  0  0  0  0  0  0  0
    1.1358   -0.7009   -0.0851 C   0  0  0  0  0  0  0  0  0  0  0  0
    0.8119    0.6350    0.0794 C   0  0  0  0  0  0  0  0  0  0  0  0
   -3.9345   -1.8764    1.8249 H   0  0  0  0  0  0  0  0  0  0  0  0
   -2.5804   -2.8202    1.1896 H   0  0  0  0  0  0  0  0  0  0  0  0
   -4.0376   -2.4413    0.1071 H   0  0  0  0  0  0  0  0  0  0  0  0
   -1.8252   -0.7857    0.9817 H   0  0  0  0  0  0  0  0  0  0  0  0
   -3.6418   -1.0758   -1.3069 H   0  0  0  0  0  0  0  0  0  0  0  0
   -1.4743   -2.5407   -0.4944 H   0  0  0  0  0  0  0  0  0  0  0  0
   -2.1827   -2.5069   -2.1019 H   0  0  0  0  0  0  0  0  0  0  0  0
   -0.1764   -2.0147   -2.8352 H   0  0  0  0  0  0  0  0  0  0  0  0
   -1.8561    2.5173   -2.9808 H   0  0  0  0  0  0  0  0  0  0  0  0
   -0.0367    2.7359   -2.7018 H   0  0  0  0  0  0  0  0  0  0  0  0
   -0.6761    1.5932   -3.8662 H   0  0  0  0  0  0  0  0  0  0  0  0
   -2.9127    0.7625   -2.3525 H   0  0  0  0  0  0  0  0  0  0  0  0
   -4.5472    2.6842   -0.1440 H   0  0  0  0  0  0  0  0  0  0  0  0
   -3.8494    2.7776   -1.7563 H   0  0  0  0  0  0  0  0  0  0  0  0
   -4.7942    1.3294   -1.3803 H   0  0  0  0  0  0  0  0  0  0  0  0
   -1.3647    3.8112   -1.0348 H   0  0  0  0  0  0  0  0  0  0  0  0
   -0.8845    5.8355    0.2847 H   0  0  0  0  0  0  0  0  0  0  0  0
    0.7949    5.7654    2.0918 H   0  0  0  0  0  0  0  0  0  0  0  0
    1.9682    3.6487    2.5304 H   0  0  0  0  0  0  0  0  0  0  0  0
    3.8868    2.0907    2.5395 H   0  0  0  0  0  0  0  0  0  0  0  0
    2.5967    1.6993    3.7873 H   0  0  0  0  0  0  0  0  0  0  0  0
    4.7363    0.3270    4.2421 H   0  0  0  0  0  0  0  0  0  0  0  0
    3.5871   -3.7061    1.4353 H   0  0  0  0  0  0  0  0  0  0  0  0
    3.2659   -5.8106    0.3031 H   0  0  0  0  0  0  0  0  0  0  0  0
    1.6292   -5.9934   -1.5280 H   0  0  0  0  0  0  0  0  0  0  0  0
    0.3048   -4.0175   -2.2172 H   0  0  0  0  0  0  0  0  0  0  0  0
  1  2  1  0
  2  3  1  0
  3  4  1  0
  4  5  1  0
  5  6  1  0
  6  7  1  0
  7  8  1  6
  7  9  1  0
  9 10  1  0
 10 11  1  0
  7 12  1  0
 12 13  1  0
 13 14  2  0
 14 15  1  0
 15 16  2  0
 16 17  1  0
 17 18  2  0
 18 19  1  0
 19 20  2  0
 20 21  1  0
 21 22  1  0
 22 23  1  0
 23 24  2  0
 23 25  1  0
 25 26  2  0
 26 27  1  0
 27 28  2  0
 28 29  1  0
 29 30  2  0
 30 31  1  0
 31 32  2  0
 32 33  1  0
 33 34  1  0
 34 35  2  0
  9  3  1  0
 35 12  1  0
 33  5  1  0
 18 13  1  0
 35 19  1  0
 25 20  1  0
 34 26  1  0
 32 27  1  0
  1 36  1  0
  1 37  1  0
  1 38  1  0
  2 39  1  0
  3 40  1  6
  4 41  1  0
  4 42  1  0
  5 43  1  6
  8 44  1  0
  8 45  1  0
  8 46  1  0
  9 47  1  6
 11 48  1  0
 11 49  1  0
 11 50  1  0
 14 51  1  0
 15 52  1  0
 16 53  1  0
 17 54  1  0
 21 55  1  0
 21 56  1  0
 22 57  1  0
 28 58  1  0
 29 59  1  0
 30 60  1  0
 31 61  1  0
M  END
$$$$
[H]O[C@@]1([H])[C@@]([H])(n2c(=O)n([H])c3c4c([H])c([H])c([H])c([H])c4n(C([H])([H])[H])c(=O)c32)C([H])([H])[C@]([H])(/C([H])=C(\[H])c2c([H])c([H])c([H])c([H])c2[H])[C@@]([H])(O[H])[C@@]1([H])O[H]
     RDKit          3D

 58 62  0  0  0  0  0  0  0  0999 V2000
    5.2080    0.8702    0.3513 C   0  0  0  0  0  0  0  0  0  0  0  0
    3.8303    0.4614    0.0955 C   0  0  0  0  0  0  0  0  0  0  0  0
    3.4362   -0.7935    0.0358 C   0  0  0  0  0  0  0  0  0  0  0  0
    2.0768   -1.2224   -0.2166 C   0  0  2  0  0  0  0  0  0  0  0  0
    2.0794   -2.0556   -1.5097 C   0  0  1  0  0  0  0  0  0  0  0  0
    3.1598   -2.9383   -1.5272 O   0  0  0  0  0  0  0  0  0  0  0  0
    0.8202   -2.8612   -1.4219 C   0  0  1  0  0  0  0  0  0  0  0  0
    1.0940   -3.9064   -0.5066 O   0  0  0  0  0  0  0  0  0  0  0  0
   -0.4086   -2.1234   -1.0639 C   0  0  1  0  0  0  0  0  0  0  0  0
   -0.9713   -2.7511    0.0556 O   0  0  0  0  0  0  0  0  0  0  0  0
   -0.2800   -0.6414   -0.8434 C   0  0  1  0  0  0  0  0  0  0  0  0
   -1.3606   -0.2537    0.0598 N   0  0  0  0  0  0  0  0  0  0  0  0
   -2.5840    0.2604   -0.2315 C   0  0  0  0  0  0  0  0  0  0  0  0
   -3.2589    0.4672    0.9817 C   0  0  0  0  0  0  0  0  0  0  0  0
   -4.5418    0.9875    0.9715 C   0  0  0  0  0  0  0  0  0  0  0  0
   -5.1131    1.2858   -0.2467 C   0  0  0  0  0  0  0  0  0  0  0  0
   -6.3904    1.8048   -0.2716 C   0  0  0  0  0  0  0  0  0  0  0  0
   -7.0492    2.0060    0.9257 C   0  0  0  0  0  0  0  0  0  0  0  0
   -6.4842    1.7098    2.1530 C   0  0  0  0  0  0  0  0  0  0  0  0
   -5.1916    1.1850    2.1714 C   0  0  0  0  0  0  0  0  0  0  0  0
   -4.4496    1.0793   -1.3867 N   0  0  0  0  0  0  0  0  0  0  0  0
   -5.0793    1.4031   -2.6412 C   0  0  0  0  0  0  0  0  0  0  0  0
   -3.1988    0.5744   -1.4236 C   0  0  0  0  0  0  0  0  0  0  0  0
   -2.5977    0.3887   -2.4984 O   0  0  0  0  0  0  0  0  0  0  0  0
   -2.4539    0.0830    1.9785 N   0  0  0  0  0  0  0  0  0  0  0  0
   -1.3198   -0.3477    1.4230 C   0  0  0  0  0  0  0  0  0  0  0  0
   -0.3319   -0.7880    2.0711 O   0  0  0  0  0  0  0  0  0  0  0  0
    1.0665   -0.1672   -0.4266 C   0  0  0  0  0  0  0  0  0  0  0  0
    6.2483   -0.0024    0.5585 C   0  0  0  0  0  0  0  0  0  0  0  0
    7.5487    0.4550    0.7991 C   0  0  0  0  0  0  0  0  0  0  0  0
    7.8334    1.7884    0.8371 C   0  0  0  0  0  0  0  0  0  0  0  0
    6.8088    2.6774    0.6327 C   0  0  0  0  0  0  0  0  0  0  0  0
    5.5287    2.2316    0.3958 C   0  0  0  0  0  0  0  0  0  0  0  0
    3.0400    1.1998   -0.0610 H   0  0  0  0  0  0  0  0  0  0  0  0
    4.1724   -1.5964    0.1847 H   0  0  0  0  0  0  0  0  0  0  0  0
    1.8220   -1.9668    0.5775 H   0  0  0  0  0  0  0  0  0  0  0  0
    2.0775   -1.3975   -2.3929 H   0  0  0  0  0  0  0  0  0  0  0  0
    3.3331   -3.3047   -0.6348 H   0  0  0  0  0  0  0  0  0  0  0  0
    0.7433   -3.4061   -2.4108 H   0  0  0  0  0  0  0  0  0  0  0  0
    1.6758   -4.5895   -0.8918 H   0  0  0  0  0  0  0  0  0  0  0  0
   -1.1609   -2.3400   -1.8854 H   0  0  0  0  0  0  0  0  0  0  0  0
   -1.2344   -3.6715   -0.2602 H   0  0  0  0  0  0  0  0  0  0  0  0
   -0.4828   -0.1793   -1.8245 H   0  0  0  0  0  0  0  0  0  0  0  0
   -6.8588    2.0463   -1.2152 H   0  0  0  0  0  0  0  0  0  0  0  0
   -8.0594    2.4146    0.9399 H   0  0  0  0  0  0  0  0  0  0  0  0
   -6.9789    1.8589    3.0907 H   0  0  0  0  0  0  0  0  0  0  0  0
   -4.7461    0.9527    3.1170 H   0  0  0  0  0  0  0  0  0  0  0  0
   -5.9510    0.7177   -2.7821 H   0  0  0  0  0  0  0  0  0  0  0  0
   -4.4024    1.2937   -3.5016 H   0  0  0  0  0  0  0  0  0  0  0  0
   -5.4363    2.4620   -2.6454 H   0  0  0  0  0  0  0  0  0  0  0  0
   -2.6845    0.1201    2.9863 H   0  0  0  0  0  0  0  0  0  0  0  0
    0.9779    0.4578    0.4757 H   0  0  0  0  0  0  0  0  0  0  0  0
    1.5062    0.5387   -1.1980 H   0  0  0  0  0  0  0  0  0  0  0  0
    6.0715   -1.0564    0.5375 H   0  0  0  0  0  0  0  0  0  0  0  0
    8.3636   -0.2357    0.9615 H   0  0  0  0  0  0  0  0  0  0  0  0
    8.8315    2.1668    1.0215 H   0  0  0  0  0  0  0  0  0  0  0  0
    7.0032    3.7312    0.6570 H   0  0  0  0  0  0  0  0  0  0  0  0
    4.7030    2.9170    0.2314 H   0  0  0  0  0  0  0  0  0  0  0  0
  1  2  1  0
  2  3  2  0
  3  4  1  0
  4  5  1  0
  5  6  1  0
  5  7  1  0
  7  8  1  0
  7  9  1  0
  9 10  1  0
  9 11  1  0
 11 12  1  0
 12 13  1  0
 13 14  2  0
 14 15  1  0
 15 16  1  0
 16 17  2  0
 17 18  1  0
 18 19  2  0
 19 20  1  0
 16 21  1  0
 21 22  1  0
 21 23  1  0
 23 24  2  0
 14 25  1  0
 25 26  1  0
 26 27  2  0
 11 28  1  0
  1 29  2  0
 29 30  1  0
 30 31  2  0
 31 32  1  0
 32 33  2  0
 33  1  1  0
 28  4  1  0
 26 12  1  0
 23 13  1  0
 20 15  2  0
  2 34  1  0
  3 35  1  0
  4 36  1  1
  5 37  1  6
  6 38  1  0
  7 39  1  6
  8 40  1  0
  9 41  1  6
 10 42  1  0
 11 43  1  6
 17 44  1  0
 18 45  1  0
 19 46  1  0
 20 47  1  0
 22 48  1  0
 22 49  1  0
 22 50  1  0
 25 51  1  0
 28 52  1  0
 28 53  1  0
 29 54  1  0
 30 55  1  0
 31 56  1  0
 32 57  1  0
 33 58  1  0
M  END
$$$$
[H]OC(=O)c1c(C2(N([H])C(=O)c3c([H])c([H])c(Br)c([H])c3O[H])C([H])([H])C([H])([H])N(C(=O)c3nc([H])c([H])c([H])c3C([H])([H])[H])C([H])([H])C2([H])[H])sc2c([H])c([H])c([H])c([H])c12
     RDKit          3D

 62 66  0  0  0  0  0  0  0  0999 V2000
   -1.1419    7.8334   -1.8502 Br  0  0  0  0  0  0  0  0  0  0  0  0
   -1.2150    6.0033   -1.3378 C   0  0  0  0  0  0  0  0  0  0  0  0
   -2.1428    5.6246   -0.3929 C   0  0  0  0  0  0  0  0  0  0  0  0
   -2.1842    4.3238   -0.0365 C   0  0  0  0  0  0  0  0  0  0  0  0
   -1.3508    3.3030   -0.5520 C   0  0  0  0  0  0  0  0  0  0  0  0
   -1.5179    1.9462   -0.0574 C   0  0  0  0  0  0  0  0  0  0  0  0
   -2.4259    1.8083    0.8059 O   0  0  0  0  0  0  0  0  0  0  0  0
   -0.7826    0.8773   -0.4571 N   0  0  0  0  0  0  0  0  0  0  0  0
   -0.8634   -0.5526   -0.0302 C   0  0  0  0  0  0  0  0  0  0  0  0
    0.2816   -1.1802   -0.7921 C   0  0  0  0  0  0  0  0  0  0  0  0
    1.5722   -1.3534   -0.0726 C   0  0  0  0  0  0  0  0  0  0  0  0
    1.8414   -0.4071    0.9435 N   0  0  0  0  0  0  0  0  0  0  0  0
    3.1513   -0.1330    1.4766 C   0  0  0  0  0  0  0  0  0  0  0  0
    3.1683    0.8049    2.3680 O   0  0  0  0  0  0  0  0  0  0  0  0
    4.3697   -0.7747    1.1256 C   0  0  0  0  0  0  0  0  0  0  0  0
    4.4264   -1.7656    0.2369 N   0  0  0  0  0  0  0  0  0  0  0  0
    5.5210   -2.4098   -0.1458 C   0  0  0  0  0  0  0  0  0  0  0  0
    6.7347   -2.0647    0.3912 C   0  0  0  0  0  0  0  0  0  0  0  0
    6.7496   -1.0515    1.3131 C   0  0  0  0  0  0  0  0  0  0  0  0
    5.5795   -0.3950    1.6929 C   0  0  0  0  0  0  0  0  0  0  0  0
    5.6784    0.6833    2.6771 C   0  0  0  0  0  0  0  0  0  0  0  0
    0.7519    0.3462    1.5674 C   0  0  0  0  0  0  0  0  0  0  0  0
   -0.5684   -0.4407    1.4298 C   0  0  0  0  0  0  0  0  0  0  0  0
   -2.1996   -1.0751   -0.3620 C   0  0  0  0  0  0  0  0  0  0  0  0
   -3.4059   -0.0895   -1.1659 S   0  0  0  0  0  0  0  0  0  0  0  0
   -4.6526   -1.2018   -1.2816 C   0  0  0  0  0  0  0  0  0  0  0  0
   -5.9415   -1.0775   -1.8243 C   0  0  0  0  0  0  0  0  0  0  0  0
   -6.7979   -2.1503   -1.7960 C   0  0  0  0  0  0  0  0  0  0  0  0
   -6.3255   -3.2925   -1.2279 C   0  0  0  0  0  0  0  0  0  0  0  0
   -5.0753   -3.4015   -0.7056 C   0  0  0  0  0  0  0  0  0  0  0  0
   -4.1525   -2.3265   -0.7093 C   0  0  0  0  0  0  0  0  0  0  0  0
   -2.8575   -2.2472   -0.2289 C   0  0  0  0  0  0  0  0  0  0  0  0
   -2.2286   -3.4515    0.3619 C   0  0  0  0  0  0  0  0  0  0  0  0
   -0.9451   -3.5535    0.8199 O   0  0  0  0  0  0  0  0  0  0  0  0
   -2.8666   -4.5392    0.4937 O   0  0  0  0  0  0  0  0  0  0  0  0
   -0.4443    3.7230   -1.4876 C   0  0  0  0  0  0  0  0  0  0  0  0
    0.4257    2.8384   -2.0710 O   0  0  0  0  0  0  0  0  0  0  0  0
   -0.3746    5.0645   -1.8804 C   0  0  0  0  0  0  0  0  0  0  0  0
   -2.8063    6.3641    0.0361 H   0  0  0  0  0  0  0  0  0  0  0  0
   -2.9261    4.0400    0.7152 H   0  0  0  0  0  0  0  0  0  0  0  0
   -0.0330    1.0032   -1.1664 H   0  0  0  0  0  0  0  0  0  0  0  0
   -0.0253   -2.0997   -1.3618 H   0  0  0  0  0  0  0  0  0  0  0  0
    0.5466   -0.5064   -1.6937 H   0  0  0  0  0  0  0  0  0  0  0  0
    2.3723   -1.2778   -0.8773 H   0  0  0  0  0  0  0  0  0  0  0  0
    1.6616   -2.3648    0.4136 H   0  0  0  0  0  0  0  0  0  0  0  0
    5.4924   -3.2082   -0.8759 H   0  0  0  0  0  0  0  0  0  0  0  0
    7.6328   -2.5932    0.0777 H   0  0  0  0  0  0  0  0  0  0  0  0
    7.6869   -0.7539    1.7551 H   0  0  0  0  0  0  0  0  0  0  0  0
    6.7690    0.8275    2.9644 H   0  0  0  0  0  0  0  0  0  0  0  0
    5.1873    0.4517    3.6458 H   0  0  0  0  0  0  0  0  0  0  0  0
    5.4088    1.6976    2.2797 H   0  0  0  0  0  0  0  0  0  0  0  0
    0.6807    1.3750    1.2416 H   0  0  0  0  0  0  0  0  0  0  0  0
    0.9626    0.3524    2.6556 H   0  0  0  0  0  0  0  0  0  0  0  0
   -1.3188    0.2142    1.9095 H   0  0  0  0  0  0  0  0  0  0  0  0
   -0.5341   -1.3352    2.0334 H   0  0  0  0  0  0  0  0  0  0  0  0
   -6.2076   -0.1226   -2.2474 H   0  0  0  0  0  0  0  0  0  0  0  0
   -7.7669   -2.0284   -2.2137 H   0  0  0  0  0  0  0  0  0  0  0  0
   -6.9724   -4.1769   -1.1812 H   0  0  0  0  0  0  0  0  0  0  0  0
   -4.8420   -4.3696   -0.2868 H   0  0  0  0  0  0  0  0  0  0  0  0
   -0.2409   -4.0842    0.3140 H   0  0  0  0  0  0  0  0  0  0  0  0
    1.1188    3.0108   -2.7517 H   0  0  0  0  0  0  0  0  0  0  0  0
    0.3620    5.3384   -2.6244 H   0  0  0  0  0  0  0  0  0  0  0  0
  1  2  1  0
  2  3  2  0
  3  4  1  0
  4  5  2  0
  5  6  1  0
  6  7  2  0
  6  8  1  0
  8  9  1  0
  9 10  1  0
 10 11  1  0
 11 12  1  0
 12 13  1  0
 13 14  2  0
 13 15  1  0
 15 16  2  0
 16 17  1  0
 17 18  2  0
 18 19  1  0
 19 20  2  0
 20 21  1  0
 12 22  1  0
 22 23  1  0
  9 24  1  0
 24 25  1  0
 25 26  1  0
 26 27  2  0
 27 28  1  0
 28 29  2  0
 29 30  1  0
 30 31  2  0
 31 32  1  0
 32 33  1  0
 33 34  1  0
 33 35  2  0
  5 36  1  0
 36 37  1  0
 36 38  2  0
 38  2  1  0
 23  9  1  0
 32 24  2  0
 20 15  1  0
 31 26  1  0
  3 39  1  0
  4 40  1  0
  8 41  1  0
 10 42  1  0
 10 43  1  0
 11 44  1  0
 11 45  1  0
 17 46  1  0
 18 47  1  0
 19 48  1  0
 21 49  1  0
 21 50  1  0
 21 51  1  0
 22 52  1  0
 22 53  1  0
 23 54  1  0
 23 55  1  0
 27 56  1  0
 28 57  1  0
 29 58  1  0
 30 59  1  0
 34 60  1  0
 37 61  1  0
 38 62  1  0
M  END
$$$$
[H]c1nc(N([H])c2c([H])nc3c([H])c(OC([H])([H])[H])c(OC([H])([H])[H])c([H])c3c2N([H])c2c([H])c([H])c(C([H])([H])N3C([H])([H])C([H])([H])N(C([H])([H])[H])C([H])([H])C3([H])[H])c([H])c2[H])sc1[H]
     RDKit          3D

 65 69  0  0  0  0  0  0  0  0999 V2000
   -8.0289   -1.7315   -1.8029 C   0  0  0  0  0  0  0  0  0  0  0  0
   -6.7316   -2.2268   -1.6916 O   0  0  0  0  0  0  0  0  0  0  0  0
   -5.7332   -1.6978   -0.9159 C   0  0  0  0  0  0  0  0  0  0  0  0
   -5.9669   -0.5759   -0.1539 C   0  0  0  0  0  0  0  0  0  0  0  0
   -4.9204   -0.0940    0.6044 C   0  0  0  0  0  0  0  0  0  0  0  0
   -5.1255    0.9926    1.3506 N   0  0  0  0  0  0  0  0  0  0  0  0
   -4.1234    1.5044    2.1152 C   0  0  0  0  0  0  0  0  0  0  0  0
   -2.8949    0.9231    2.1367 C   0  0  0  0  0  0  0  0  0  0  0  0
   -1.8404    1.4103    2.9027 N   0  0  0  0  0  0  0  0  0  0  0  0
   -1.9116    2.5545    3.7420 C   0  0  0  0  0  0  0  0  0  0  0  0
   -0.8478    2.9819    4.4669 N   0  0  0  0  0  0  0  0  0  0  0  0
   -0.9554    4.0183    5.2108 C   0  0  0  0  0  0  0  0  0  0  0  0
   -2.1625    4.6733    5.2510 C   0  0  0  0  0  0  0  0  0  0  0  0
   -3.0671    3.7084    4.1793 S   0  0  0  0  0  0  0  0  0  0  0  0
   -2.6342   -0.2234    1.3660 C   0  0  0  0  0  0  0  0  0  0  0  0
   -1.3543   -0.7882    1.4213 N   0  0  0  0  0  0  0  0  0  0  0  0
   -0.2836   -0.4180    0.5446 C   0  0  0  0  0  0  0  0  0  0  0  0
    0.9515   -1.0166    0.6502 C   0  0  0  0  0  0  0  0  0  0  0  0
    2.0018   -0.6615   -0.2006 C   0  0  0  0  0  0  0  0  0  0  0  0
    1.8494    0.2982   -1.1775 C   0  0  0  0  0  0  0  0  0  0  0  0
    2.9298    0.7165   -2.1025 C   0  0  0  0  0  0  0  0  0  0  0  0
    4.2310    0.3277   -1.7836 N   0  0  0  0  0  0  0  0  0  0  0  0
    4.8123    0.7626   -0.5828 C   0  0  0  0  0  0  0  0  0  0  0  0
    5.9435   -0.1428   -0.1601 C   0  0  0  0  0  0  0  0  0  0  0  0
    6.9127   -0.3635   -1.2031 N   0  0  0  0  0  0  0  0  0  0  0  0
    8.2516   -0.0139   -0.8395 C   0  0  0  0  0  0  0  0  0  0  0  0
    6.5048    0.2373   -2.4626 C   0  0  0  0  0  0  0  0  0  0  0  0
    5.0763   -0.1295   -2.8049 C   0  0  0  0  0  0  0  0  0  0  0  0
    0.5993    0.8868   -1.2658 C   0  0  0  0  0  0  0  0  0  0  0  0
   -0.4404    0.5403   -0.4292 C   0  0  0  0  0  0  0  0  0  0  0  0
   -3.6705   -0.7073    0.6096 C   0  0  0  0  0  0  0  0  0  0  0  0
   -3.4786   -1.8202   -0.1614 C   0  0  0  0  0  0  0  0  0  0  0  0
   -4.4970   -2.3318   -0.9316 C   0  0  0  0  0  0  0  0  0  0  0  0
   -4.3014   -3.4558   -1.7096 O   0  0  0  0  0  0  0  0  0  0  0  0
   -3.0459   -4.0824   -1.7128 C   0  0  0  0  0  0  0  0  0  0  0  0
   -8.1198   -0.6460   -1.7274 H   0  0  0  0  0  0  0  0  0  0  0  0
   -8.4106   -2.0416   -2.8179 H   0  0  0  0  0  0  0  0  0  0  0  0
   -8.7087   -2.1632   -1.0226 H   0  0  0  0  0  0  0  0  0  0  0  0
   -6.9329   -0.1036   -0.1591 H   0  0  0  0  0  0  0  0  0  0  0  0
   -4.4014    2.3716    2.6677 H   0  0  0  0  0  0  0  0  0  0  0  0
   -0.8817    0.8975    2.8754 H   0  0  0  0  0  0  0  0  0  0  0  0
   -0.0937    4.3958    5.8220 H   0  0  0  0  0  0  0  0  0  0  0  0
   -2.4205    5.5740    5.8352 H   0  0  0  0  0  0  0  0  0  0  0  0
   -1.2047   -1.5290    2.1667 H   0  0  0  0  0  0  0  0  0  0  0  0
    1.1035   -1.7769    1.4105 H   0  0  0  0  0  0  0  0  0  0  0  0
    2.9665   -1.1426   -0.1084 H   0  0  0  0  0  0  0  0  0  0  0  0
    2.6702    0.2792   -3.1118 H   0  0  0  0  0  0  0  0  0  0  0  0
    2.9093    1.8233   -2.2827 H   0  0  0  0  0  0  0  0  0  0  0  0
    4.1492    0.8953    0.2687 H   0  0  0  0  0  0  0  0  0  0  0  0
    5.3003    1.7635   -0.7863 H   0  0  0  0  0  0  0  0  0  0  0  0
    6.5074    0.3547    0.6827 H   0  0  0  0  0  0  0  0  0  0  0  0
    5.5228   -1.0873    0.1902 H   0  0  0  0  0  0  0  0  0  0  0  0
    8.7616   -0.9674   -0.5244 H   0  0  0  0  0  0  0  0  0  0  0  0
    8.3322    0.7147   -0.0279 H   0  0  0  0  0  0  0  0  0  0  0  0
    8.7726    0.3655   -1.7371 H   0  0  0  0  0  0  0  0  0  0  0  0
    7.2169   -0.0705   -3.2444 H   0  0  0  0  0  0  0  0  0  0  0  0
    6.5475    1.3347   -2.3435 H   0  0  0  0  0  0  0  0  0  0  0  0
    5.0308   -1.2175   -3.0103 H   0  0  0  0  0  0  0  0  0  0  0  0
    4.8421    0.4090   -3.7577 H   0  0  0  0  0  0  0  0  0  0  0  0
    0.4515    1.6478   -2.0289 H   0  0  0  0  0  0  0  0  0  0  0  0
   -1.4238    0.9991   -0.4943 H   0  0  0  0  0  0  0  0  0  0  0  0
   -2.5181   -2.3103   -0.1717 H   0  0  0  0  0  0  0  0  0  0  0  0
   -2.7978   -4.5760   -0.7516 H   0  0  0  0  0  0  0  0  0  0  0  0
   -3.0080   -4.8649   -2.5117 H   0  0  0  0  0  0  0  0  0  0  0  0
   -2.2112   -3.3842   -1.9243 H   0  0  0  0  0  0  0  0  0  0  0  0
  1  2  1  0
  2  3  1  0
  3  4  2  0
  4  5  1  0
  5  6  2  0
  6  7  1  0
  7  8  2  0
  8  9  1  0
  9 10  1  0
 10 11  2  0
 11 12  1  0
 12 13  2  0
 13 14  1  0
  8 15  1  0
 15 16  1  0
 16 17  1  0
 17 18  2  0
 18 19  1  0
 19 20  2  0
 20 21  1  0
 21 22  1  0
 22 23  1  0
 23 24  1  0
 24 25  1  0
 25 26  1  0
 25 27  1  0
 27 28  1  0
 20 29  1  0
 29 30  2  0
 15 31  2  0
 31 32  1  0
 32 33  2  0
 33 34  1  0
 34 35  1  0
 33  3  1  0
 31  5  1  0
 14 10  1  0
 30 17  1  0
 28 22  1  0
  1 36  1  0
  1 37  1  0
  1 38  1  0
  4 39  1  0
  7 40  1  0
  9 41  1  0
 12 42  1  0
 13 43  1  0
 16 44  1  0
 18 45  1  0
 19 46  1  0
 21 47  1  0
 21 48  1  0
 23 49  1  0
 23 50  1  0
 24 51  1  0
 24 52  1  0
 26 53  1  0
 26 54  1  0
 26 55  1  0
 27 56  1  0
 27 57  1  0
 28 58  1  0
 28 59  1  0
 29 60  1  0
 30 61  1  0
 32 62  1  0
 35 63  1  0
 35 64  1  0
 35 65  1  0
M  END
$$$$
[H]c1c([H])c(C([H])([H])[H])c(C(F)(F)F)c([H])c1C(=O)N([H])c1c([H])c([H])c(C([H])([H])N2C([H])([H])C([H])([H])N(C([H])([H])[H])C([H])([H])C2([H])[H])c(C(F)(F)F)c1[H]
     RDKit          3D

 55 57  0  0  0  0  0  0  0  0999 V2000
    8.0948   -0.7858    0.2362 C   0  0  0  0  0  0  0  0  0  0  0  0
    6.8975   -0.4089    0.9558 N   0  0  0  0  0  0  0  0  0  0  0  0
    6.5675    0.9598    0.6733 C   0  0  0  0  0  0  0  0  0  0  0  0
    5.1122    1.1214    1.0067 C   0  0  0  0  0  0  0  0  0  0  0  0
    4.2701    0.3592    0.0964 N   0  0  0  0  0  0  0  0  0  0  0  0
    2.9794    0.6186    0.3737 C   0  0  0  0  0  0  0  0  0  0  0  0
    1.7962    0.0444   -0.2435 C   0  0  0  0  0  0  0  0  0  0  0  0
    1.1925   -1.1218    0.1634 C   0  0  0  0  0  0  0  0  0  0  0  0
   -0.1553   -1.3438   -0.1422 C   0  0  0  0  0  0  0  0  0  0  0  0
   -0.8962   -0.3937   -0.8342 C   0  0  0  0  0  0  0  0  0  0  0  0
   -2.3105   -0.5164   -0.8292 N   0  0  0  0  0  0  0  0  0  0  0  0
   -3.2400    0.4662   -0.5853 C   0  0  0  0  0  0  0  0  0  0  0  0
   -2.9312    1.6583   -0.4835 O   0  0  0  0  0  0  0  0  0  0  0  0
   -4.6506    0.0789   -0.3678 C   0  0  0  0  0  0  0  0  0  0  0  0
   -4.9558   -1.2442   -0.1838 C   0  0  0  0  0  0  0  0  0  0  0  0
   -6.2130   -1.7124    0.1900 C   0  0  0  0  0  0  0  0  0  0  0  0
   -7.1971   -0.7999    0.4177 C   0  0  0  0  0  0  0  0  0  0  0  0
   -8.5350   -1.2997    0.8459 C   0  0  0  0  0  0  0  0  0  0  0  0
   -6.9367    0.5315    0.2573 C   0  0  0  0  0  0  0  0  0  0  0  0
   -5.6479    0.9852   -0.1543 C   0  0  0  0  0  0  0  0  0  0  0  0
   -7.9644    1.5619    0.5710 C   0  0  0  0  0  0  0  0  0  0  0  0
   -8.2334    1.5924    1.9276 F   0  0  0  0  0  0  0  0  0  0  0  0
   -9.1650    1.2102   -0.0583 F   0  0  0  0  0  0  0  0  0  0  0  0
   -7.6411    2.8011    0.1431 F   0  0  0  0  0  0  0  0  0  0  0  0
   -0.3151    0.7431   -1.2470 C   0  0  0  0  0  0  0  0  0  0  0  0
    1.0295    0.9480   -0.9629 C   0  0  0  0  0  0  0  0  0  0  0  0
    1.8025    2.0604   -1.6089 C   0  0  0  0  0  0  0  0  0  0  0  0
    2.4633    2.9078   -0.8387 F   0  0  0  0  0  0  0  0  0  0  0  0
    2.7553    1.3745   -2.4979 F   0  0  0  0  0  0  0  0  0  0  0  0
    1.0089    2.7099   -2.5065 F   0  0  0  0  0  0  0  0  0  0  0  0
    4.8105   -0.8618   -0.2496 C   0  0  0  0  0  0  0  0  0  0  0  0
    5.8271   -1.3371    0.7759 C   0  0  0  0  0  0  0  0  0  0  0  0
    8.7760   -1.3391    0.9193 H   0  0  0  0  0  0  0  0  0  0  0  0
    7.8489   -1.3421   -0.6826 H   0  0  0  0  0  0  0  0  0  0  0  0
    8.6178    0.1442   -0.0534 H   0  0  0  0  0  0  0  0  0  0  0  0
    7.1388    1.6239    1.3451 H   0  0  0  0  0  0  0  0  0  0  0  0
    6.7405    1.2583   -0.3829 H   0  0  0  0  0  0  0  0  0  0  0  0
    4.9093    0.6634    2.0243 H   0  0  0  0  0  0  0  0  0  0  0  0
    4.7877    2.1766    1.1007 H   0  0  0  0  0  0  0  0  0  0  0  0
    2.9464   -0.0712    1.4683 H   0  0  0  0  0  0  0  0  0  0  0  0
    2.7640    1.5567    0.9817 H   0  0  0  0  0  0  0  0  0  0  0  0
    1.7256   -1.8884    0.7043 H   0  0  0  0  0  0  0  0  0  0  0  0
   -0.6892   -2.2303    0.1240 H   0  0  0  0  0  0  0  0  0  0  0  0
   -2.6537   -1.5552   -1.0741 H   0  0  0  0  0  0  0  0  0  0  0  0
   -4.1905   -1.9921   -0.3694 H   0  0  0  0  0  0  0  0  0  0  0  0
   -6.3120   -2.7846    0.3328 H   0  0  0  0  0  0  0  0  0  0  0  0
   -9.1576   -1.3106   -0.0697 H   0  0  0  0  0  0  0  0  0  0  0  0
   -8.9977   -0.7066    1.6309 H   0  0  0  0  0  0  0  0  0  0  0  0
   -8.4551   -2.3405    1.1964 H   0  0  0  0  0  0  0  0  0  0  0  0
   -5.4741    2.0354   -0.2789 H   0  0  0  0  0  0  0  0  0  0  0  0
   -0.8350    1.4991   -1.8202 H   0  0  0  0  0  0  0  0  0  0  0  0
    5.3412   -0.7846   -1.2260 H   0  0  0  0  0  0  0  0  0  0  0  0
    4.0706   -1.6855   -0.3634 H   0  0  0  0  0  0  0  0  0  0  0  0
    6.2239   -2.2929    0.4003 H   0  0  0  0  0  0  0  0  0  0  0  0
    5.2555   -1.5409    1.7153 H   0  0  0  0  0  0  0  0  0  0  0  0
  1  2  1  0
  2  3  1  0
  3  4  1  0
  4  5  1  0
  5  6  1  0
  6  7  1  0
  7  8  2  0
  8  9  1  0
  9 10  2  0
 10 11  1  0
 11 12  1  0
 12 13  2  0
 12 14  1  0
 14 15  2  0
 15 16  1  0
 16 17  2  0
 17 18  1  0
 17 19  1  0
 19 20  2  0
 19 21  1  0
 21 22  1  0
 21 23  1  0
 21 24  1  0
 10 25  1  0
 25 26  2  0
 26 27  1  0
 27 28  1  0
 27 29  1  0
 27 30  1  0
  5 31  1  0
 31 32  1  0
 32  2  1  0
 26  7  1  0
 20 14  1  0
  1 33  1  0
  1 34  1  0
  1 35  1  0
  3 36  1  0
  3 37  1  0
  4 38  1  0
  4 39  1  0
  6 40  1  0
  6 41  1  0
  8 42  1  0
  9 43  1  0
 11 44  1  0
 15 45  1  0
 16 46  1  0
 18 47  1  0
 18 48  1  0
 18 49  1  0
 20 50  1  0
 25 51  1  0
 31 52  1  0
 31 53  1  0
 32 54  1  0
 32 55  1  0
M  END
$$$$
[H]c1c([H])c([H])c2c(c1[H])C(N1C([H])([H])C([H])([H])N(C([H])([H])[H])C([H])([H])C1([H])[H])=Nc1c([H])c(Cl)c([H])c([H])c1N2[H]
     RDKit          3D

 42 45  0  0  0  0  0  0  0  0999 V2000
    5.0491   -0.2785    0.3282 C   0  0  0  0  0  0  0  0  0  0  0  0
    3.9896    0.6829    0.3858 N   0  0  0  0  0  0  0  0  0  0  0  0
    3.1239    0.5498    1.5163 C   0  0  0  0  0  0  0  0  0  0  0  0
    1.9817   -0.3826    1.0854 C   0  0  0  0  0  0  0  0  0  0  0  0
    1.2169    0.3227    0.0918 N   0  0  0  0  0  0  0  0  0  0  0  0
    1.8912    1.1925   -0.8275 C   0  0  0  0  0  0  0  0  0  0  0  0
    3.3705    0.9797   -0.8581 C   0  0  0  0  0  0  0  0  0  0  0  0
   -0.1834    0.1778    0.0405 C   0  0  0  0  0  0  0  0  0  0  0  0
   -0.8950    1.1181    0.6171 N   0  0  0  0  0  0  0  0  0  0  0  0
   -2.2951    1.2916    0.7557 C   0  0  0  0  0  0  0  0  0  0  0  0
   -2.6872    2.5370    1.1999 C   0  0  0  0  0  0  0  0  0  0  0  0
   -4.0091    2.8806    1.3964 C   0  0  0  0  0  0  0  0  0  0  0  0
   -4.4550    4.4796    1.9631 Cl  0  0  0  0  0  0  0  0  0  0  0  0
   -5.0117    1.9636    1.1480 C   0  0  0  0  0  0  0  0  0  0  0  0
   -4.6314    0.7024    0.6992 C   0  0  0  0  0  0  0  0  0  0  0  0
   -3.3100    0.3716    0.5069 C   0  0  0  0  0  0  0  0  0  0  0  0
   -3.1506   -0.9752    0.0386 N   0  0  0  0  0  0  0  0  0  0  0  0
   -2.0186   -1.5062   -0.6386 C   0  0  0  0  0  0  0  0  0  0  0  0
   -2.3941   -2.6336   -1.3268 C   0  0  0  0  0  0  0  0  0  0  0  0
   -1.4100   -3.2698   -2.0490 C   0  0  0  0  0  0  0  0  0  0  0  0
   -0.1128   -2.8046   -2.0841 C   0  0  0  0  0  0  0  0  0  0  0  0
    0.2229   -1.6509   -1.3664 C   0  0  0  0  0  0  0  0  0  0  0  0
   -0.7241   -0.9873   -0.6347 C   0  0  0  0  0  0  0  0  0  0  0  0
    4.7074   -1.1704    0.9280 H   0  0  0  0  0  0  0  0  0  0  0  0
    5.9174    0.1393    0.9114 H   0  0  0  0  0  0  0  0  0  0  0  0
    5.3257   -0.5900   -0.6809 H   0  0  0  0  0  0  0  0  0  0  0  0
    2.7490    1.4849    1.9328 H   0  0  0  0  0  0  0  0  0  0  0  0
    3.6714   -0.0194    2.3079 H   0  0  0  0  0  0  0  0  0  0  0  0
    1.3888   -0.7029    1.9593 H   0  0  0  0  0  0  0  0  0  0  0  0
    2.4912   -1.2294    0.5919 H   0  0  0  0  0  0  0  0  0  0  0  0
    1.7251    2.2654   -0.5474 H   0  0  0  0  0  0  0  0  0  0  0  0
    1.4912    1.0614   -1.8572 H   0  0  0  0  0  0  0  0  0  0  0  0
    3.8194    1.8517   -1.3857 H   0  0  0  0  0  0  0  0  0  0  0  0
    3.5527    0.1042   -1.5491 H   0  0  0  0  0  0  0  0  0  0  0  0
   -1.9056    3.2600    1.3962 H   0  0  0  0  0  0  0  0  0  0  0  0
   -6.0404    2.2390    1.3037 H   0  0  0  0  0  0  0  0  0  0  0  0
   -5.4058   -0.0313    0.4993 H   0  0  0  0  0  0  0  0  0  0  0  0
   -3.9535   -1.6238    0.2146 H   0  0  0  0  0  0  0  0  0  0  0  0
   -3.3865   -3.0480   -1.3403 H   0  0  0  0  0  0  0  0  0  0  0  0
   -1.6178   -4.1758   -2.6282 H   0  0  0  0  0  0  0  0  0  0  0  0
    0.6733   -3.3016   -2.6535 H   0  0  0  0  0  0  0  0  0  0  0  0
    1.2393   -1.2747   -1.3904 H   0  0  0  0  0  0  0  0  0  0  0  0
  1  2  1  0
  2  3  1  0
  3  4  1  0
  4  5  1  0
  5  6  1  0
  6  7  1  0
  5  8  1  0
  8  9  2  0
  9 10  1  0
 10 11  2  0
 11 12  1  0
 12 13  1  0
 12 14  2  0
 14 15  1  0
 15 16  2  0
 16 17  1  0
 17 18  1  0
 18 19  2  0
 19 20  1  0
 20 21  2  0
 21 22  1  0
 22 23  2  0
  7  2  1  0
 23  8  1  0
 16 10  1  0
 23 18  1  0
  1 24  1  0
  1 25  1  0
  1 26  1  0
  3 27  1  0
  3 28  1  0
  4 29  1  0
  4 30  1  0
  6 31  1  0
  6 32  1  0
  7 33  1  0
  7 34  1  0
 11 35  1  0
 14 36  1  0
 15 37  1  0
 17 38  1  0
 19 39  1  0
 20 40  1  0
 21 41  1  0
 22 42  1  0
M  END
$$$$
[H]OC(=O)[C@]([H])(N([H])C(=O)[C@@]([H])(N([H])C(=O)C(C([H])([H])[H])(C([H])([H])[H])C([H])([H])[H])C([H])([H])C([H])(C([H])([H])[H])C([H])([H])[H])C([H])([H])[H]
     RDKit          3D

 46 45  0  0  0  0  0  0  0  0999 V2000
    1.3066    3.8078   -0.8990 C   0  0  0  0  0  0  0  0  0  0  0  0
    0.9683    2.5125   -0.1241 C   0  0  0  0  0  0  0  0  0  0  0  0
   -0.0753    2.9438    0.8793 C   0  0  0  0  0  0  0  0  0  0  0  0
    0.5183    1.5478   -1.1447 C   0  0  0  0  0  0  0  0  0  0  0  0
    0.1347    0.1767   -0.7287 C   0  0  2  0  0  0  0  0  0  0  0  0
   -0.9548    0.1268    0.1981 N   0  0  0  0  0  0  0  0  0  0  0  0
   -2.2247   -0.4261   -0.1830 C   0  0  0  0  0  0  0  0  0  0  0  0
   -2.3220   -0.8574   -1.3816 O   0  0  0  0  0  0  0  0  0  0  0  0
   -3.3605   -0.5079    0.7259 C   0  0  0  0  0  0  0  0  0  0  0  0
   -3.8389    0.7893    1.2900 C   0  0  0  0  0  0  0  0  0  0  0  0
   -4.5420   -1.1102   -0.0545 C   0  0  0  0  0  0  0  0  0  0  0  0
   -3.1164   -1.4981    1.8673 C   0  0  0  0  0  0  0  0  0  0  0  0
    1.2534   -0.6183   -0.1808 C   0  0  0  0  0  0  0  0  0  0  0  0
    1.2890   -0.7707    1.0700 O   0  0  0  0  0  0  0  0  0  0  0  0
    2.2697   -1.2156   -0.9362 N   0  0  0  0  0  0  0  0  0  0  0  0
    3.3389   -1.9691   -0.3324 C   0  0  2  0  0  0  0  0  0  0  0  0
    4.6904   -1.5623   -0.8759 C   0  0  0  0  0  0  0  0  0  0  0  0
    3.1436   -3.4288   -0.4823 C   0  0  0  0  0  0  0  0  0  0  0  0
    4.0434   -4.2949    0.0826 O   0  0  0  0  0  0  0  0  0  0  0  0
    2.1594   -3.8477   -1.1218 O   0  0  0  0  0  0  0  0  0  0  0  0
    1.7346    4.5587   -0.1872 H   0  0  0  0  0  0  0  0  0  0  0  0
    0.4083    4.1866   -1.4155 H   0  0  0  0  0  0  0  0  0  0  0  0
    2.0972    3.5661   -1.6459 H   0  0  0  0  0  0  0  0  0  0  0  0
    1.8811    2.2649    0.4220 H   0  0  0  0  0  0  0  0  0  0  0  0
    0.0035    4.0487    1.0838 H   0  0  0  0  0  0  0  0  0  0  0  0
    0.1454    2.4882    1.8857 H   0  0  0  0  0  0  0  0  0  0  0  0
   -1.0954    2.7687    0.5250 H   0  0  0  0  0  0  0  0  0  0  0  0
   -0.3936    2.0027   -1.6406 H   0  0  0  0  0  0  0  0  0  0  0  0
    1.2865    1.5261   -1.9584 H   0  0  0  0  0  0  0  0  0  0  0  0
   -0.1842   -0.3437   -1.6816 H   0  0  0  0  0  0  0  0  0  0  0  0
   -0.8585    0.4685    1.1623 H   0  0  0  0  0  0  0  0  0  0  0  0
   -4.8178    0.6207    1.8278 H   0  0  0  0  0  0  0  0  0  0  0  0
   -3.0639    1.1929    1.9535 H   0  0  0  0  0  0  0  0  0  0  0  0
   -4.0900    1.5049    0.4891 H   0  0  0  0  0  0  0  0  0  0  0  0
   -5.4642   -1.1261    0.5250 H   0  0  0  0  0  0  0  0  0  0  0  0
   -4.6100   -0.5183   -1.0012 H   0  0  0  0  0  0  0  0  0  0  0  0
   -4.2366   -2.1367   -0.3340 H   0  0  0  0  0  0  0  0  0  0  0  0
   -2.3934   -2.2683    1.5620 H   0  0  0  0  0  0  0  0  0  0  0  0
   -2.7841   -1.0159    2.7866 H   0  0  0  0  0  0  0  0  0  0  0  0
   -4.0582   -2.0615    2.1094 H   0  0  0  0  0  0  0  0  0  0  0  0
    2.2592   -1.1189   -1.9589 H   0  0  0  0  0  0  0  0  0  0  0  0
    3.3606   -1.8047    0.7847 H   0  0  0  0  0  0  0  0  0  0  0  0
    4.9795   -2.3304   -1.6350 H   0  0  0  0  0  0  0  0  0  0  0  0
    5.4630   -1.6080   -0.0794 H   0  0  0  0  0  0  0  0  0  0  0  0
    4.7100   -0.5435   -1.2978 H   0  0  0  0  0  0  0  0  0  0  0  0
    5.0402   -4.1193    0.0505 H   0  0  0  0  0  0  0  0  0  0  0  0
  1  2  1  0
  2  3  1  0
  2  4  1  0
  4  5  1  0
  5  6  1  0
  6  7  1  0
  7  8  2  0
  7  9  1  0
  9 10  1  0
  9 11  1  0
  9 12  1  0
  5 13  1  0
 13 14  2  0
 13 15  1  0
 15 16  1  0
 16 17  1  0
 16 18  1  0
 18 19  1  0
 18 20  2  0
  1 21  1  0
  1 22  1  0
  1 23  1  0
  2 24  1  0
  3 25  1  0
  3 26  1  0
  3 27  1  0
  4 28  1  0
  4 29  1  0
  5 30  1  6
  6 31  1  0
 10 32  1  0
 10 33  1  0
 10 34  1  0
 11 35  1  0
 11 36  1  0
 11 37  1  0
 12 38  1  0
 12 39  1  0
 12 40  1  0
 15 41  1  0
 16 42  1  1
 17 43  1  0
 17 44  1  0
 17 45  1  0
 19 46  1  0
M  END
$$$$
[H]N=C(N([H])[H])N([H])C([H])([H])C([H])([H])C([H])([H])[C@@]([H])(C(=O)O[H])N([H])C(=O)[C@@]([H])(N([H])C(=O)[C@@]([H])(N([H])C(=O)[C@]([H])(N([H])C(=O)[C@@]([H])(N([H])C(=O)C([H])([H])[H])C([H])(C([H])([H])[H])C([H])([H])[H])C([H])([H])[H])C([H])([H])C([H])([H])C([H])([H])C([H])([H])N([H])[H])C([H])([H])C([H])(C([H])([H])[H])C([H])([H])[H]
     RDKit          3D

 97 96  0  0  0  0  0  0  0  0999 V2000
    3.4419    5.2419    0.2204 C   0  0  0  0  0  0  0  0  0  0  0  0
    3.0392    3.8530    0.7717 C   0  0  0  0  0  0  0  0  0  0  0  0
    3.9859    3.4976    1.8548 C   0  0  0  0  0  0  0  0  0  0  0  0
    2.9423    2.9575   -0.3972 C   0  0  0  0  0  0  0  0  0  0  0  0
    2.5629    1.5384   -0.1686 C   0  0  2  0  0  0  0  0  0  0  0  0
    1.2775    1.4045    0.4972 N   0  0  0  0  0  0  0  0  0  0  0  0
    0.1261    0.9415   -0.1722 C   0  0  0  0  0  0  0  0  0  0  0  0
    0.2069    0.6071   -1.4049 O   0  0  0  0  0  0  0  0  0  0  0  0
   -1.1714    0.8065    0.4556 C   0  0  2  0  0  0  0  0  0  0  0  0
   -1.3556    1.2892    1.8538 C   0  0  0  0  0  0  0  0  0  0  0  0
   -1.1866    2.8015    1.9523 C   0  0  0  0  0  0  0  0  0  0  0  0
   -1.3620    3.2842    3.3663 C   0  0  0  0  0  0  0  0  0  0  0  0
   -0.3733    2.6553    4.2980 C   0  0  0  0  0  0  0  0  0  0  0  0
   -0.5459    3.1638    5.6633 N   0  0  0  0  0  0  0  0  0  0  0  0
   -1.7927   -0.4522    0.1836 N   0  0  0  0  0  0  0  0  0  0  0  0
   -3.1492   -0.4559   -0.2503 C   0  0  0  0  0  0  0  0  0  0  0  0
   -3.7916    0.5855   -0.3940 O   0  0  0  0  0  0  0  0  0  0  0  0
   -3.7678   -1.7973   -0.5187 C   0  0  1  0  0  0  0  0  0  0  0  0
   -3.2910   -2.8115    0.5034 C   0  0  0  0  0  0  0  0  0  0  0  0
   -5.1877   -1.6291   -0.5629 N   0  0  0  0  0  0  0  0  0  0  0  0
   -5.9683   -1.9730   -1.6777 C   0  0  0  0  0  0  0  0  0  0  0  0
   -5.3792   -2.4497   -2.6895 O   0  0  0  0  0  0  0  0  0  0  0  0
   -7.4188   -1.7735   -1.6324 C   0  0  1  0  0  0  0  0  0  0  0  0
   -8.1546   -2.1291   -2.7983 N   0  0  0  0  0  0  0  0  0  0  0  0
   -8.9279   -1.1883   -3.5527 C   0  0  0  0  0  0  0  0  0  0  0  0
   -9.6817   -1.6173   -4.7538 C   0  0  0  0  0  0  0  0  0  0  0  0
   -8.9618   -0.0018   -3.1826 O   0  0  0  0  0  0  0  0  0  0  0  0
   -7.9791   -2.4074   -0.3694 C   0  0  0  0  0  0  0  0  0  0  0  0
   -7.7348   -3.8720   -0.2561 C   0  0  0  0  0  0  0  0  0  0  0  0
   -9.4938   -2.2129   -0.3763 C   0  0  0  0  0  0  0  0  0  0  0  0
    3.5999    0.6486    0.3743 C   0  0  0  0  0  0  0  0  0  0  0  0
    3.2830   -0.1469    1.2913 O   0  0  0  0  0  0  0  0  0  0  0  0
    4.9273    0.6610   -0.1023 N   0  0  0  0  0  0  0  0  0  0  0  0
    5.8803   -0.2430    0.4760 C   0  0  1  0  0  0  0  0  0  0  0  0
    6.5024   -1.1550   -0.5890 C   0  0  0  0  0  0  0  0  0  0  0  0
    7.2247   -0.3306   -1.5909 C   0  0  0  0  0  0  0  0  0  0  0  0
    7.9306   -1.0779   -2.6603 C   0  0  0  0  0  0  0  0  0  0  0  0
    8.9595   -1.9821   -2.2493 N   0  0  0  0  0  0  0  0  0  0  0  0
    8.7691   -3.2230   -1.5746 C   0  0  0  0  0  0  0  0  0  0  0  0
    7.7731   -4.1374   -1.9823 N   0  0  0  0  0  0  0  0  0  0  0  0
    9.5277   -3.5115   -0.5896 N   0  0  0  0  0  0  0  0  0  0  0  0
    6.9987    0.5257    1.1371 C   0  0  0  0  0  0  0  0  0  0  0  0
    7.9985   -0.1690    1.8081 O   0  0  0  0  0  0  0  0  0  0  0  0
    7.0876    1.7696    1.1216 O   0  0  0  0  0  0  0  0  0  0  0  0
    4.1736    5.1165   -0.6047 H   0  0  0  0  0  0  0  0  0  0  0  0
    3.9850    5.7693    1.0177 H   0  0  0  0  0  0  0  0  0  0  0  0
    2.5771    5.7827   -0.1825 H   0  0  0  0  0  0  0  0  0  0  0  0
    2.0407    4.0286    1.2436 H   0  0  0  0  0  0  0  0  0  0  0  0
    3.7832    4.1879    2.7319 H   0  0  0  0  0  0  0  0  0  0  0  0
    5.0459    3.7198    1.6027 H   0  0  0  0  0  0  0  0  0  0  0  0
    3.8030    2.4979    2.2425 H   0  0  0  0  0  0  0  0  0  0  0  0
    2.1928    3.3943   -1.1004 H   0  0  0  0  0  0  0  0  0  0  0  0
    3.9255    2.9451   -0.9310 H   0  0  0  0  0  0  0  0  0  0  0  0
    2.4054    1.1274   -1.2446 H   0  0  0  0  0  0  0  0  0  0  0  0
    1.2391    1.6320    1.5037 H   0  0  0  0  0  0  0  0  0  0  0  0
   -1.8139    1.6207   -0.1363 H   0  0  0  0  0  0  0  0  0  0  0  0
   -2.3863    1.0410    2.1805 H   0  0  0  0  0  0  0  0  0  0  0  0
   -0.6497    0.7872    2.5694 H   0  0  0  0  0  0  0  0  0  0  0  0
   -2.0874    3.2374    1.3733 H   0  0  0  0  0  0  0  0  0  0  0  0
   -0.3149    3.1577    1.4263 H   0  0  0  0  0  0  0  0  0  0  0  0
   -1.2875    4.3967    3.3677 H   0  0  0  0  0  0  0  0  0  0  0  0
   -2.4104    3.0033    3.6722 H   0  0  0  0  0  0  0  0  0  0  0  0
    0.6711    2.7676    3.9920 H   0  0  0  0  0  0  0  0  0  0  0  0
   -0.6219    1.5602    4.3891 H   0  0  0  0  0  0  0  0  0  0  0  0
   -1.4417    2.8691    6.0831 H   0  0  0  0  0  0  0  0  0  0  0  0
   -0.4730    4.2137    5.6654 H   0  0  0  0  0  0  0  0  0  0  0  0
   -1.2710   -1.3537    0.3040 H   0  0  0  0  0  0  0  0  0  0  0  0
   -3.3798   -2.1511   -1.5175 H   0  0  0  0  0  0  0  0  0  0  0  0
   -2.4072   -3.3997    0.1199 H   0  0  0  0  0  0  0  0  0  0  0  0
   -3.0196   -2.3020    1.4545 H   0  0  0  0  0  0  0  0  0  0  0  0
   -4.0667   -3.5657    0.7513 H   0  0  0  0  0  0  0  0  0  0  0  0
   -5.6351   -1.2189    0.2979 H   0  0  0  0  0  0  0  0  0  0  0  0
   -7.5868   -0.6662   -1.4759 H   0  0  0  0  0  0  0  0  0  0  0  0
   -8.1507   -3.1127   -3.1424 H   0  0  0  0  0  0  0  0  0  0  0  0
   -9.1661   -2.4450   -5.3049 H   0  0  0  0  0  0  0  0  0  0  0  0
   -9.8883   -0.8181   -5.4652 H   0  0  0  0  0  0  0  0  0  0  0  0
  -10.6900   -2.0406   -4.4685 H   0  0  0  0  0  0  0  0  0  0  0  0
   -7.5155   -1.8931    0.4848 H   0  0  0  0  0  0  0  0  0  0  0  0
   -8.6321   -4.4132    0.0661 H   0  0  0  0  0  0  0  0  0  0  0  0
   -6.9507   -4.1175    0.5034 H   0  0  0  0  0  0  0  0  0  0  0  0
   -7.3491   -4.3193   -1.2080 H   0  0  0  0  0  0  0  0  0  0  0  0
   -9.9107   -2.9302    0.3308 H   0  0  0  0  0  0  0  0  0  0  0  0
   -9.8146   -2.5163   -1.4105 H   0  0  0  0  0  0  0  0  0  0  0  0
   -9.6728   -1.1527   -0.1540 H   0  0  0  0  0  0  0  0  0  0  0  0
    5.2055    1.3149   -0.8430 H   0  0  0  0  0  0  0  0  0  0  0  0
    5.4859   -0.9058    1.2658 H   0  0  0  0  0  0  0  0  0  0  0  0
    5.6387   -1.6494   -1.0946 H   0  0  0  0  0  0  0  0  0  0  0  0
    7.0876   -1.8862   -0.0329 H   0  0  0  0  0  0  0  0  0  0  0  0
    7.9553    0.3709   -1.1068 H   0  0  0  0  0  0  0  0  0  0  0  0
    6.4538    0.3731   -2.0337 H   0  0  0  0  0  0  0  0  0  0  0  0
    7.2127   -1.5887   -3.3734 H   0  0  0  0  0  0  0  0  0  0  0  0
    8.4036   -0.2929   -3.3296 H   0  0  0  0  0  0  0  0  0  0  0  0
    9.9740   -1.6883   -2.4728 H   0  0  0  0  0  0  0  0  0  0  0  0
    7.3211   -4.7550   -1.2965 H   0  0  0  0  0  0  0  0  0  0  0  0
    7.5072   -4.1794   -2.9827 H   0  0  0  0  0  0  0  0  0  0  0  0
    9.4421   -4.3936   -0.0583 H   0  0  0  0  0  0  0  0  0  0  0  0
    7.6932   -0.6444    2.6570 H   0  0  0  0  0  0  0  0  0  0  0  0
  1  2  1  0
  2  3  1  0
  2  4  1  0
  4  5  1  0
  5  6  1  0
  6  7  1  0
  7  8  2  0
  7  9  1  0
  9 10  1  0
 10 11  1  0
 11 12  1  0
 12 13  1  0
 13 14  1  0
  9 15  1  0
 15 16  1  0
 16 17  2  0
 16 18  1  0
 18 19  1  0
 18 20  1  0
 20 21  1  0
 21 22  2  0
 21 23  1  0
 23 24  1  0
 24 25  1  0
 25 26  1  0
 25 27  2  0
 23 28  1  0
 28 29  1  0
 28 30  1  0
  5 31  1  0
 31 32  2  0
 31 33  1  0
 33 34  1  0
 34 35  1  0
 35 36  1  0
 36 37  1  0
 37 38  1  0
 38 39  1  0
 39 40  1  0
 39 41  2  3
 34 42  1  0
 42 43  1  0
 42 44  2  0
  1 45  1  0
  1 46  1  0
  1 47  1  0
  2 48  1  0
  3 49  1  0
  3 50  1  0
  3 51  1  0
  4 52  1  0
  4 53  1  0
  5 54  1  6
  6 55  1  0
  9 56  1  6
 10 57  1  0
 10 58  1  0
 11 59  1  0
 11 60  1  0
 12 61  1  0
 12 62  1  0
 13 63  1  0
 13 64  1  0
 14 65  1  0
 14 66  1  0
 15 67  1  0
 18 68  1  6
 19 69  1  0
 19 70  1  0
 19 71  1  0
 20 72  1  0
 23 73  1  1
 24 74  1  0
 26 75  1  0
 26 76  1  0
 26 77  1  0
 28 78  1  0
 29 79  1  0
 29 80  1  0
 29 81  1  0
 30 82  1  0
 30 83  1  0
 30 84  1  0
 33 85  1  0
 34 86  1  1
 35 87  1  0
 35 88  1  0
 36 89  1  0
 36 90  1  0
 37 91  1  0
 37 92  1  0
 38 93  1  0
 40 94  1  0
 40 95  1  0
 41 96  1  0
 43 97  1  0
M  END
$$$$
[H]N=C(N([H])[H])N1C([H])([H])C([H])([H])N(C(=O)[C@@]([H])(N([H])C(=O)[C@@]([H])(N([H])C(=O)[C@@]([H])(N([H])C(=O)OC([H])([H])c2c([H])c([H])c([H])c([H])c2[H])C([H])([H])C([H])(C([H])([H])[H])C([H])([H])[H])C([H])([H])C([H])(C([H])([H])[H])C([H])([H])[H])C([H])([H])C([H])([H])C([H])([H])N=C(N([H])[H])N([H])[H])C([H])([H])C1([H])[H]
     RDKit          3D

 98 99  0  0  0  0  0  0  0  0999 V2000
    1.0375   -2.4560    2.8649 C   0  0  0  0  0  0  0  0  0  0  0  0
    0.0314   -3.1334    2.0163 C   0  0  0  0  0  0  0  0  0  0  0  0
    0.0231   -4.6246    2.4055 C   0  0  0  0  0  0  0  0  0  0  0  0
    0.2002   -3.0881    0.5566 C   0  0  0  0  0  0  0  0  0  0  0  0
    0.2154   -1.7899   -0.1417 C   0  0  2  0  0  0  0  0  0  0  0  0
    1.2458   -0.8634    0.2201 N   0  0  0  0  0  0  0  0  0  0  0  0
    2.2621   -0.3983   -0.6789 C   0  0  0  0  0  0  0  0  0  0  0  0
    2.1536   -0.8929   -1.8563 O   0  0  0  0  0  0  0  0  0  0  0  0
    3.3255    0.5344   -0.3415 C   0  0  2  0  0  0  0  0  0  0  0  0
    2.9941    1.7410    0.3922 C   0  0  0  0  0  0  0  0  0  0  0  0
    2.0483    2.7394   -0.1356 C   0  0  0  0  0  0  0  0  0  0  0  0
    1.9892    3.8317    0.9641 C   0  0  0  0  0  0  0  0  0  0  0  0
    2.4252    3.4630   -1.3796 C   0  0  0  0  0  0  0  0  0  0  0  0
    4.1099    0.7902   -1.5340 N   0  0  0  0  0  0  0  0  0  0  0  0
    5.4323    0.3903   -1.7427 C   0  0  0  0  0  0  0  0  0  0  0  0
    6.0442   -0.2452   -0.8567 O   0  0  0  0  0  0  0  0  0  0  0  0
    6.0776    0.6859   -2.9189 O   0  0  0  0  0  0  0  0  0  0  0  0
    7.3884    0.3460   -3.2516 C   0  0  0  0  0  0  0  0  0  0  0  0
    8.4405    0.8948   -2.3961 C   0  0  0  0  0  0  0  0  0  0  0  0
    9.7346    0.4020   -2.5306 C   0  0  0  0  0  0  0  0  0  0  0  0
   10.7465    0.8868   -1.7640 C   0  0  0  0  0  0  0  0  0  0  0  0
   10.5578    1.8633   -0.8384 C   0  0  0  0  0  0  0  0  0  0  0  0
    9.2931    2.3811   -0.6712 C   0  0  0  0  0  0  0  0  0  0  0  0
    8.2510    1.8832   -1.4594 C   0  0  0  0  0  0  0  0  0  0  0  0
   -1.1361   -1.1423   -0.2040 C   0  0  0  0  0  0  0  0  0  0  0  0
   -1.1422    0.0745    0.1028 O   0  0  0  0  0  0  0  0  0  0  0  0
   -2.2870   -1.8086   -0.5659 N   0  0  0  0  0  0  0  0  0  0  0  0
   -3.6443   -1.2552   -0.6675 C   0  0  1  0  0  0  0  0  0  0  0  0
   -4.2773   -1.4245    0.6393 C   0  0  0  0  0  0  0  0  0  0  0  0
   -4.2822   -2.9203    0.9993 C   0  0  0  0  0  0  0  0  0  0  0  0
   -5.0533   -3.6929   -0.0193 C   0  0  0  0  0  0  0  0  0  0  0  0
   -5.0458   -5.1134    0.3944 N   0  0  0  0  0  0  0  0  0  0  0  0
   -6.1606   -5.6536    0.6838 C   0  0  0  0  0  0  0  0  0  0  0  0
   -7.3787   -4.9443    0.6215 N   0  0  0  0  0  0  0  0  0  0  0  0
   -6.1484   -7.0231    1.0798 N   0  0  0  0  0  0  0  0  0  0  0  0
   -3.4656    0.1058   -1.2249 C   0  0  0  0  0  0  0  0  0  0  0  0
   -2.5683    0.1340   -2.1892 O   0  0  0  0  0  0  0  0  0  0  0  0
   -4.1003    1.2772   -0.8669 N   0  0  0  0  0  0  0  0  0  0  0  0
   -5.0854    1.4566    0.1323 C   0  0  0  0  0  0  0  0  0  0  0  0
   -5.5038    2.9309    0.2577 C   0  0  0  0  0  0  0  0  0  0  0  0
   -4.3527    3.7945    0.2422 N   0  0  0  0  0  0  0  0  0  0  0  0
   -3.1848    3.4505   -0.5667 C   0  0  0  0  0  0  0  0  0  0  0  0
   -3.7022    2.4921   -1.6239 C   0  0  0  0  0  0  0  0  0  0  0  0
   -4.3122    4.9914    0.9995 C   0  0  0  0  0  0  0  0  0  0  0  0
   -5.4412    5.3783    1.7768 N   0  0  0  0  0  0  0  0  0  0  0  0
   -3.2838    5.7534    1.0128 N   0  0  0  0  0  0  0  0  0  0  0  0
    0.7051   -1.4734    3.2650 H   0  0  0  0  0  0  0  0  0  0  0  0
    2.0301   -2.3830    2.4014 H   0  0  0  0  0  0  0  0  0  0  0  0
    1.1897   -3.0751    3.7967 H   0  0  0  0  0  0  0  0  0  0  0  0
   -0.9812   -2.7923    2.3666 H   0  0  0  0  0  0  0  0  0  0  0  0
   -0.2834   -4.7518    3.4693 H   0  0  0  0  0  0  0  0  0  0  0  0
   -0.6557   -5.2010    1.7473 H   0  0  0  0  0  0  0  0  0  0  0  0
    1.0368   -5.0239    2.2718 H   0  0  0  0  0  0  0  0  0  0  0  0
    1.1197   -3.6443    0.2576 H   0  0  0  0  0  0  0  0  0  0  0  0
   -0.6347   -3.6986    0.1030 H   0  0  0  0  0  0  0  0  0  0  0  0
    0.4174   -2.0343   -1.2345 H   0  0  0  0  0  0  0  0  0  0  0  0
    1.2897   -0.4750    1.1723 H   0  0  0  0  0  0  0  0  0  0  0  0
    4.0464   -0.0719    0.3073 H   0  0  0  0  0  0  0  0  0  0  0  0
    2.6133    1.4748    1.4279 H   0  0  0  0  0  0  0  0  0  0  0  0
    3.9480    2.3060    0.6291 H   0  0  0  0  0  0  0  0  0  0  0  0
    0.9779    2.3780   -0.1591 H   0  0  0  0  0  0  0  0  0  0  0  0
    1.3302    4.6457    0.6559 H   0  0  0  0  0  0  0  0  0  0  0  0
    1.5589    3.3899    1.8938 H   0  0  0  0  0  0  0  0  0  0  0  0
    3.0236    4.1437    1.2270 H   0  0  0  0  0  0  0  0  0  0  0  0
    1.9850    3.0434   -2.3047 H   0  0  0  0  0  0  0  0  0  0  0  0
    2.0328    4.5008   -1.3204 H   0  0  0  0  0  0  0  0  0  0  0  0
    3.5347    3.5487   -1.4329 H   0  0  0  0  0  0  0  0  0  0  0  0
    3.6422    1.3207   -2.3202 H   0  0  0  0  0  0  0  0  0  0  0  0
    7.5732    0.7128   -4.3052 H   0  0  0  0  0  0  0  0  0  0  0  0
    7.4776   -0.7652   -3.3338 H   0  0  0  0  0  0  0  0  0  0  0  0
    9.8979   -0.3725   -3.2624 H   0  0  0  0  0  0  0  0  0  0  0  0
   11.7446    0.4761   -1.8996 H   0  0  0  0  0  0  0  0  0  0  0  0
   11.3406    2.2509   -0.2333 H   0  0  0  0  0  0  0  0  0  0  0  0
    9.1112    3.1554    0.0547 H   0  0  0  0  0  0  0  0  0  0  0  0
    7.2650    2.3069   -1.3168 H   0  0  0  0  0  0  0  0  0  0  0  0
   -2.2266   -2.8440   -0.8080 H   0  0  0  0  0  0  0  0  0  0  0  0
   -4.1809   -1.7998   -1.5073 H   0  0  0  0  0  0  0  0  0  0  0  0
   -5.3663   -1.1039    0.6835 H   0  0  0  0  0  0  0  0  0  0  0  0
   -3.7553   -0.9471    1.4858 H   0  0  0  0  0  0  0  0  0  0  0  0
   -4.7293   -3.0528    2.0008 H   0  0  0  0  0  0  0  0  0  0  0  0
   -3.2186   -3.2558    1.0527 H   0  0  0  0  0  0  0  0  0  0  0  0
   -6.0828   -3.3088   -0.0616 H   0  0  0  0  0  0  0  0  0  0  0  0
   -4.5394   -3.6323   -1.0136 H   0  0  0  0  0  0  0  0  0  0  0  0
   -7.8018   -4.6819   -0.2996 H   0  0  0  0  0  0  0  0  0  0  0  0
   -7.8592   -4.6801    1.5075 H   0  0  0  0  0  0  0  0  0  0  0  0
   -6.6813   -7.3495    1.9147 H   0  0  0  0  0  0  0  0  0  0  0  0
   -5.5917   -7.7140    0.5159 H   0  0  0  0  0  0  0  0  0  0  0  0
   -4.8128    1.1306    1.1454 H   0  0  0  0  0  0  0  0  0  0  0  0
   -6.0305    0.9154   -0.1502 H   0  0  0  0  0  0  0  0  0  0  0  0
   -6.1791    3.1322   -0.5946 H   0  0  0  0  0  0  0  0  0  0  0  0
   -6.0689    3.0021    1.2151 H   0  0  0  0  0  0  0  0  0  0  0  0
   -2.7458    4.3328   -1.0452 H   0  0  0  0  0  0  0  0  0  0  0  0
   -2.4717    2.9480    0.1012 H   0  0  0  0  0  0  0  0  0  0  0  0
   -4.6005    2.9022   -2.0923 H   0  0  0  0  0  0  0  0  0  0  0  0
   -2.9351    2.2678   -2.3562 H   0  0  0  0  0  0  0  0  0  0  0  0
   -6.1198    6.0954    1.4045 H   0  0  0  0  0  0  0  0  0  0  0  0
   -5.5584    4.9290    2.7045 H   0  0  0  0  0  0  0  0  0  0  0  0
   -3.2521    6.6203    1.5605 H   0  0  0  0  0  0  0  0  0  0  0  0
  1  2  1  0
  2  3  1  0
  2  4  1  0
  4  5  1  0
  5  6  1  0
  6  7  1  0
  7  8  2  0
  7  9  1  0
  9 10  1  0
 10 11  1  0
 11 12  1  0
 11 13  1  0
  9 14  1  0
 14 15  1  0
 15 16  2  0
 15 17  1  0
 17 18  1  0
 18 19  1  0
 19 20  2  0
 20 21  1  0
 21 22  2  0
 22 23  1  0
 23 24  2  0
  5 25  1  0
 25 26  2  0
 25 27  1  0
 27 28  1  0
 28 29  1  0
 29 30  1  0
 30 31  1  0
 31 32  1  0
 32 33  2  3
 33 34  1  0
 33 35  1  0
 28 36  1  0
 36 37  2  0
 36 38  1  0
 38 39  1  0
 39 40  1  0
 40 41  1  0
 41 42  1  0
 42 43  1  0
 41 44  1  0
 44 45  1  0
 44 46  2  3
 24 19  1  0
 43 38  1  0
  1 47  1  0
  1 48  1  0
  1 49  1  0
  2 50  1  0
  3 51  1  0
  3 52  1  0
  3 53  1  0
  4 54  1  0
  4 55  1  0
  5 56  1  6
  6 57  1  0
  9 58  1  1
 10 59  1  0
 10 60  1  0
 11 61  1  0
 12 62  1  0
 12 63  1  0
 12 64  1  0
 13 65  1  0
 13 66  1  0
 13 67  1  0
 14 68  1  0
 18 69  1  0
 18 70  1  0
 20 71  1  0
 21 72  1  0
 22 73  1  0
 23 74  1  0
 24 75  1  0
 27 76  1  0
 28 77  1  6
 29 78  1  0
 29 79  1  0
 30 80  1  0
 30 81  1  0
 31 82  1  0
 31 83  1  0
 34 84  1  0
 34 85  1  0
 35 86  1  0
 35 87  1  0
 39 88  1  0
 39 89  1  0
 40 90  1  0
 40 91  1  0
 42 92  1  0
 42 93  1  0
 43 94  1  0
 43 95  1  0
 45 96  1  0
 45 97  1  0
 46 98  1  0
M  END
$$$$
[H]Oc1c([H])c([H])c([H])c(OC([H])([H])C([H])([H])C([H])([H])C([H])([H])C([H])([H])C([H])([H])C([H])([H])C([H])([H])C([H])([H])C([H])([H])C([H])([H])C([H])([H])[H])c1[H]
     RDKit          3D

 50 50  0  0  0  0  0  0  0  0999 V2000
   -7.0978   -1.2322    0.0568 C   0  0  0  0  0  0  0  0  0  0  0  0
   -7.0008   -0.5824   -1.2800 C   0  0  0  0  0  0  0  0  0  0  0  0
   -6.0825    0.5669   -1.4173 C   0  0  0  0  0  0  0  0  0  0  0  0
   -4.6308    0.3603   -1.2014 C   0  0  0  0  0  0  0  0  0  0  0  0
   -4.1778   -0.1253    0.1254 C   0  0  0  0  0  0  0  0  0  0  0  0
   -2.6630   -0.2448    0.1345 C   0  0  0  0  0  0  0  0  0  0  0  0
   -1.9768    1.0417   -0.1041 C   0  0  0  0  0  0  0  0  0  0  0  0
   -0.4570    0.8287   -0.0601 C   0  0  0  0  0  0  0  0  0  0  0  0
    0.0143    0.3053    1.2566 C   0  0  0  0  0  0  0  0  0  0  0  0
    1.5084    0.1313    1.2196 C   0  0  0  0  0  0  0  0  0  0  0  0
    2.2487    1.4221    0.9500 C   0  0  0  0  0  0  0  0  0  0  0  0
    3.7287    1.0672    0.9517 C   0  0  0  0  0  0  0  0  0  0  0  0
    3.9006    0.1008   -0.0935 O   0  0  0  0  0  0  0  0  0  0  0  0
    5.1901   -0.3701   -0.2749 C   0  0  0  0  0  0  0  0  0  0  0  0
    5.4038   -1.2985   -1.2659 C   0  0  0  0  0  0  0  0  0  0  0  0
    6.6599   -1.8128   -1.5053 C   0  0  0  0  0  0  0  0  0  0  0  0
    7.7157   -1.3827   -0.7320 C   0  0  0  0  0  0  0  0  0  0  0  0
    7.5453   -0.4610    0.2632 C   0  0  0  0  0  0  0  0  0  0  0  0
    8.6537   -0.0747    1.0013 O   0  0  0  0  0  0  0  0  0  0  0  0
    6.2726    0.0357    0.4783 C   0  0  0  0  0  0  0  0  0  0  0  0
   -6.5941   -2.2157    0.0555 H   0  0  0  0  0  0  0  0  0  0  0  0
   -6.7493   -0.5679    0.8785 H   0  0  0  0  0  0  0  0  0  0  0  0
   -8.1747   -1.4861    0.3195 H   0  0  0  0  0  0  0  0  0  0  0  0
   -6.7838   -1.3448   -2.0902 H   0  0  0  0  0  0  0  0  0  0  0  0
   -8.0460   -0.2144   -1.5242 H   0  0  0  0  0  0  0  0  0  0  0  0
   -6.4824    1.4112   -0.7848 H   0  0  0  0  0  0  0  0  0  0  0  0
   -6.1849    0.9262   -2.4951 H   0  0  0  0  0  0  0  0  0  0  0  0
   -4.1751   -0.3113   -1.9810 H   0  0  0  0  0  0  0  0  0  0  0  0
   -4.0878    1.3438   -1.3793 H   0  0  0  0  0  0  0  0  0  0  0  0
   -4.5242   -1.1541    0.3918 H   0  0  0  0  0  0  0  0  0  0  0  0
   -4.4446    0.5794    0.9490 H   0  0  0  0  0  0  0  0  0  0  0  0
   -2.3571   -0.9715   -0.6748 H   0  0  0  0  0  0  0  0  0  0  0  0
   -2.3578   -0.7453    1.0764 H   0  0  0  0  0  0  0  0  0  0  0  0
   -2.2420    1.7409    0.7368 H   0  0  0  0  0  0  0  0  0  0  0  0
   -2.2096    1.5606   -1.0324 H   0  0  0  0  0  0  0  0  0  0  0  0
    0.0300    1.7710   -0.3599 H   0  0  0  0  0  0  0  0  0  0  0  0
   -0.2463    0.0580   -0.8287 H   0  0  0  0  0  0  0  0  0  0  0  0
   -0.4039   -0.6881    1.4976 H   0  0  0  0  0  0  0  0  0  0  0  0
   -0.2575    0.9796    2.0931 H   0  0  0  0  0  0  0  0  0  0  0  0
    1.7899   -0.5738    0.4099 H   0  0  0  0  0  0  0  0  0  0  0  0
    1.8843   -0.3206    2.1601 H   0  0  0  0  0  0  0  0  0  0  0  0
    2.1022    2.1574    1.7798 H   0  0  0  0  0  0  0  0  0  0  0  0
    2.0237    1.8516   -0.0316 H   0  0  0  0  0  0  0  0  0  0  0  0
    3.9305    0.5252    1.8912 H   0  0  0  0  0  0  0  0  0  0  0  0
    4.3760    1.9277    0.7703 H   0  0  0  0  0  0  0  0  0  0  0  0
    4.5566   -1.6155   -1.8546 H   0  0  0  0  0  0  0  0  0  0  0  0
    6.7805   -2.5508   -2.3064 H   0  0  0  0  0  0  0  0  0  0  0  0
    8.7137   -1.7983   -0.9301 H   0  0  0  0  0  0  0  0  0  0  0  0
    9.2618    0.6797    0.7872 H   0  0  0  0  0  0  0  0  0  0  0  0
    6.1168    0.7703    1.2660 H   0  0  0  0  0  0  0  0  0  0  0  0
  1  2  1  0
  2  3  1  0
  3  4  1  0
  4  5  1  0
  5  6  1  0
  6  7  1  0
  7  8  1  0
  8  9  1  0
  9 10  1  0
 10 11  1  0
 11 12  1  0
 12 13  1  0
 13 14  1  0
 14 15  2  0
 15 16  1  0
 16 17  2  0
 17 18  1  0
 18 19  1  0
 18 20  2  0
 20 14  1  0
  1 21  1  0
  1 22  1  0
  1 23  1  0
  2 24  1  0
  2 25  1  0
  3 26  1  0
  3 27  1  0
  4 28  1  0
  4 29  1  0
  5 30  1  0
  5 31  1  0
  6 32  1  0
  6 33  1  0
  7 34  1  0
  7 35  1  0
  8 36  1  0
  8 37  1  0
  9 38  1  0
  9 39  1  0
 10 40  1  0
 10 41  1  0
 11 42  1  0
 11 43  1  0
 12 44  1  0
 12 45  1  0
 15 46  1  0
 16 47  1  0
 17 48  1  0
 19 49  1  0
 20 50  1  0
M  END
$$$$
[H]OC1(C#Cc2c([H])c([H])c([H])c([H])c2[H])C([H])([H])C([H])([H])N(c2nc3c([H])c(Br)c(C(F)(F)F)c([H])c3n([H])c2=O)C([H])([H])C1([H])[H]
     RDKit          3D

 48 51  0  0  0  0  0  0  0  0999 V2000
   -2.2326    1.9499    1.8455 O   0  0  0  0  0  0  0  0  0  0  0  0
   -1.9628    1.0073    0.8338 C   0  0  0  0  0  0  0  0  0  0  0  0
   -1.0586   -0.0243    1.4188 C   0  0  0  0  0  0  0  0  0  0  0  0
    0.1786    0.7044    1.9663 C   0  0  0  0  0  0  0  0  0  0  0  0
    0.7150    1.4359    0.7850 N   0  0  0  0  0  0  0  0  0  0  0  0
   -0.1352    2.4903    0.3248 C   0  0  0  0  0  0  0  0  0  0  0  0
   -1.3483    1.7848   -0.3131 C   0  0  0  0  0  0  0  0  0  0  0  0
    1.9498    1.0127    0.2971 C   0  0  0  0  0  0  0  0  0  0  0  0
    2.6929    0.1199    1.0257 N   0  0  0  0  0  0  0  0  0  0  0  0
    3.8786   -0.3345    0.6670 C   0  0  0  0  0  0  0  0  0  0  0  0
    4.5977   -1.2413    1.4397 C   0  0  0  0  0  0  0  0  0  0  0  0
    5.8437   -1.6870    1.0132 C   0  0  0  0  0  0  0  0  0  0  0  0
    6.7674   -2.9254    2.1213 Br  0  0  0  0  0  0  0  0  0  0  0  0
    6.4009   -1.2586   -0.1621 C   0  0  0  0  0  0  0  0  0  0  0  0
    5.6761   -0.3595   -0.9176 C   0  0  0  0  0  0  0  0  0  0  0  0
    4.4348    0.1025   -0.5210 C   0  0  0  0  0  0  0  0  0  0  0  0
    3.7425    0.9762   -1.2662 N   0  0  0  0  0  0  0  0  0  0  0  0
    2.5155    1.4345   -0.8767 C   0  0  0  0  0  0  0  0  0  0  0  0
    1.9094    2.2476   -1.6084 O   0  0  0  0  0  0  0  0  0  0  0  0
    7.7408   -1.7330   -0.6284 C   0  0  0  0  0  0  0  0  0  0  0  0
    8.0287   -1.1306   -1.8334 F   0  0  0  0  0  0  0  0  0  0  0  0
    8.6893   -1.4538    0.3422 F   0  0  0  0  0  0  0  0  0  0  0  0
    7.6304   -3.1167   -0.7903 F   0  0  0  0  0  0  0  0  0  0  0  0
   -3.1997    0.4074    0.3344 C   0  0  0  0  0  0  0  0  0  0  0  0
   -4.2311   -0.0711   -0.0874 C   0  0  0  0  0  0  0  0  0  0  0  0
   -5.4572   -0.6127   -0.5882 C   0  0  0  0  0  0  0  0  0  0  0  0
   -6.3265    0.1464   -1.3434 C   0  0  0  0  0  0  0  0  0  0  0  0
   -7.5103   -0.3473   -1.8371 C   0  0  0  0  0  0  0  0  0  0  0  0
   -7.8704   -1.6501   -1.5837 C   0  0  0  0  0  0  0  0  0  0  0  0
   -7.0296   -2.4284   -0.8378 C   0  0  0  0  0  0  0  0  0  0  0  0
   -5.8569   -1.9171   -0.3565 C   0  0  0  0  0  0  0  0  0  0  0  0
   -3.2136    2.0567    1.8947 H   0  0  0  0  0  0  0  0  0  0  0  0
   -0.6858   -0.7633    0.6904 H   0  0  0  0  0  0  0  0  0  0  0  0
   -1.6064   -0.5112    2.2502 H   0  0  0  0  0  0  0  0  0  0  0  0
   -0.1302    1.4141    2.7455 H   0  0  0  0  0  0  0  0  0  0  0  0
    0.8997   -0.0029    2.3691 H   0  0  0  0  0  0  0  0  0  0  0  0
    0.2919    3.2633   -0.2918 H   0  0  0  0  0  0  0  0  0  0  0  0
   -0.5828    2.9733    1.2463 H   0  0  0  0  0  0  0  0  0  0  0  0
   -0.9847    1.1151   -1.1167 H   0  0  0  0  0  0  0  0  0  0  0  0
   -2.0854    2.4966   -0.6829 H   0  0  0  0  0  0  0  0  0  0  0  0
    4.1562   -1.5694    2.3533 H   0  0  0  0  0  0  0  0  0  0  0  0
    6.0660    0.0072   -1.8451 H   0  0  0  0  0  0  0  0  0  0  0  0
    4.1496    1.3141   -2.1640 H   0  0  0  0  0  0  0  0  0  0  0  0
   -6.0112    1.1783   -1.5271 H   0  0  0  0  0  0  0  0  0  0  0  0
   -8.1561    0.2903   -2.4240 H   0  0  0  0  0  0  0  0  0  0  0  0
   -8.8223   -2.0480   -1.9804 H   0  0  0  0  0  0  0  0  0  0  0  0
   -7.2873   -3.4460   -0.6266 H   0  0  0  0  0  0  0  0  0  0  0  0
   -5.1704   -2.5333    0.2458 H   0  0  0  0  0  0  0  0  0  0  0  0
  1  2  1  0
  2  3  1  0
  3  4  1  0
  4  5  1  0
  5  6  1  0
  6  7  1  0
  5  8  1  0
  8  9  2  0
  9 10  1  0
 10 11  2  0
 11 12  1  0
 12 13  1  0
 12 14  2  0
 14 15  1  0
 15 16  2  0
 16 17  1  0
 17 18  1  0
 18 19  2  0
 14 20  1  0
 20 21  1  0
 20 22  1  0
 20 23  1  0
  2 24  1  0
 24 25  3  0
 25 26  1  0
 26 27  2  0
 27 28  1  0
 28 29  2  0
 29 30  1  0
 30 31  2  0
  7  2  1  0
 18  8  1  0
 31 26  1  0
 16 10  1  0
  1 32  1  0
  3 33  1  0
  3 34  1  0
  4 35  1  0
  4 36  1  0
  6 37  1  0
  6 38  1  0
  7 39  1  0
  7 40  1  0
 11 41  1  0
 15 42  1  0
 17 43  1  0
 27 44  1  0
 28 45  1  0
 29 46  1  0
 30 47  1  0
 31 48  1  0
M  END
$$$$
[H]O[C@]1([H])[C@@]([H])(C([H])([H])OS(=O)(=O)N([H])C(=O)[C@@]([H])(N([H])[H])C([H])([H])C([H])([H])[H])O[C@@]([H])(n2c([H])nc3c(N([H])[H])nc([H])nc32)[C@]1([H])O[H]
     RDKit          3D

 50 52  0  0  0  0  0  0  0  0999 V2000
    6.9503   -0.8856   -0.0227 C   0  0  0  0  0  0  0  0  0  0  0  0
    7.1345    0.3951   -0.7881 C   0  0  0  0  0  0  0  0  0  0  0  0
    5.8426    1.1732   -0.9101 C   0  0  2  0  0  0  0  0  0  0  0  0
    5.3348    1.5152    0.4122 N   0  0  0  0  0  0  0  0  0  0  0  0
    4.8618    0.3650   -1.6671 C   0  0  0  0  0  0  0  0  0  0  0  0
    5.1200    0.0402   -2.8460 O   0  0  0  0  0  0  0  0  0  0  0  0
    3.6479   -0.0391   -1.0828 N   0  0  0  0  0  0  0  0  0  0  0  0
    2.4834   -0.9623   -1.9322 S   0  0  0  0  0  0  0  0  0  0  0  0
    2.9678   -2.3963   -2.1263 O   0  0  0  0  0  0  0  0  0  0  0  0
    2.2627   -0.3446   -3.3084 O   0  0  0  0  0  0  0  0  0  0  0  0
    0.9903   -0.9662   -1.1765 O   0  0  0  0  0  0  0  0  0  0  0  0
    0.7650    0.2270   -0.5557 C   0  0  0  0  0  0  0  0  0  0  0  0
   -0.5225    0.3985    0.1491 C   0  0  1  0  0  0  0  0  0  0  0  0
   -1.6735    0.3058   -0.6042 O   0  0  0  0  0  0  0  0  0  0  0  0
   -2.6227    0.4620    0.4450 C   0  0  2  0  0  0  0  0  0  0  0  0
   -2.2555   -0.6105    1.4118 C   0  0  2  0  0  0  0  0  0  0  0  0
   -2.3503   -0.1232    2.7323 O   0  0  0  0  0  0  0  0  0  0  0  0
   -0.7485   -0.7410    1.1367 C   0  0  2  0  0  0  0  0  0  0  0  0
    0.0143   -0.5260    2.2575 O   0  0  0  0  0  0  0  0  0  0  0  0
   -3.9582    0.4271   -0.0305 N   0  0  0  0  0  0  0  0  0  0  0  0
   -4.4390    0.8647   -1.2196 C   0  0  0  0  0  0  0  0  0  0  0  0
   -5.7673    0.6616   -1.2710 N   0  0  0  0  0  0  0  0  0  0  0  0
   -6.1714    0.0961   -0.1336 C   0  0  0  0  0  0  0  0  0  0  0  0
   -7.4306   -0.3021    0.2963 C   0  0  0  0  0  0  0  0  0  0  0  0
   -8.6022   -0.1566   -0.4783 N   0  0  0  0  0  0  0  0  0  0  0  0
   -7.4772   -0.8438    1.5269 N   0  0  0  0  0  0  0  0  0  0  0  0
   -6.3864   -0.9977    2.3028 C   0  0  0  0  0  0  0  0  0  0  0  0
   -5.1882   -0.5989    1.8465 N   0  0  0  0  0  0  0  0  0  0  0  0
   -5.0317   -0.0440    0.6286 C   0  0  0  0  0  0  0  0  0  0  0  0
    7.5352   -1.6951   -0.5021 H   0  0  0  0  0  0  0  0  0  0  0  0
    7.3276   -0.7669    1.0113 H   0  0  0  0  0  0  0  0  0  0  0  0
    5.9041   -1.2115   -0.0195 H   0  0  0  0  0  0  0  0  0  0  0  0
    7.5449    0.1798   -1.7799 H   0  0  0  0  0  0  0  0  0  0  0  0
    7.8483    1.0989   -0.2728 H   0  0  0  0  0  0  0  0  0  0  0  0
    6.0539    2.1176   -1.4263 H   0  0  0  0  0  0  0  0  0  0  0  0
    5.1499    0.6635    0.9824 H   0  0  0  0  0  0  0  0  0  0  0  0
    4.4174    1.9926    0.2342 H   0  0  0  0  0  0  0  0  0  0  0  0
    3.4692    0.2354   -0.1049 H   0  0  0  0  0  0  0  0  0  0  0  0
    1.5671    0.3589    0.2339 H   0  0  0  0  0  0  0  0  0  0  0  0
    0.8675    1.0411   -1.3234 H   0  0  0  0  0  0  0  0  0  0  0  0
   -0.4970    1.3882    0.6673 H   0  0  0  0  0  0  0  0  0  0  0  0
   -2.3383    1.4331    0.9112 H   0  0  0  0  0  0  0  0  0  0  0  0
   -2.7507   -1.5714    1.2783 H   0  0  0  0  0  0  0  0  0  0  0  0
   -1.9164    0.7868    2.7157 H   0  0  0  0  0  0  0  0  0  0  0  0
   -0.5073   -1.6759    0.6075 H   0  0  0  0  0  0  0  0  0  0  0  0
    0.9468   -0.8073    2.0130 H   0  0  0  0  0  0  0  0  0  0  0  0
   -3.8329    1.3110   -2.0065 H   0  0  0  0  0  0  0  0  0  0  0  0
   -9.3348    0.5007   -0.1744 H   0  0  0  0  0  0  0  0  0  0  0  0
   -8.7167   -0.7050   -1.3406 H   0  0  0  0  0  0  0  0  0  0  0  0
   -6.4879   -1.4529    3.3030 H   0  0  0  0  0  0  0  0  0  0  0  0
  1  2  1  0
  2  3  1  0
  3  4  1  0
  3  5  1  0
  5  6  2  0
  5  7  1  0
  7  8  1  0
  8  9  2  0
  8 10  2  0
  8 11  1  0
 11 12  1  0
 12 13  1  0
 13 14  1  0
 14 15  1  0
 15 16  1  0
 16 17  1  0
 16 18  1  0
 18 19  1  0
 15 20  1  0
 20 21  1  0
 21 22  2  0
 22 23  1  0
 23 24  2  0
 24 25  1  0
 24 26  1  0
 26 27  2  0
 27 28  1  0
 28 29  2  0
 18 13  1  0
 29 20  1  0
 29 23  1  0
  1 30  1  0
  1 31  1  0
  1 32  1  0
  2 33  1  0
  2 34  1  0
  3 35  1  6
  4 36  1  0
  4 37  1  0
  7 38  1  0
 12 39  1  0
 12 40  1  0
 13 41  1  1
 15 42  1  1
 16 43  1  1
 17 44  1  0
 18 45  1  6
 19 46  1  0
 21 47  1  0
 25 48  1  0
 25 49  1  0
 27 50  1  0
M  END
$$$$
[H]c1c(N2C([H])([H])C([H])([H])N(C([H])([H])C3([H])C([H])([H])C([H])([H])C([H])([H])C3([H])[H])C([H])([H])C2([H])[H])nc(C(=O)C([H])([H])C([H])([H])C([H])([H])[H])c(N([H])[H])c1[H]
     RDKit          3D

 54 56  0  0  0  0  0  0  0  0999 V2000
   -4.4200    0.8933    0.5830 C   0  0  0  0  0  0  0  0  0  0  0  0
   -3.0368    1.1837    0.2724 C   0  0  0  0  0  0  0  0  0  0  0  0
   -2.3187    0.4872   -0.7597 N   0  0  0  0  0  0  0  0  0  0  0  0
   -1.0393    1.1857   -0.8250 C   0  0  0  0  0  0  0  0  0  0  0  0
    0.0528    0.4664   -1.5092 C   0  0  0  0  0  0  0  0  0  0  0  0
    0.1386   -0.8530   -0.8450 N   0  0  0  0  0  0  0  0  0  0  0  0
    1.2850   -1.2539   -0.1522 C   0  0  0  0  0  0  0  0  0  0  0  0
    1.3457   -2.4486    0.5137 C   0  0  0  0  0  0  0  0  0  0  0  0
    2.4870   -2.8367    1.1934 C   0  0  0  0  0  0  0  0  0  0  0  0
    3.5596   -1.9829    1.1789 C   0  0  0  0  0  0  0  0  0  0  0  0
    4.7215   -2.3803    1.8718 N   0  0  0  0  0  0  0  0  0  0  0  0
    3.5191   -0.7739    0.5138 C   0  0  0  0  0  0  0  0  0  0  0  0
    4.6921    0.1009    0.5288 C   0  0  0  0  0  0  0  0  0  0  0  0
    4.7143    1.4006   -0.1589 C   0  0  0  0  0  0  0  0  0  0  0  0
    6.0377    2.1145    0.0049 C   0  0  0  0  0  0  0  0  0  0  0  0
    7.1873    1.3293   -0.5438 C   0  0  0  0  0  0  0  0  0  0  0  0
    5.7185   -0.2612    1.1462 O   0  0  0  0  0  0  0  0  0  0  0  0
    2.3942   -0.4657   -0.1164 N   0  0  0  0  0  0  0  0  0  0  0  0
   -1.0331   -1.6411   -0.9893 C   0  0  0  0  0  0  0  0  0  0  0  0
   -2.2515   -0.8933   -0.4975 C   0  0  0  0  0  0  0  0  0  0  0  0
   -4.8774   -0.4260    1.0565 C   0  0  0  0  0  0  0  0  0  0  0  0
   -6.4001   -0.1892    1.1678 C   0  0  0  0  0  0  0  0  0  0  0  0
   -6.7297    0.7185    0.0088 C   0  0  0  0  0  0  0  0  0  0  0  0
   -5.4206    1.3166   -0.4930 C   0  0  0  0  0  0  0  0  0  0  0  0
   -4.6982    1.6149    1.4490 H   0  0  0  0  0  0  0  0  0  0  0  0
   -2.4389    1.0006    1.2427 H   0  0  0  0  0  0  0  0  0  0  0  0
   -2.8524    2.3042    0.1536 H   0  0  0  0  0  0  0  0  0  0  0  0
   -1.2296    2.1426   -1.3696 H   0  0  0  0  0  0  0  0  0  0  0  0
   -0.7220    1.4119    0.2098 H   0  0  0  0  0  0  0  0  0  0  0  0
   -0.1051    0.2941   -2.5876 H   0  0  0  0  0  0  0  0  0  0  0  0
    1.0053    0.9784   -1.2823 H   0  0  0  0  0  0  0  0  0  0  0  0
    0.5021   -3.1516    0.5435 H   0  0  0  0  0  0  0  0  0  0  0  0
    2.5008   -3.7909    1.7107 H   0  0  0  0  0  0  0  0  0  0  0  0
    5.5439   -2.7138    1.3480 H   0  0  0  0  0  0  0  0  0  0  0  0
    4.7482   -2.3371    2.9006 H   0  0  0  0  0  0  0  0  0  0  0  0
    3.9206    2.0885    0.1921 H   0  0  0  0  0  0  0  0  0  0  0  0
    4.5869    1.2029   -1.2518 H   0  0  0  0  0  0  0  0  0  0  0  0
    5.9632    3.0646   -0.5839 H   0  0  0  0  0  0  0  0  0  0  0  0
    6.2575    2.3353    1.0731 H   0  0  0  0  0  0  0  0  0  0  0  0
    7.9194    2.0344   -1.0112 H   0  0  0  0  0  0  0  0  0  0  0  0
    6.8668    0.6593   -1.3815 H   0  0  0  0  0  0  0  0  0  0  0  0
    7.7603    0.7788    0.2338 H   0  0  0  0  0  0  0  0  0  0  0  0
   -1.0513   -2.6204   -0.5131 H   0  0  0  0  0  0  0  0  0  0  0  0
   -1.1633   -1.7881   -2.1117 H   0  0  0  0  0  0  0  0  0  0  0  0
   -2.3548   -1.1611    0.5726 H   0  0  0  0  0  0  0  0  0  0  0  0
   -3.0976   -1.3735   -1.0949 H   0  0  0  0  0  0  0  0  0  0  0  0
   -4.6850   -1.3124    0.4802 H   0  0  0  0  0  0  0  0  0  0  0  0
   -4.5531   -0.6368    2.1156 H   0  0  0  0  0  0  0  0  0  0  0  0
   -6.6442    0.2931    2.1322 H   0  0  0  0  0  0  0  0  0  0  0  0
   -6.9277   -1.1615    1.1461 H   0  0  0  0  0  0  0  0  0  0  0  0
   -7.2433    0.1333   -0.8030 H   0  0  0  0  0  0  0  0  0  0  0  0
   -7.4475    1.4920    0.3301 H   0  0  0  0  0  0  0  0  0  0  0  0
   -5.5421    2.4171   -0.4808 H   0  0  0  0  0  0  0  0  0  0  0  0
   -5.1451    1.0105   -1.4972 H   0  0  0  0  0  0  0  0  0  0  0  0
  1  2  1  0
  2  3  1  0
  3  4  1  0
  4  5  1  0
  5  6  1  0
  6  7  1  0
  7  8  2  0
  8  9  1  0
  9 10  2  0
 10 11  1  0
 10 12  1  0
 12 13  1  0
 13 14  1  0
 14 15  1  0
 15 16  1  0
 13 17  2  0
 12 18  2  0
  6 19  1  0
 19 20  1  0
  1 21  1  0
 21 22  1  0
 22 23  1  0
 23 24  1  0
 24  1  1  0
 20  3  1  0
 18  7  1  0
  1 25  1  0
  2 26  1  0
  2 27  1  0
  4 28  1  0
  4 29  1  0
  5 30  1  0
  5 31  1  0
  8 32  1  0
  9 33  1  0
 11 34  1  0
 11 35  1  0
 14 36  1  0
 14 37  1  0
 15 38  1  0
 15 39  1  0
 16 40  1  0
 16 41  1  0
 16 42  1  0
 19 43  1  0
 19 44  1  0
 20 45  1  0
 20 46  1  0
 21 47  1  0
 21 48  1  0
 22 49  1  0
 22 50  1  0
 23 51  1  0
 23 52  1  0
 24 53  1  0
 24 54  1  0
M  END
$$$$
[H]c1nc2c(nc([H])c(=O)n2[H])c(Oc2c([H])c([H])c(N([H])C(=O)N([H])c3c([H])c(C(C([H])([H])[H])(C([H])([H])[H])C([H])([H])[H])nn3-c3c([H])c([H])c(OC([H])([H])[H])c([H])c3[H])c3c([H])c([H])c([H])c([H])c23)c1[H]
     RDKit          3D

 72 77  0  0  0  0  0  0  0  0999 V2000
   -5.1485    6.2319   -1.4754 C   0  0  0  0  0  0  0  0  0  0  0  0
   -5.2814    5.0522   -2.2976 O   0  0  0  0  0  0  0  0  0  0  0  0
   -5.0233    3.8127   -1.7209 C   0  0  0  0  0  0  0  0  0  0  0  0
   -4.6121    3.6866   -0.4155 C   0  0  0  0  0  0  0  0  0  0  0  0
   -4.3702    2.4664    0.1584 C   0  0  0  0  0  0  0  0  0  0  0  0
   -4.5135    1.3176   -0.5218 C   0  0  0  0  0  0  0  0  0  0  0  0
   -4.9297    1.4170   -1.8771 C   0  0  0  0  0  0  0  0  0  0  0  0
   -5.1767    2.6579   -2.4504 C   0  0  0  0  0  0  0  0  0  0  0  0
   -4.3540    0.0232    0.0620 N   0  0  0  0  0  0  0  0  0  0  0  0
   -5.4522   -0.7221    0.2962 N   0  0  0  0  0  0  0  0  0  0  0  0
   -5.1548   -1.8679    0.8495 C   0  0  0  0  0  0  0  0  0  0  0  0
   -3.7813   -1.8573    0.9863 C   0  0  0  0  0  0  0  0  0  0  0  0
   -3.2545   -0.6207    0.4671 C   0  0  0  0  0  0  0  0  0  0  0  0
   -1.8810   -0.4983    0.3884 N   0  0  0  0  0  0  0  0  0  0  0  0
   -1.0655    0.3675   -0.4308 C   0  0  0  0  0  0  0  0  0  0  0  0
   -1.6012    1.1091   -1.2349 O   0  0  0  0  0  0  0  0  0  0  0  0
    0.3158    0.3383   -0.2974 N   0  0  0  0  0  0  0  0  0  0  0  0
    1.6429    0.3157   -0.1752 C   0  0  0  0  0  0  0  0  0  0  0  0
    2.4008    1.4529   -0.5463 C   0  0  0  0  0  0  0  0  0  0  0  0
    3.7237    1.5280   -0.3982 C   0  0  0  0  0  0  0  0  0  0  0  0
    4.4334    0.4368    0.1503 C   0  0  0  0  0  0  0  0  0  0  0  0
    5.7870    0.6864    0.2057 O   0  0  0  0  0  0  0  0  0  0  0  0
    6.7849    0.1516   -0.5506 C   0  0  0  0  0  0  0  0  0  0  0  0
    6.6911   -0.8769   -1.4339 C   0  0  0  0  0  0  0  0  0  0  0  0
    7.7958   -1.3436   -2.1707 C   0  0  0  0  0  0  0  0  0  0  0  0
    8.9621   -0.7415   -1.9867 N   0  0  0  0  0  0  0  0  0  0  0  0
    9.1116    0.2926   -1.1223 C   0  0  0  0  0  0  0  0  0  0  0  0
   10.3210    0.8882   -1.0250 N   0  0  0  0  0  0  0  0  0  0  0  0
   10.4976    1.9366   -0.2032 C   0  0  0  0  0  0  0  0  0  0  0  0
   11.6159    2.5067   -0.1157 O   0  0  0  0  0  0  0  0  0  0  0  0
    9.3915    2.3905    0.5414 C   0  0  0  0  0  0  0  0  0  0  0  0
    8.2003    1.7984    0.4356 N   0  0  0  0  0  0  0  0  0  0  0  0
    8.0489    0.7509   -0.3982 C   0  0  0  0  0  0  0  0  0  0  0  0
    3.7456   -0.6530    0.5200 C   0  0  0  0  0  0  0  0  0  0  0  0
    4.4464   -1.7085    1.0917 C   0  0  0  0  0  0  0  0  0  0  0  0
    3.8154   -2.8434    1.5129 C   0  0  0  0  0  0  0  0  0  0  0  0
    2.4597   -2.9194    1.3651 C   0  0  0  0  0  0  0  0  0  0  0  0
    1.7586   -1.8812    0.8004 C   0  0  0  0  0  0  0  0  0  0  0  0
    2.3677   -0.7263    0.3660 C   0  0  0  0  0  0  0  0  0  0  0  0
   -6.0302   -3.0302    1.2522 C   0  0  0  0  0  0  0  0  0  0  0  0
   -7.3181   -3.0055    0.4272 C   0  0  0  0  0  0  0  0  0  0  0  0
   -5.3302   -4.3405    0.9722 C   0  0  0  0  0  0  0  0  0  0  0  0
   -6.3821   -2.9770    2.6908 C   0  0  0  0  0  0  0  0  0  0  0  0
   -4.1233    6.4052   -1.1982 H   0  0  0  0  0  0  0  0  0  0  0  0
   -5.4299    7.0810   -2.1572 H   0  0  0  0  0  0  0  0  0  0  0  0
   -5.7751    6.1634   -0.5693 H   0  0  0  0  0  0  0  0  0  0  0  0
   -4.4773    4.6434    0.1192 H   0  0  0  0  0  0  0  0  0  0  0  0
   -4.0775    2.4880    1.2003 H   0  0  0  0  0  0  0  0  0  0  0  0
   -5.0460    0.4887   -2.3927 H   0  0  0  0  0  0  0  0  0  0  0  0
   -5.5186    2.6876   -3.4862 H   0  0  0  0  0  0  0  0  0  0  0  0
   -3.2396   -2.6523    1.4112 H   0  0  0  0  0  0  0  0  0  0  0  0
   -1.3295   -1.1379    1.0767 H   0  0  0  0  0  0  0  0  0  0  0  0
    0.4301    0.7515   -1.6111 H   0  0  0  0  0  0  0  0  0  0  0  0
    1.8307    2.2987   -0.9775 H   0  0  0  0  0  0  0  0  0  0  0  0
    4.3120    2.3972   -0.6848 H   0  0  0  0  0  0  0  0  0  0  0  0
    5.7565   -1.3432   -1.6231 H   0  0  0  0  0  0  0  0  0  0  0  0
    7.6624   -2.1662   -2.8732 H   0  0  0  0  0  0  0  0  0  0  0  0
   11.1207    0.5356   -1.5878 H   0  0  0  0  0  0  0  0  0  0  0  0
    9.5921    3.2252    1.1754 H   0  0  0  0  0  0  0  0  0  0  0  0
    5.5308   -1.6576    1.2623 H   0  0  0  0  0  0  0  0  0  0  0  0
    4.3610   -3.6651    1.9604 H   0  0  0  0  0  0  0  0  0  0  0  0
    1.8941   -3.7528    1.6919 H   0  0  0  0  0  0  0  0  0  0  0  0
    0.7028   -1.9648    0.6647 H   0  0  0  0  0  0  0  0  0  0  0  0
   -7.9166   -3.9099    0.6408 H   0  0  0  0  0  0  0  0  0  0  0  0
   -7.0866   -2.8670   -0.6285 H   0  0  0  0  0  0  0  0  0  0  0  0
   -7.9428   -2.1561    0.7466 H   0  0  0  0  0  0  0  0  0  0  0  0
   -4.3061   -4.3632    1.4266 H   0  0  0  0  0  0  0  0  0  0  0  0
   -5.1869   -4.4345   -0.1227 H   0  0  0  0  0  0  0  0  0  0  0  0
   -5.8896   -5.1825    1.3920 H   0  0  0  0  0  0  0  0  0  0  0  0
   -6.5953   -3.9989    3.0352 H   0  0  0  0  0  0  0  0  0  0  0  0
   -7.3316   -2.3635    2.8482 H   0  0  0  0  0  0  0  0  0  0  0  0
   -5.5784   -2.5527    3.3106 H   0  0  0  0  0  0  0  0  0  0  0  0
  1  2  1  0
  2  3  1  0
  3  4  2  0
  4  5  1  0
  5  6  2  0
  6  7  1  0
  7  8  2  0
  6  9  1  0
  9 10  1  0
 10 11  2  0
 11 12  1  0
 12 13  2  0
 13 14  1  0
 14 15  1  0
 15 16  2  0
 15 17  1  0
 17 18  1  0
 18 19  2  0
 19 20  1  0
 20 21  2  0
 21 22  1  0
 22 23  1  0
 23 24  2  0
 24 25  1  0
 25 26  2  0
 26 27  1  0
 27 28  1  0
 28 29  1  0
 29 30  2  0
 29 31  1  0
 31 32  2  0
 32 33  1  0
 21 34  1  0
 34 35  2  0
 35 36  1  0
 36 37  2  0
 37 38  1  0
 38 39  2  0
 11 40  1  0
 40 41  1  0
 40 42  1  0
 40 43  1  0
  8  3  1  0
 13  9  1  0
 39 18  1  0
 33 23  1  0
 39 34  1  0
 33 27  2  0
  1 44  1  0
  1 45  1  0
  1 46  1  0
  4 47  1  0
  5 48  1  0
  7 49  1  0
  8 50  1  0
 12 51  1  0
 14 52  1  0
 17 53  1  0
 19 54  1  0
 20 55  1  0
 24 56  1  0
 25 57  1  0
 28 58  1  0
 31 59  1  0
 35 60  1  0
 36 61  1  0
 37 62  1  0
 38 63  1  0
 41 64  1  0
 41 65  1  0
 41 66  1  0
 42 67  1  0
 42 68  1  0
 42 69  1  0
 43 70  1  0
 43 71  1  0
 43 72  1  0
M  END
$$$$
[H]c1nc(N([H])c2c([H])c([H])c(N3C([H])([H])C([H])([H])N(C([H])([H])[H])C([H])([H])C3([H])[H])c([H])c2[H])nc(-c2c([H])c([H])c(OC([H])([H])[H])c(C(F)(F)F)c2[H])c1C(=O)N([H])[H]
     RDKit          3D

 60 63  0  0  0  0  0  0  0  0999 V2000
   -6.3032   -1.2782    0.6176 C   0  0  0  0  0  0  0  0  0  0  0  0
   -6.8103   -2.4962    1.3356 C   0  0  0  0  0  0  0  0  0  0  0  0
   -7.9288   -2.1057    2.0727 F   0  0  0  0  0  0  0  0  0  0  0  0
   -5.8621   -2.9403    2.2123 F   0  0  0  0  0  0  0  0  0  0  0  0
   -7.1227   -3.4954    0.4448 F   0  0  0  0  0  0  0  0  0  0  0  0
   -5.0343   -0.8340    0.8559 C   0  0  0  0  0  0  0  0  0  0  0  0
   -4.5857    0.3044    0.1728 C   0  0  0  0  0  0  0  0  0  0  0  0
   -3.1857    0.7202    0.3746 C   0  0  0  0  0  0  0  0  0  0  0  0
   -2.2263   -0.1739    0.0909 N   0  0  0  0  0  0  0  0  0  0  0  0
   -0.8880    0.0617    0.2094 C   0  0  0  0  0  0  0  0  0  0  0  0
    0.0458   -0.9307   -0.1342 N   0  0  0  0  0  0  0  0  0  0  0  0
    1.4364   -0.8495   -0.0536 C   0  0  0  0  0  0  0  0  0  0  0  0
    2.1927   -1.7264   -0.8507 C   0  0  0  0  0  0  0  0  0  0  0  0
    3.5563   -1.6936   -0.7804 C   0  0  0  0  0  0  0  0  0  0  0  0
    4.2520   -0.8401    0.0371 C   0  0  0  0  0  0  0  0  0  0  0  0
    5.6633   -0.7969    0.1211 N   0  0  0  0  0  0  0  0  0  0  0  0
    6.3031    0.2008    0.9944 C   0  0  0  0  0  0  0  0  0  0  0  0
    7.7820    0.2623    0.8269 C   0  0  0  0  0  0  0  0  0  0  0  0
    8.2444    0.1499   -0.5153 N   0  0  0  0  0  0  0  0  0  0  0  0
    8.4776    1.4090   -1.1691 C   0  0  0  0  0  0  0  0  0  0  0  0
    7.5943   -0.8245   -1.3197 C   0  0  0  0  0  0  0  0  0  0  0  0
    6.5794   -1.6543   -0.5773 C   0  0  0  0  0  0  0  0  0  0  0  0
    3.5023    0.0170    0.8166 C   0  0  0  0  0  0  0  0  0  0  0  0
    2.0924    0.0072    0.7670 C   0  0  0  0  0  0  0  0  0  0  0  0
   -0.5878    1.2885    0.6429 N   0  0  0  0  0  0  0  0  0  0  0  0
   -1.4434    2.2427    0.9519 C   0  0  0  0  0  0  0  0  0  0  0  0
   -2.8268    1.9650    0.8198 C   0  0  0  0  0  0  0  0  0  0  0  0
   -3.7265    2.9993    1.2714 C   0  0  0  0  0  0  0  0  0  0  0  0
   -5.0489    2.7506    1.6530 N   0  0  0  0  0  0  0  0  0  0  0  0
   -3.3236    4.1850    1.3398 O   0  0  0  0  0  0  0  0  0  0  0  0
   -5.3813    0.9694   -0.7145 C   0  0  0  0  0  0  0  0  0  0  0  0
   -6.6597    0.5106   -0.9456 C   0  0  0  0  0  0  0  0  0  0  0  0
   -7.1158   -0.6126   -0.2779 C   0  0  0  0  0  0  0  0  0  0  0  0
   -8.3967   -1.1055   -0.4835 O   0  0  0  0  0  0  0  0  0  0  0  0
   -9.2759   -0.4697   -1.3862 C   0  0  0  0  0  0  0  0  0  0  0  0
   -4.4084   -1.3521    1.5499 H   0  0  0  0  0  0  0  0  0  0  0  0
   -0.3975   -1.8470   -0.4970 H   0  0  0  0  0  0  0  0  0  0  0  0
    1.6617   -2.4220   -1.5160 H   0  0  0  0  0  0  0  0  0  0  0  0
    4.1241   -2.3792   -1.4052 H   0  0  0  0  0  0  0  0  0  0  0  0
    6.0801   -0.1285    2.0303 H   0  0  0  0  0  0  0  0  0  0  0  0
    5.8093    1.1966    0.8636 H   0  0  0  0  0  0  0  0  0  0  0  0
    8.1136    1.2682    1.2085 H   0  0  0  0  0  0  0  0  0  0  0  0
    8.3252   -0.4735    1.4550 H   0  0  0  0  0  0  0  0  0  0  0  0
    8.1835    2.2538   -0.4807 H   0  0  0  0  0  0  0  0  0  0  0  0
    9.5435    1.5749   -1.4286 H   0  0  0  0  0  0  0  0  0  0  0  0
    7.8827    1.5489   -2.0827 H   0  0  0  0  0  0  0  0  0  0  0  0
    7.0794   -0.3638   -2.1896 H   0  0  0  0  0  0  0  0  0  0  0  0
    8.3567   -1.5178   -1.7321 H   0  0  0  0  0  0  0  0  0  0  0  0
    6.1109   -2.4106   -1.2094 H   0  0  0  0  0  0  0  0  0  0  0  0
    7.1527   -2.2178    0.2178 H   0  0  0  0  0  0  0  0  0  0  0  0
    3.9364    0.7299    1.4963 H   0  0  0  0  0  0  0  0  0  0  0  0
    1.5771    0.6955    1.4193 H   0  0  0  0  0  0  0  0  0  0  0  0
   -1.1724    3.2251    1.2999 H   0  0  0  0  0  0  0  0  0  0  0  0
   -5.8423    3.3598    1.3196 H   0  0  0  0  0  0  0  0  0  0  0  0
   -5.3462    1.9630    2.2813 H   0  0  0  0  0  0  0  0  0  0  0  0
   -4.9888    1.8543   -1.2321 H   0  0  0  0  0  0  0  0  0  0  0  0
   -7.2974    1.0428   -1.6562 H   0  0  0  0  0  0  0  0  0  0  0  0
   -9.2576    0.6338   -1.1631 H   0  0  0  0  0  0  0  0  0  0  0  0
   -8.9144   -0.5680   -2.4263 H   0  0  0  0  0  0  0  0  0  0  0  0
  -10.3006   -0.8824   -1.2425 H   0  0  0  0  0  0  0  0  0  0  0  0
  1  2  1  0
  2  3  1  0
  2  4  1  0
  2  5  1  0
  1  6  2  0
  6  7  1  0
  7  8  1  0
  8  9  2  0
  9 10  1  0
 10 11  1  0
 11 12  1  0
 12 13  2  0
 13 14  1  0
 14 15  2  0
 15 16  1  0
 16 17  1  0
 17 18  1  0
 18 19  1  0
 19 20  1  0
 19 21  1  0
 21 22  1  0
 15 23  1  0
 23 24  2  0
 10 25  2  0
 25 26  1  0
 26 27  2  0
 27 28  1  0
 28 29  1  0
 28 30  2  0
  7 31  2  0
 31 32  1  0
 32 33  2  0
 33 34  1  0
 34 35  1  0
 33  1  1  0
 27  8  1  0
 24 12  1  0
 22 16  1  0
  6 36  1  0
 11 37  1  0
 13 38  1  0
 14 39  1  0
 17 40  1  0
 17 41  1  0
 18 42  1  0
 18 43  1  0
 20 44  1  0
 20 45  1  0
 20 46  1  0
 21 47  1  0
 21 48  1  0
 22 49  1  0
 22 50  1  0
 23 51  1  0
 24 52  1  0
 26 53  1  0
 29 54  1  0
 29 55  1  0
 31 56  1  0
 32 57  1  0
 35 58  1  0
 35 59  1  0
 35 60  1  0
M  END
$$$$
[H]OC(=O)c1c([H])c([H])c(-c2nc3c(OC([H])([H])C([H])=C([H])[H])c([H])c([H])c([H])c3c(=O)n2[H])c(OC([H])([H])[H])c1[H]
     RDKit          3D

 42 44  0  0  0  0  0  0  0  0999 V2000
    3.2909   -1.1727   -0.5197 C   0  0  0  0  0  0  0  0  0  0  0  0
    4.4196   -0.4489   -0.8224 C   0  0  0  0  0  0  0  0  0  0  0  0
    5.7072   -1.0862   -1.0953 C   0  0  0  0  0  0  0  0  0  0  0  0
    6.6833   -0.3679   -1.3617 O   0  0  0  0  0  0  0  0  0  0  0  0
    5.8654   -2.4678   -1.0643 O   0  0  0  0  0  0  0  0  0  0  0  0
    4.2952    0.9154   -0.8605 C   0  0  0  0  0  0  0  0  0  0  0  0
    3.0583    1.5315   -0.5988 C   0  0  0  0  0  0  0  0  0  0  0  0
    1.9272    0.8117   -0.2957 C   0  0  0  0  0  0  0  0  0  0  0  0
    0.6602    1.4921   -0.0052 C   0  0  0  0  0  0  0  0  0  0  0  0
    0.5814    2.8242    0.1023 N   0  0  0  0  0  0  0  0  0  0  0  0
   -0.5446    3.5213    0.3447 C   0  0  0  0  0  0  0  0  0  0  0  0
   -0.5684    4.7706    0.4371 O   0  0  0  0  0  0  0  0  0  0  0  0
   -1.7104    2.8237    0.4951 C   0  0  0  0  0  0  0  0  0  0  0  0
   -1.6630    1.4254    0.3878 C   0  0  0  0  0  0  0  0  0  0  0  0
   -2.8189    0.6968    0.5322 C   0  0  0  0  0  0  0  0  0  0  0  0
   -2.7835   -0.6809    0.4237 O   0  0  0  0  0  0  0  0  0  0  0  0
   -4.0600   -1.3227    0.5998 C   0  0  0  0  0  0  0  0  0  0  0  0
   -4.0046   -2.7801    0.4551 C   0  0  0  0  0  0  0  0  0  0  0  0
   -2.8967   -3.4521    0.1858 C   0  0  0  0  0  0  0  0  0  0  0  0
   -3.9950    1.3910    0.7829 C   0  0  0  0  0  0  0  0  0  0  0  0
   -4.0561    2.7696    0.8922 C   0  0  0  0  0  0  0  0  0  0  0  0
   -2.8966    3.4726    0.7442 C   0  0  0  0  0  0  0  0  0  0  0  0
   -0.5035    0.7944    0.1448 N   0  0  0  0  0  0  0  0  0  0  0  0
    2.0670   -0.5574   -0.2605 C   0  0  0  0  0  0  0  0  0  0  0  0
    0.9561   -1.3210    0.0423 O   0  0  0  0  0  0  0  0  0  0  0  0
    1.1618   -2.7454    0.0721 C   0  0  0  0  0  0  0  0  0  0  0  0
    3.4029   -2.2496   -0.4960 H   0  0  0  0  0  0  0  0  0  0  0  0
    6.7191   -2.8194   -0.6058 H   0  0  0  0  0  0  0  0  0  0  0  0
    5.1680    1.5184   -1.0964 H   0  0  0  0  0  0  0  0  0  0  0  0
    3.0337    2.6195   -0.6528 H   0  0  0  0  0  0  0  0  0  0  0  0
    1.4575    3.4025   -0.0011 H   0  0  0  0  0  0  0  0  0  0  0  0
   -4.7182   -0.9156   -0.1984 H   0  0  0  0  0  0  0  0  0  0  0  0
   -4.4861   -1.0402    1.5868 H   0  0  0  0  0  0  0  0  0  0  0  0
   -4.9187   -3.3301    0.5756 H   0  0  0  0  0  0  0  0  0  0  0  0
   -2.0032   -2.8501    0.0734 H   0  0  0  0  0  0  0  0  0  0  0  0
   -2.8810   -4.5224    0.0848 H   0  0  0  0  0  0  0  0  0  0  0  0
   -4.9233    0.8152    0.8989 H   0  0  0  0  0  0  0  0  0  0  0  0
   -4.9819    3.2698    1.0866 H   0  0  0  0  0  0  0  0  0  0  0  0
   -2.8414    4.5620    0.8126 H   0  0  0  0  0  0  0  0  0  0  0  0
    2.0240   -2.9729    0.7739 H   0  0  0  0  0  0  0  0  0  0  0  0
    0.2579   -3.2896    0.3954 H   0  0  0  0  0  0  0  0  0  0  0  0
    1.5183   -3.0346   -0.9374 H   0  0  0  0  0  0  0  0  0  0  0  0
  1  2  2  0
  2  3  1  0
  3  4  2  0
  3  5  1  0
  2  6  1  0
  6  7  2  0
  7  8  1  0
  8  9  1  0
  9 10  1  0
 10 11  1  0
 11 12  2  0
 11 13  1  0
 13 14  2  0
 14 15  1  0
 15 16  1  0
 16 17  1  0
 17 18  1  0
 18 19  2  3
 15 20  2  0
 20 21  1  0
 21 22  2  0
 14 23  1  0
  8 24  2  0
 24 25  1  0
 25 26  1  0
 24  1  1  0
 23  9  2  0
 22 13  1  0
  1 27  1  0
  5 28  1  0
  6 29  1  0
  7 30  1  0
 10 31  1  0
 17 32  1  0
 17 33  1  0
 18 34  1  0
 19 35  1  0
 19 36  1  0
 20 37  1  0
 21 38  1  0
 22 39  1  0
 26 40  1  0
 26 41  1  0
 26 42  1  0
M  END
$$$$
[H]c1c([H])c([H])c(C([H])([H])n2c([H])c([H])c3c([H])c(N([H])S(=O)(=O)c4c([H])c([H])c(C(C([H])([H])[H])(C([H])([H])[H])C([H])([H])[H])c([H])c4[H])c([H])c([H])c32)c([H])c1[H]
     RDKit          3D

 56 59  0  0  0  0  0  0  0  0999 V2000
   -6.9482   -1.8045    1.2341 C   0  0  0  0  0  0  0  0  0  0  0  0
   -6.7262   -0.5994    0.3852 C   0  0  0  0  0  0  0  0  0  0  0  0
   -7.6179   -0.7304   -0.8647 C   0  0  0  0  0  0  0  0  0  0  0  0
   -7.2228    0.6454    1.0829 C   0  0  0  0  0  0  0  0  0  0  0  0
   -5.3173   -0.4183   -0.0298 C   0  0  0  0  0  0  0  0  0  0  0  0
   -4.2330   -1.1187    0.4388 C   0  0  0  0  0  0  0  0  0  0  0  0
   -2.9321   -0.8701   -0.0431 C   0  0  0  0  0  0  0  0  0  0  0  0
   -2.6845    0.0610   -0.9855 C   0  0  0  0  0  0  0  0  0  0  0  0
   -3.8038    0.7813   -1.4657 C   0  0  0  0  0  0  0  0  0  0  0  0
   -5.0720    0.5511   -1.0064 C   0  0  0  0  0  0  0  0  0  0  0  0
   -1.1210    0.4772   -1.6822 S   0  0  0  0  0  0  0  0  0  0  0  0
   -1.3392    1.0033   -3.0819 O   0  0  0  0  0  0  0  0  0  0  0  0
   -0.3482   -0.8151   -1.7430 O   0  0  0  0  0  0  0  0  0  0  0  0
   -0.3144    1.6684   -0.7520 N   0  0  0  0  0  0  0  0  0  0  0  0
    0.9686    1.4434   -0.2526 C   0  0  0  0  0  0  0  0  0  0  0  0
    2.0020    1.2583   -1.1979 C   0  0  0  0  0  0  0  0  0  0  0  0
    3.3154    1.1714   -0.8235 C   0  0  0  0  0  0  0  0  0  0  0  0
    3.6420    1.2679    0.5248 C   0  0  0  0  0  0  0  0  0  0  0  0
    4.8622    1.2384    1.1462 N   0  0  0  0  0  0  0  0  0  0  0  0
    6.1012    1.1126    0.4372 C   0  0  0  0  0  0  0  0  0  0  0  0
    6.5898   -0.2454    0.2485 C   0  0  0  0  0  0  0  0  0  0  0  0
    5.7425   -1.3212    0.2261 C   0  0  0  0  0  0  0  0  0  0  0  0
    6.2266   -2.5917   -0.0154 C   0  0  0  0  0  0  0  0  0  0  0  0
    7.5783   -2.7506   -0.2334 C   0  0  0  0  0  0  0  0  0  0  0  0
    8.4673   -1.6851   -0.2186 C   0  0  0  0  0  0  0  0  0  0  0  0
    7.9401   -0.4339    0.0277 C   0  0  0  0  0  0  0  0  0  0  0  0
    4.6382    1.3894    2.4636 C   0  0  0  0  0  0  0  0  0  0  0  0
    3.2758    1.5184    2.6866 C   0  0  0  0  0  0  0  0  0  0  0  0
    2.6591    1.4427    1.4600 C   0  0  0  0  0  0  0  0  0  0  0  0
    1.3369    1.5273    1.0409 C   0  0  0  0  0  0  0  0  0  0  0  0
   -8.0310   -2.0987    1.1590 H   0  0  0  0  0  0  0  0  0  0  0  0
   -6.3593   -2.6875    0.9561 H   0  0  0  0  0  0  0  0  0  0  0  0
   -6.7842   -1.5497    2.3038 H   0  0  0  0  0  0  0  0  0  0  0  0
   -8.5859   -1.0854   -0.5053 H   0  0  0  0  0  0  0  0  0  0  0  0
   -7.1439   -1.3629   -1.6367 H   0  0  0  0  0  0  0  0  0  0  0  0
   -7.7893    0.3258   -1.2437 H   0  0  0  0  0  0  0  0  0  0  0  0
   -7.2551    1.4885    0.3207 H   0  0  0  0  0  0  0  0  0  0  0  0
   -6.5291    0.9945    1.8758 H   0  0  0  0  0  0  0  0  0  0  0  0
   -8.2538    0.5371    1.4521 H   0  0  0  0  0  0  0  0  0  0  0  0
   -4.3892   -1.8750    1.1948 H   0  0  0  0  0  0  0  0  0  0  0  0
   -2.0941   -1.4423    0.3510 H   0  0  0  0  0  0  0  0  0  0  0  0
   -3.5938    1.5337   -2.2240 H   0  0  0  0  0  0  0  0  0  0  0  0
   -5.9259    1.1114   -1.3952 H   0  0  0  0  0  0  0  0  0  0  0  0
   -0.8183    2.5730   -0.5555 H   0  0  0  0  0  0  0  0  0  0  0  0
    1.7418    1.1950   -2.2419 H   0  0  0  0  0  0  0  0  0  0  0  0
    4.1268    1.0301   -1.5253 H   0  0  0  0  0  0  0  0  0  0  0  0
    5.9753    1.5689   -0.5749 H   0  0  0  0  0  0  0  0  0  0  0  0
    6.8794    1.7527    0.9415 H   0  0  0  0  0  0  0  0  0  0  0  0
    4.6598   -1.2455    0.4120 H   0  0  0  0  0  0  0  0  0  0  0  0
    5.5380   -3.4362   -0.0260 H   0  0  0  0  0  0  0  0  0  0  0  0
    7.9545   -3.7424   -0.4127 H   0  0  0  0  0  0  0  0  0  0  0  0
    9.5204   -1.8801   -0.3971 H   0  0  0  0  0  0  0  0  0  0  0  0
    8.6325    0.3982    0.0374 H   0  0  0  0  0  0  0  0  0  0  0  0
    5.4296    1.4032    3.2022 H   0  0  0  0  0  0  0  0  0  0  0  0
    2.8368    1.6502    3.6558 H   0  0  0  0  0  0  0  0  0  0  0  0
    0.5926    1.6703    1.8304 H   0  0  0  0  0  0  0  0  0  0  0  0
  1  2  1  0
  2  3  1  0
  2  4  1  0
  2  5  1  0
  5  6  2  0
  6  7  1  0
  7  8  2  0
  8  9  1  0
  9 10  2  0
  8 11  1  0
 11 12  2  0
 11 13  2  0
 11 14  1  0
 14 15  1  0
 15 16  2  0
 16 17  1  0
 17 18  2  0
 18 19  1  0
 19 20  1  0
 20 21  1  0
 21 22  2  0
 22 23  1  0
 23 24  2  0
 24 25  1  0
 25 26  2  0
 19 27  1  0
 27 28  2  0
 28 29  1  0
 29 30  2  0
 10  5  1  0
 30 15  1  0
 29 18  1  0
 26 21  1  0
  1 31  1  0
  1 32  1  0
  1 33  1  0
  3 34  1  0
  3 35  1  0
  3 36  1  0
  4 37  1  0
  4 38  1  0
  4 39  1  0
  6 40  1  0
  7 41  1  0
  9 42  1  0
 10 43  1  0
 14 44  1  0
 16 45  1  0
 17 46  1  0
 20 47  1  0
 20 48  1  0
 22 49  1  0
 23 50  1  0
 24 51  1  0
 25 52  1  0
 26 53  1  0
 27 54  1  0
 28 55  1  0
 30 56  1  0
M  END
$$$$
[H]c1nc(-c2nc3nc(N([H])c4c([H])c([H])nc(C([H])([H])[H])c4[H])sc3c(N([H])[H])c2[H])c([H])c([H])c1[H]
     RDKit          3D

 38 41  0  0  0  0  0  0  0  0999 V2000
   -5.8327   -0.2248   -2.5284 C   0  0  0  0  0  0  0  0  0  0  0  0
   -5.5640   -0.4368   -1.0805 C   0  0  0  0  0  0  0  0  0  0  0  0
   -4.2950   -0.1716   -0.5602 C   0  0  0  0  0  0  0  0  0  0  0  0
   -3.9540   -0.3347    0.7448 C   0  0  0  0  0  0  0  0  0  0  0  0
   -2.6957   -0.1185    1.3434 N   0  0  0  0  0  0  0  0  0  0  0  0
   -1.4702   -0.0920    0.6154 C   0  0  0  0  0  0  0  0  0  0  0  0
   -0.2709    0.1352    1.1359 N   0  0  0  0  0  0  0  0  0  0  0  0
    0.7741    0.1128    0.3768 C   0  0  0  0  0  0  0  0  0  0  0  0
    2.0750    0.3278    0.7787 N   0  0  0  0  0  0  0  0  0  0  0  0
    3.0820    0.2835   -0.0692 C   0  0  0  0  0  0  0  0  0  0  0  0
    2.9505    0.0224   -1.4268 C   0  0  0  0  0  0  0  0  0  0  0  0
    1.6649   -0.1991   -1.8742 C   0  0  0  0  0  0  0  0  0  0  0  0
    1.3457   -0.4803   -3.2296 N   0  0  0  0  0  0  0  0  0  0  0  0
    0.6033   -0.1484   -0.9574 C   0  0  0  0  0  0  0  0  0  0  0  0
   -1.0894   -0.3485   -1.0295 S   0  0  0  0  0  0  0  0  0  0  0  0
    4.4406    0.5313    0.4812 C   0  0  0  0  0  0  0  0  0  0  0  0
    4.6551    0.7957    1.8089 C   0  0  0  0  0  0  0  0  0  0  0  0
    5.9407    1.0265    2.3096 C   0  0  0  0  0  0  0  0  0  0  0  0
    7.0167    0.9874    1.4491 C   0  0  0  0  0  0  0  0  0  0  0  0
    6.7599    0.7186    0.1225 C   0  0  0  0  0  0  0  0  0  0  0  0
    5.4966    0.4978   -0.3365 N   0  0  0  0  0  0  0  0  0  0  0  0
   -4.9906   -0.8032    1.5783 C   0  0  0  0  0  0  0  0  0  0  0  0
   -6.2345   -1.0636    1.0720 C   0  0  0  0  0  0  0  0  0  0  0  0
   -6.4924   -0.8786   -0.2257 N   0  0  0  0  0  0  0  0  0  0  0  0
   -6.9034   -0.0417   -2.7233 H   0  0  0  0  0  0  0  0  0  0  0  0
   -5.5796   -1.1869   -3.0349 H   0  0  0  0  0  0  0  0  0  0  0  0
   -5.1714    0.5378   -2.9676 H   0  0  0  0  0  0  0  0  0  0  0  0
   -3.5745    0.1940   -1.2506 H   0  0  0  0  0  0  0  0  0  0  0  0
   -2.6217    0.0390    2.4000 H   0  0  0  0  0  0  0  0  0  0  0  0
    3.7739   -0.0080   -2.0886 H   0  0  0  0  0  0  0  0  0  0  0  0
    0.4838   -0.1201   -3.7021 H   0  0  0  0  0  0  0  0  0  0  0  0
    1.9675   -1.0758   -3.8449 H   0  0  0  0  0  0  0  0  0  0  0  0
    3.8099    0.8264    2.4849 H   0  0  0  0  0  0  0  0  0  0  0  0
    6.1113    1.2332    3.3460 H   0  0  0  0  0  0  0  0  0  0  0  0
    8.0414    1.1636    1.8054 H   0  0  0  0  0  0  0  0  0  0  0  0
    7.5620    0.6797   -0.5729 H   0  0  0  0  0  0  0  0  0  0  0  0
   -4.7810   -0.9537    2.6338 H   0  0  0  0  0  0  0  0  0  0  0  0
   -7.0340   -1.4267    1.7229 H   0  0  0  0  0  0  0  0  0  0  0  0
  1  2  1  0
  2  3  2  0
  3  4  1  0
  4  5  1  0
  5  6  1  0
  6  7  2  0
  7  8  1  0
  8  9  2  0
  9 10  1  0
 10 11  2  0
 11 12  1  0
 12 13  1  0
 12 14  2  0
 14 15  1  0
 10 16  1  0
 16 17  2  0
 17 18  1  0
 18 19  2  0
 19 20  1  0
 20 21  2  0
  4 22  2  0
 22 23  1  0
 23 24  2  0
 24  2  1  0
 15  6  1  0
 21 16  1  0
 14  8  1  0
  1 25  1  0
  1 26  1  0
  1 27  1  0
  3 28  1  0
  5 29  1  0
 11 30  1  0
 13 31  1  0
 13 32  1  0
 17 33  1  0
 18 34  1  0
 19 35  1  0
 20 36  1  0
 22 37  1  0
 23 38  1  0
M  END
$$$$
[H]c1nc(S(=O)(=O)N2C([H])([H])C([H])([H])OC([H])([H])C2([H])[H])c([H])c([H])c1N([H])c1nc(C([H])([H])C([H])([H])C([H])([H])[H])c([H])s1
     RDKit          3D

 44 46  0  0  0  0  0  0  0  0999 V2000
    6.8912    0.7232   -0.3210 C   0  0  0  0  0  0  0  0  0  0  0  0
    7.2765   -0.6340    0.1812 C   0  0  0  0  0  0  0  0  0  0  0  0
    6.4096   -1.0885    1.3353 C   0  0  0  0  0  0  0  0  0  0  0  0
    4.9761   -1.1289    0.8281 C   0  0  0  0  0  0  0  0  0  0  0  0
    4.4918   -2.2808    0.2624 C   0  0  0  0  0  0  0  0  0  0  0  0
    2.8964   -1.8056   -0.1165 S   0  0  0  0  0  0  0  0  0  0  0  0
    2.9407   -0.2080    0.4541 C   0  0  0  0  0  0  0  0  0  0  0  0
    2.0086    0.8694    0.5145 N   0  0  0  0  0  0  0  0  0  0  0  0
    0.6913    0.8302    0.0328 C   0  0  0  0  0  0  0  0  0  0  0  0
    0.1644   -0.0823   -0.8437 C   0  0  0  0  0  0  0  0  0  0  0  0
   -1.1849   -0.0372   -1.2375 C   0  0  0  0  0  0  0  0  0  0  0  0
   -2.0281    0.9338   -0.7518 C   0  0  0  0  0  0  0  0  0  0  0  0
   -1.4985    1.8207    0.1049 N   0  0  0  0  0  0  0  0  0  0  0  0
   -0.2145    1.7966    0.4947 C   0  0  0  0  0  0  0  0  0  0  0  0
   -3.7079    1.0126   -1.2244 S   0  0  0  0  0  0  0  0  0  0  0  0
   -4.0191    2.3067   -1.9278 O   0  0  0  0  0  0  0  0  0  0  0  0
   -3.9678   -0.0921   -2.2130 O   0  0  0  0  0  0  0  0  0  0  0  0
   -4.7666    0.8627    0.1057 N   0  0  0  0  0  0  0  0  0  0  0  0
   -4.6590   -0.3793    0.8073 C   0  0  0  0  0  0  0  0  0  0  0  0
   -5.6304   -1.4255    0.3681 C   0  0  0  0  0  0  0  0  0  0  0  0
   -6.8886   -0.9599    0.0820 O   0  0  0  0  0  0  0  0  0  0  0  0
   -7.1134    0.3519    0.4379 C   0  0  0  0  0  0  0  0  0  0  0  0
   -6.0972    1.2118   -0.2855 C   0  0  0  0  0  0  0  0  0  0  0  0
    4.1924   -0.1144    0.9135 N   0  0  0  0  0  0  0  0  0  0  0  0
    7.7244    1.1326   -0.9063 H   0  0  0  0  0  0  0  0  0  0  0  0
    5.9997    0.7039   -1.0003 H   0  0  0  0  0  0  0  0  0  0  0  0
    6.6260    1.3480    0.5592 H   0  0  0  0  0  0  0  0  0  0  0  0
    8.3472   -0.5923    0.4661 H   0  0  0  0  0  0  0  0  0  0  0  0
    7.1877   -1.4213   -0.6022 H   0  0  0  0  0  0  0  0  0  0  0  0
    6.5218   -0.3624    2.1459 H   0  0  0  0  0  0  0  0  0  0  0  0
    6.6995   -2.0871    1.7077 H   0  0  0  0  0  0  0  0  0  0  0  0
    5.0221   -3.2377    0.1106 H   0  0  0  0  0  0  0  0  0  0  0  0
    2.3366    1.7947    0.9603 H   0  0  0  0  0  0  0  0  0  0  0  0
    0.8088   -0.8496   -1.2505 H   0  0  0  0  0  0  0  0  0  0  0  0
   -1.5557   -0.7715   -1.9253 H   0  0  0  0  0  0  0  0  0  0  0  0
    0.1822    2.5379    1.1978 H   0  0  0  0  0  0  0  0  0  0  0  0
   -4.6926   -0.1955    1.9008 H   0  0  0  0  0  0  0  0  0  0  0  0
   -3.6252   -0.7836    0.6071 H   0  0  0  0  0  0  0  0  0  0  0  0
   -5.7338   -2.1561    1.2184 H   0  0  0  0  0  0  0  0  0  0  0  0
   -5.2031   -1.9891   -0.4893 H   0  0  0  0  0  0  0  0  0  0  0  0
   -7.1514    0.5394    1.5148 H   0  0  0  0  0  0  0  0  0  0  0  0
   -8.1245    0.6252    0.0299 H   0  0  0  0  0  0  0  0  0  0  0  0
   -6.2111    0.9800   -1.3733 H   0  0  0  0  0  0  0  0  0  0  0  0
   -6.3218    2.3014   -0.1031 H   0  0  0  0  0  0  0  0  0  0  0  0
  1  2  1  0
  2  3  1  0
  3  4  1  0
  4  5  2  0
  5  6  1  0
  6  7  1  0
  7  8  1  0
  8  9  1  0
  9 10  2  0
 10 11  1  0
 11 12  2  0
 12 13  1  0
 13 14  2  0
 12 15  1  0
 15 16  2  0
 15 17  2  0
 15 18  1  0
 18 19  1  0
 19 20  1  0
 20 21  1  0
 21 22  1  0
 22 23  1  0
  7 24  2  0
 24  4  1  0
 14  9  1  0
 23 18  1  0
  1 25  1  0
  1 26  1  0
  1 27  1  0
  2 28  1  0
  2 29  1  0
  3 30  1  0
  3 31  1  0
  5 32  1  0
  8 33  1  0
 10 34  1  0
 11 35  1  0
 14 36  1  0
 19 37  1  0
 19 38  1  0
 20 39  1  0
 20 40  1  0
 22 41  1  0
 22 42  1  0
 23 43  1  0
 23 44  1  0
M  END
$$$$
[H]c1nc(N([H])[C@@]([H])(c2c([H])c([H])c([H])c([H])c2[H])C([H])([H])[H])nc(-n2nc(C3(C(=O)N([H])C([H])([H])C([H])([H])C([H])([H])C([H])([H])[N+](=O)[O-])C([H])([H])C3([H])[H])nc2[H])c1[H]
     RDKit          3D

 59 62  0  0  0  0  0  0  0  0999 V2000
    6.4732   -1.9512   -1.8297 C   0  0  0  0  0  0  0  0  0  0  0  0
    6.4529   -0.5307   -1.3191 C   0  0  1  0  0  0  0  0  0  0  0  0
    5.2827   -0.2058   -0.5678 N   0  0  0  0  0  0  0  0  0  0  0  0
    4.0127   -0.1212   -1.1696 C   0  0  0  0  0  0  0  0  0  0  0  0
    3.8519   -0.3317   -2.4835 N   0  0  0  0  0  0  0  0  0  0  0  0
    2.6617   -0.2650   -3.1158 C   0  0  0  0  0  0  0  0  0  0  0  0
    1.5467    0.0405   -2.3472 C   0  0  0  0  0  0  0  0  0  0  0  0
    1.6774    0.2623   -0.9938 C   0  0  0  0  0  0  0  0  0  0  0  0
    2.8979    0.1757   -0.4478 N   0  0  0  0  0  0  0  0  0  0  0  0
    0.5327    0.5801   -0.1774 N   0  0  0  0  0  0  0  0  0  0  0  0
    0.6067    1.0561    1.0907 C   0  0  0  0  0  0  0  0  0  0  0  0
   -0.6237    1.2426    1.5643 N   0  0  0  0  0  0  0  0  0  0  0  0
   -1.4893    0.8837    0.5936 C   0  0  0  0  0  0  0  0  0  0  0  0
   -0.7522    0.4870   -0.4487 N   0  0  0  0  0  0  0  0  0  0  0  0
   -2.9577    0.9656    0.7931 C   0  0  0  0  0  0  0  0  0  0  0  0
   -3.5585    2.3225    0.4206 C   0  0  0  0  0  0  0  0  0  0  0  0
   -3.5204    1.8587    1.8365 C   0  0  0  0  0  0  0  0  0  0  0  0
   -3.7770   -0.1921    0.3451 C   0  0  0  0  0  0  0  0  0  0  0  0
   -3.1988   -1.2717    0.0118 O   0  0  0  0  0  0  0  0  0  0  0  0
   -5.1834   -0.0532    0.3053 N   0  0  0  0  0  0  0  0  0  0  0  0
   -6.0317   -1.1240   -0.1159 C   0  0  0  0  0  0  0  0  0  0  0  0
   -7.4989   -0.7440   -0.0747 C   0  0  0  0  0  0  0  0  0  0  0  0
   -7.9307   -0.3585    1.3157 C   0  0  0  0  0  0  0  0  0  0  0  0
   -9.3985    0.0204    1.3500 C   0  0  0  0  0  0  0  0  0  0  0  0
  -10.2470   -1.0592    0.9298 N   0  0  0  0  0  0  0  0  0  0  0  0
  -10.2127   -2.2365    1.6490 O   0  0  0  0  0  0  0  0  0  0  0  0
  -11.0188   -0.9723   -0.0671 O   0  0  0  0  0  0  0  0  0  0  0  0
    7.6329   -0.2966   -0.4314 C   0  0  0  0  0  0  0  0  0  0  0  0
    7.6563    0.8735    0.2866 C   0  0  0  0  0  0  0  0  0  0  0  0
    8.7073    1.1564    1.1285 C   0  0  0  0  0  0  0  0  0  0  0  0
    9.7232    0.2405    1.2278 C   0  0  0  0  0  0  0  0  0  0  0  0
    9.6860   -0.9229    0.5049 C   0  0  0  0  0  0  0  0  0  0  0  0
    8.6236   -1.2179   -0.3515 C   0  0  0  0  0  0  0  0  0  0  0  0
    5.5782   -2.1743   -2.3992 H   0  0  0  0  0  0  0  0  0  0  0  0
    6.6485   -2.6683   -0.9863 H   0  0  0  0  0  0  0  0  0  0  0  0
    7.3270   -2.0169   -2.5559 H   0  0  0  0  0  0  0  0  0  0  0  0
    6.5509    0.1434   -2.2136 H   0  0  0  0  0  0  0  0  0  0  0  0
    5.3518   -0.0243    0.4528 H   0  0  0  0  0  0  0  0  0  0  0  0
    2.5840   -0.4424   -4.1771 H   0  0  0  0  0  0  0  0  0  0  0  0
    0.5698    0.1098   -2.7877 H   0  0  0  0  0  0  0  0  0  0  0  0
    1.5184    1.2506    1.6263 H   0  0  0  0  0  0  0  0  0  0  0  0
   -2.8411    3.1307    0.1080 H   0  0  0  0  0  0  0  0  0  0  0  0
   -4.4907    2.3640   -0.1588 H   0  0  0  0  0  0  0  0  0  0  0  0
   -4.4756    1.5154    2.2834 H   0  0  0  0  0  0  0  0  0  0  0  0
   -2.8235    2.3993    2.5326 H   0  0  0  0  0  0  0  0  0  0  0  0
   -5.6090    0.8478    0.5906 H   0  0  0  0  0  0  0  0  0  0  0  0
   -5.7955   -1.4169   -1.1785 H   0  0  0  0  0  0  0  0  0  0  0  0
   -5.8660   -2.0512    0.4638 H   0  0  0  0  0  0  0  0  0  0  0  0
   -8.1313   -1.5591   -0.4789 H   0  0  0  0  0  0  0  0  0  0  0  0
   -7.6665    0.1307   -0.7356 H   0  0  0  0  0  0  0  0  0  0  0  0
   -7.3325    0.5132    1.6431 H   0  0  0  0  0  0  0  0  0  0  0  0
   -7.7451   -1.1656    2.0552 H   0  0  0  0  0  0  0  0  0  0  0  0
   -9.5626    0.8635    0.6341 H   0  0  0  0  0  0  0  0  0  0  0  0
   -9.7114    0.3609    2.3526 H   0  0  0  0  0  0  0  0  0  0  0  0
    6.8427    1.5831    0.1926 H   0  0  0  0  0  0  0  0  0  0  0  0
    8.7587    2.0738    1.7122 H   0  0  0  0  0  0  0  0  0  0  0  0
   10.5474    0.4900    1.9058 H   0  0  0  0  0  0  0  0  0  0  0  0
   10.4965   -1.6308    0.5993 H   0  0  0  0  0  0  0  0  0  0  0  0
    8.6504   -2.1485   -0.8932 H   0  0  0  0  0  0  0  0  0  0  0  0
  1  2  1  0
  2  3  1  0
  3  4  1  0
  4  5  2  0
  5  6  1  0
  6  7  2  0
  7  8  1  0
  8  9  2  0
  8 10  1  0
 10 11  1  0
 11 12  2  0
 12 13  1  0
 13 14  2  0
 13 15  1  0
 15 16  1  0
 16 17  1  0
 15 18  1  0
 18 19  2  0
 18 20  1  0
 20 21  1  0
 21 22  1  0
 22 23  1  0
 23 24  1  0
 24 25  1  0
 25 26  1  0
 25 27  2  0
  2 28  1  0
 28 29  2  0
 29 30  1  0
 30 31  2  0
 31 32  1  0
 32 33  2  0
  9  4  1  0
 14 10  1  0
 17 15  1  0
 33 28  1  0
  1 34  1  0
  1 35  1  0
  1 36  1  0
  2 37  1  6
  3 38  1  0
  6 39  1  0
  7 40  1  0
 11 41  1  0
 16 42  1  0
 16 43  1  0
 17 44  1  0
 17 45  1  0
 20 46  1  0
 21 47  1  0
 21 48  1  0
 22 49  1  0
 22 50  1  0
 23 51  1  0
 23 52  1  0
 24 53  1  0
 24 54  1  0
 29 55  1  0
 30 56  1  0
 31 57  1  0
 32 58  1  0
 33 59  1  0
M  CHG  2  25   1  26  -1
M  END
$$$$
[H]c1c([H])c(N2C([H])([H])C([H])([H])N(C([H])([H])C([H])([H])C([H])([H])c3c([H])n([H])c4c([H])c([H])c(F)c([H])c34)C([H])([H])C2([H])[H])c([H])c(F)c1N1C([H])([H])C([H])([H])N([H])C([H])([H])C1([H])[H]
     RDKit          3D

 63 67  0  0  0  0  0  0  0  0999 V2000
   -5.3361    0.1889   -2.4085 F   0  0  0  0  0  0  0  0  0  0  0  0
   -4.5905    0.2084   -1.2862 C   0  0  0  0  0  0  0  0  0  0  0  0
   -3.2247    0.2347   -1.4349 C   0  0  0  0  0  0  0  0  0  0  0  0
   -2.3595    0.2454   -0.3397 C   0  0  0  0  0  0  0  0  0  0  0  0
   -0.9561    0.2804   -0.4884 N   0  0  0  0  0  0  0  0  0  0  0  0
   -0.1094    0.1663    0.6579 C   0  0  0  0  0  0  0  0  0  0  0  0
    1.2957   -0.2617    0.3131 C   0  0  0  0  0  0  0  0  0  0  0  0
    1.8882    0.4226   -0.7829 N   0  0  0  0  0  0  0  0  0  0  0  0
    2.8940   -0.3396   -1.4537 C   0  0  0  0  0  0  0  0  0  0  0  0
    4.0913   -0.5058   -0.5351 C   0  0  0  0  0  0  0  0  0  0  0  0
    4.6655    0.8425   -0.1560 C   0  0  0  0  0  0  0  0  0  0  0  0
    5.8229    0.6286    0.7329 C   0  0  0  0  0  0  0  0  0  0  0  0
    5.8207    0.8162    2.0917 C   0  0  0  0  0  0  0  0  0  0  0  0
    7.0458    0.5262    2.5607 N   0  0  0  0  0  0  0  0  0  0  0  0
    7.8457    0.1549    1.5457 C   0  0  0  0  0  0  0  0  0  0  0  0
    9.1671   -0.2358    1.4835 C   0  0  0  0  0  0  0  0  0  0  0  0
    9.7243   -0.5642    0.2666 C   0  0  0  0  0  0  0  0  0  0  0  0
    8.9838   -0.5124   -0.9122 C   0  0  0  0  0  0  0  0  0  0  0  0
    9.5780   -0.8454   -2.0860 F   0  0  0  0  0  0  0  0  0  0  0  0
    7.6706   -0.1210   -0.8276 C   0  0  0  0  0  0  0  0  0  0  0  0
    7.0799    0.2158    0.3782 C   0  0  0  0  0  0  0  0  0  0  0  0
    1.0044    1.0973   -1.6730 C   0  0  0  0  0  0  0  0  0  0  0  0
   -0.3662    0.4382   -1.7935 C   0  0  0  0  0  0  0  0  0  0  0  0
   -2.9817    0.2275    0.8896 C   0  0  0  0  0  0  0  0  0  0  0  0
   -4.3535    0.2014    1.0627 C   0  0  0  0  0  0  0  0  0  0  0  0
   -5.1747    0.1917   -0.0493 C   0  0  0  0  0  0  0  0  0  0  0  0
   -6.5778    0.1887    0.1572 N   0  0  0  0  0  0  0  0  0  0  0  0
   -7.1033   -0.0950    1.4611 C   0  0  0  0  0  0  0  0  0  0  0  0
   -8.4540   -0.7816    1.3595 C   0  0  0  0  0  0  0  0  0  0  0  0
   -9.4090   -0.0102    0.6428 N   0  0  0  0  0  0  0  0  0  0  0  0
   -8.8921    0.8484   -0.3634 C   0  0  0  0  0  0  0  0  0  0  0  0
   -7.5265    0.4828   -0.8919 C   0  0  0  0  0  0  0  0  0  0  0  0
   -2.7646    0.2464   -2.4325 H   0  0  0  0  0  0  0  0  0  0  0  0
   -0.0883    1.0873    1.2836 H   0  0  0  0  0  0  0  0  0  0  0  0
   -0.5241   -0.6322    1.3142 H   0  0  0  0  0  0  0  0  0  0  0  0
    1.9257   -0.0919    1.2366 H   0  0  0  0  0  0  0  0  0  0  0  0
    1.3321   -1.3512    0.0986 H   0  0  0  0  0  0  0  0  0  0  0  0
    3.1676    0.0916   -2.4427 H   0  0  0  0  0  0  0  0  0  0  0  0
    2.5028   -1.3795   -1.6247 H   0  0  0  0  0  0  0  0  0  0  0  0
    4.8916   -1.0930   -1.0362 H   0  0  0  0  0  0  0  0  0  0  0  0
    3.7392   -0.9949    0.3779 H   0  0  0  0  0  0  0  0  0  0  0  0
    3.8889    1.4728    0.3307 H   0  0  0  0  0  0  0  0  0  0  0  0
    5.0061    1.4209   -1.0475 H   0  0  0  0  0  0  0  0  0  0  0  0
    4.9980    1.1386    2.7042 H   0  0  0  0  0  0  0  0  0  0  0  0
    7.3547    0.5757    3.5679 H   0  0  0  0  0  0  0  0  0  0  0  0
    9.7410   -0.2758    2.3980 H   0  0  0  0  0  0  0  0  0  0  0  0
   10.7622   -0.8651    0.2615 H   0  0  0  0  0  0  0  0  0  0  0  0
    7.0982   -0.0818   -1.7489 H   0  0  0  0  0  0  0  0  0  0  0  0
    0.7963    2.1413   -1.3483 H   0  0  0  0  0  0  0  0  0  0  0  0
    1.4486    1.0878   -2.6900 H   0  0  0  0  0  0  0  0  0  0  0  0
   -0.2834   -0.5039   -2.3436 H   0  0  0  0  0  0  0  0  0  0  0  0
   -0.9554    1.1557   -2.4382 H   0  0  0  0  0  0  0  0  0  0  0  0
   -2.3407    0.2349    1.7680 H   0  0  0  0  0  0  0  0  0  0  0  0
   -4.7817    0.1954    2.0753 H   0  0  0  0  0  0  0  0  0  0  0  0
   -6.4276   -0.8809    1.9165 H   0  0  0  0  0  0  0  0  0  0  0  0
   -7.1148    0.7670    2.1255 H   0  0  0  0  0  0  0  0  0  0  0  0
   -8.2871   -1.7990    1.0128 H   0  0  0  0  0  0  0  0  0  0  0  0
   -8.8194   -0.8471    2.4260 H   0  0  0  0  0  0  0  0  0  0  0  0
  -10.2373   -0.5625    0.4019 H   0  0  0  0  0  0  0  0  0  0  0  0
   -9.5579    0.9257   -1.2722 H   0  0  0  0  0  0  0  0  0  0  0  0
   -8.8363    1.9005    0.0386 H   0  0  0  0  0  0  0  0  0  0  0  0
   -7.1507    1.4293   -1.3902 H   0  0  0  0  0  0  0  0  0  0  0  0
   -7.6467   -0.2911   -1.6435 H   0  0  0  0  0  0  0  0  0  0  0  0
  1  2  1  0
  2  3  2  0
  3  4  1  0
  4  5  1  0
  5  6  1  0
  6  7  1  0
  7  8  1  0
  8  9  1  0
  9 10  1  0
 10 11  1  0
 11 12  1  0
 12 13  2  0
 13 14  1  0
 14 15  1  0
 15 16  2  0
 16 17  1  0
 17 18  2  0
 18 19  1  0
 18 20  1  0
 20 21  2  0
  8 22  1  0
 22 23  1  0
  4 24  2  0
 24 25  1  0
 25 26  2  0
 26 27  1  0
 27 28  1  0
 28 29  1  0
 29 30  1  0
 30 31  1  0
 31 32  1  0
 26  2  1  0
 32 27  1  0
 23  5  1  0
 21 12  1  0
 21 15  1  0
  3 33  1  0
  6 34  1  0
  6 35  1  0
  7 36  1  0
  7 37  1  0
  9 38  1  0
  9 39  1  0
 10 40  1  0
 10 41  1  0
 11 42  1  0
 11 43  1  0
 13 44  1  0
 14 45  1  0
 16 46  1  0
 17 47  1  0
 20 48  1  0
 22 49  1  0
 22 50  1  0
 23 51  1  0
 23 52  1  0
 24 53  1  0
 25 54  1  0
 28 55  1  0
 28 56  1  0
 29 57  1  0
 29 58  1  0
 30 59  1  0
 31 60  1  0
 31 61  1  0
 32 62  1  0
 32 63  1  0
M  END
$$$$
[H]OC(=O)[C@@]([H])(N([H])C(=O)[C@@]([H])(N([H])C(=O)C([H])([H])c1c([H])c([H])c(F)c(F)c1[H])C([H])([H])C([H])([H])C([H])([H])C([H])([H])[H])C([H])([H])c1c([H])c([H])c(-c2c([H])c([H])c([H])c([H])c2[H])c([H])c1[H]
     RDKit          3D

 67 69  0  0  0  0  0  0  0  0999 V2000
   -3.7215   -4.9347    0.0018 C   0  0  0  0  0  0  0  0  0  0  0  0
   -2.2380   -4.6623    0.0278 C   0  0  0  0  0  0  0  0  0  0  0  0
   -1.9601   -3.2966    0.6943 C   0  0  0  0  0  0  0  0  0  0  0  0
   -2.6815   -2.2916   -0.1493 C   0  0  0  0  0  0  0  0  0  0  0  0
   -2.5868   -0.8617    0.3325 C   0  0  2  0  0  0  0  0  0  0  0  0
   -3.3567   -0.0889   -0.6555 N   0  0  0  0  0  0  0  0  0  0  0  0
   -4.4126    0.7586   -0.2803 C   0  0  0  0  0  0  0  0  0  0  0  0
   -4.6856    0.8372    0.9647 O   0  0  0  0  0  0  0  0  0  0  0  0
   -5.1992    1.5433   -1.2484 C   0  0  0  0  0  0  0  0  0  0  0  0
   -6.2412    2.3664   -0.5988 C   0  0  0  0  0  0  0  0  0  0  0  0
   -7.5280    1.9440   -0.3453 C   0  0  0  0  0  0  0  0  0  0  0  0
   -8.4641    2.7347    0.2576 C   0  0  0  0  0  0  0  0  0  0  0  0
   -8.1240    4.0191    0.6376 C   0  0  0  0  0  0  0  0  0  0  0  0
   -9.0380    4.8338    1.2419 F   0  0  0  0  0  0  0  0  0  0  0  0
   -6.8394    4.4461    0.3867 C   0  0  0  0  0  0  0  0  0  0  0  0
   -6.5048    5.7042    0.7589 F   0  0  0  0  0  0  0  0  0  0  0  0
   -5.8875    3.6485   -0.2237 C   0  0  0  0  0  0  0  0  0  0  0  0
   -1.1836   -0.3461    0.2690 C   0  0  0  0  0  0  0  0  0  0  0  0
   -0.9308    0.4532   -0.6711 O   0  0  0  0  0  0  0  0  0  0  0  0
   -0.2721   -0.7826    1.2486 N   0  0  0  0  0  0  0  0  0  0  0  0
    1.1156   -0.3282    1.2554 C   0  0  1  0  0  0  0  0  0  0  0  0
    1.7372   -0.8424   -0.0031 C   0  0  0  0  0  0  0  0  0  0  0  0
    3.1529   -0.4497   -0.1155 C   0  0  0  0  0  0  0  0  0  0  0  0
    3.5826    0.6444   -0.8324 C   0  0  0  0  0  0  0  0  0  0  0  0
    4.9263    0.9899   -0.9197 C   0  0  0  0  0  0  0  0  0  0  0  0
    5.8633    0.2224   -0.2740 C   0  0  0  0  0  0  0  0  0  0  0  0
    5.4786   -0.8747    0.4503 C   0  0  0  0  0  0  0  0  0  0  0  0
    4.1197   -1.1975    0.5199 C   0  0  0  0  0  0  0  0  0  0  0  0
    7.2585    0.5801   -0.3635 C   0  0  0  0  0  0  0  0  0  0  0  0
    7.6136    1.9025   -0.4754 C   0  0  0  0  0  0  0  0  0  0  0  0
    8.9747    2.2202   -0.5618 C   0  0  0  0  0  0  0  0  0  0  0  0
    9.9198    1.1941   -0.5318 C   0  0  0  0  0  0  0  0  0  0  0  0
    9.5663   -0.1315   -0.4198 C   0  0  0  0  0  0  0  0  0  0  0  0
    8.2128   -0.4101   -0.3366 C   0  0  0  0  0  0  0  0  0  0  0  0
    1.1365    1.1216    1.4431 C   0  0  0  0  0  0  0  0  0  0  0  0
    2.3261    1.8154    1.5490 O   0  0  0  0  0  0  0  0  0  0  0  0
    0.0868    1.8296    1.5253 O   0  0  0  0  0  0  0  0  0  0  0  0
   -4.2122   -4.4500   -0.8829 H   0  0  0  0  0  0  0  0  0  0  0  0
   -4.2381   -4.5830    0.9138 H   0  0  0  0  0  0  0  0  0  0  0  0
   -3.8893   -6.0202   -0.0955 H   0  0  0  0  0  0  0  0  0  0  0  0
   -1.8757   -4.5419   -1.0198 H   0  0  0  0  0  0  0  0  0  0  0  0
   -1.6583   -5.4516    0.5095 H   0  0  0  0  0  0  0  0  0  0  0  0
   -2.1946   -3.2911    1.7544 H   0  0  0  0  0  0  0  0  0  0  0  0
   -0.8558   -3.1548    0.4666 H   0  0  0  0  0  0  0  0  0  0  0  0
   -3.7575   -2.5459   -0.2813 H   0  0  0  0  0  0  0  0  0  0  0  0
   -2.1555   -2.2923   -1.1511 H   0  0  0  0  0  0  0  0  0  0  0  0
   -2.9886   -0.6952    1.3347 H   0  0  0  0  0  0  0  0  0  0  0  0
   -3.0646   -0.2138   -1.6486 H   0  0  0  0  0  0  0  0  0  0  0  0
   -5.7270    0.8544   -1.9696 H   0  0  0  0  0  0  0  0  0  0  0  0
   -4.4912    2.1611   -1.8384 H   0  0  0  0  0  0  0  0  0  0  0  0
   -7.8108    0.9422   -0.6366 H   0  0  0  0  0  0  0  0  0  0  0  0
   -9.4578    2.3489    0.4308 H   0  0  0  0  0  0  0  0  0  0  0  0
   -4.9100    4.0748   -0.3763 H   0  0  0  0  0  0  0  0  0  0  0  0
   -0.5711   -1.4236    1.9921 H   0  0  0  0  0  0  0  0  0  0  0  0
    1.6218   -0.7942    2.1593 H   0  0  0  0  0  0  0  0  0  0  0  0
    1.1939   -0.5304   -0.9272 H   0  0  0  0  0  0  0  0  0  0  0  0
    1.7566   -1.9851    0.0087 H   0  0  0  0  0  0  0  0  0  0  0  0
    2.8277    1.2412   -1.3378 H   0  0  0  0  0  0  0  0  0  0  0  0
    5.2716    1.8477   -1.4801 H   0  0  0  0  0  0  0  0  0  0  0  0
    6.2304   -1.4605    0.9472 H   0  0  0  0  0  0  0  0  0  0  0  0
    3.8703   -2.0692    1.1016 H   0  0  0  0  0  0  0  0  0  0  0  0
    6.8921    2.7166   -0.4999 H   0  0  0  0  0  0  0  0  0  0  0  0
    9.2516    3.2572   -0.6499 H   0  0  0  0  0  0  0  0  0  0  0  0
   10.9632    1.4849   -0.6011 H   0  0  0  0  0  0  0  0  0  0  0  0
   10.3467   -0.8683   -0.4041 H   0  0  0  0  0  0  0  0  0  0  0  0
    7.9240   -1.4419   -0.2482 H   0  0  0  0  0  0  0  0  0  0  0  0
    2.4926    2.5732    2.1791 H   0  0  0  0  0  0  0  0  0  0  0  0
  1  2  1  0
  2  3  1  0
  3  4  1  0
  4  5  1  0
  5  6  1  0
  6  7  1  0
  7  8  2  0
  7  9  1  0
  9 10  1  0
 10 11  2  0
 11 12  1  0
 12 13  2  0
 13 14  1  0
 13 15  1  0
 15 16  1  0
 15 17  2  0
  5 18  1  0
 18 19  2  0
 18 20  1  0
 20 21  1  0
 21 22  1  0
 22 23  1  0
 23 24  2  0
 24 25  1  0
 25 26  2  0
 26 27  1  0
 27 28  2  0
 26 29  1  0
 29 30  2  0
 30 31  1  0
 31 32  2  0
 32 33  1  0
 33 34  2  0
 21 35  1  0
 35 36  1  0
 35 37  2  0
 17 10  1  0
 28 23  1  0
 34 29  1  0
  1 38  1  0
  1 39  1  0
  1 40  1  0
  2 41  1  0
  2 42  1  0
  3 43  1  0
  3 44  1  0
  4 45  1  0
  4 46  1  0
  5 47  1  1
  6 48  1  0
  9 49  1  0
  9 50  1  0
 11 51  1  0
 12 52  1  0
 17 53  1  0
 20 54  1  0
 21 55  1  1
 22 56  1  0
 22 57  1  0
 24 58  1  0
 25 59  1  0
 27 60  1  0
 28 61  1  0
 30 62  1  0
 31 63  1  0
 32 64  1  0
 33 65  1  0
 34 66  1  0
 36 67  1  0
M  END
$$$$
[H]OC([H])([H])[C@]1([H])O[C@@]([H])(n2c([H])c([H])c(=O)n([H])c2=S)[C@]([H])(O[H])[C@]1([H])O[H]
     RDKit          3D

 29 30  0  0  0  0  0  0  0  0999 V2000
    3.6804   -0.5328   -1.3711 O   0  0  0  0  0  0  0  0  0  0  0  0
    3.2024   -1.0437   -0.1887 C   0  0  0  0  0  0  0  0  0  0  0  0
    1.8867   -0.4519    0.2341 C   0  0  2  0  0  0  0  0  0  0  0  0
    0.8676   -0.6400   -0.6581 O   0  0  0  0  0  0  0  0  0  0  0  0
   -0.0593    0.3565   -0.5187 C   0  0  2  0  0  0  0  0  0  0  0  0
    0.4517    1.3232    0.5309 C   0  0  2  0  0  0  0  0  0  0  0  0
    0.1288    2.6288    0.2790 O   0  0  0  0  0  0  0  0  0  0  0  0
    1.9574    1.0536    0.3857 C   0  0  2  0  0  0  0  0  0  0  0  0
    2.3901    1.6338   -0.8105 O   0  0  0  0  0  0  0  0  0  0  0  0
   -1.3885   -0.1190   -0.1980 N   0  0  0  0  0  0  0  0  0  0  0  0
   -1.5454   -1.1644    0.6330 C   0  0  0  0  0  0  0  0  0  0  0  0
   -2.8155   -1.6456    0.9610 C   0  0  0  0  0  0  0  0  0  0  0  0
   -3.9095   -1.0310    0.4185 C   0  0  0  0  0  0  0  0  0  0  0  0
   -5.0781   -1.4181    0.6757 O   0  0  0  0  0  0  0  0  0  0  0  0
   -3.7416    0.0161   -0.4134 N   0  0  0  0  0  0  0  0  0  0  0  0
   -2.4895    0.4578   -0.7106 C   0  0  0  0  0  0  0  0  0  0  0  0
   -2.2705    1.7321   -1.7222 S   0  0  0  0  0  0  0  0  0  0  0  0
    4.4506   -1.0521   -1.6660 H   0  0  0  0  0  0  0  0  0  0  0  0
    3.9199   -0.8749    0.6517 H   0  0  0  0  0  0  0  0  0  0  0  0
    3.0796   -2.1437   -0.2601 H   0  0  0  0  0  0  0  0  0  0  0  0
    1.6686   -0.8521    1.2576 H   0  0  0  0  0  0  0  0  0  0  0  0
   -0.1357    0.9629   -1.4686 H   0  0  0  0  0  0  0  0  0  0  0  0
    0.2003    0.9851    1.5609 H   0  0  0  0  0  0  0  0  0  0  0  0
   -0.6553    2.9272    0.8140 H   0  0  0  0  0  0  0  0  0  0  0  0
    2.5217    1.3825    1.2546 H   0  0  0  0  0  0  0  0  0  0  0  0
    1.8940    1.1582   -1.5317 H   0  0  0  0  0  0  0  0  0  0  0  0
   -0.6758   -1.6381    1.0524 H   0  0  0  0  0  0  0  0  0  0  0  0
   -2.9635   -2.4810    1.6240 H   0  0  0  0  0  0  0  0  0  0  0  0
   -4.5717    0.4705   -0.8154 H   0  0  0  0  0  0  0  0  0  0  0  0
  1  2  1  0
  2  3  1  0
  3  4  1  0
  4  5  1  0
  5  6  1  0
  6  7  1  0
  6  8  1  0
  8  9  1  0
  5 10  1  0
 10 11  1  0
 11 12  2  0
 12 13  1  0
 13 14  2  0
 13 15  1  0
 15 16  1  0
 16 17  2  0
  8  3  1  0
 16 10  1  0
  1 18  1  0
  2 19  1  0
  2 20  1  0
  3 21  1  1
  5 22  1  6
  6 23  1  1
  7 24  1  0
  8 25  1  1
  9 26  1  0
 11 27  1  0
 12 28  1  0
 15 29  1  0
M  END
$$$$
[H]O[C@@]1([H])C([H])([H])[C@@]([H])(O[H])[C@]([H])(C([H])([H])/C([H])=C(/[H])C([H])([H])/C([H])=C(/[H])C([H])([H])C([H])([H])C([H])([H])C([H])([H])C([H])([H])[H])[C@@]1([H])C([H])([H])/C([H])=C(/[H])C([H])([H])C([H])([H])C([H])([H])C(=O)C([H])([H])[H]
     RDKit          3D

 67 67  0  0  0  0  0  0  0  0999 V2000
    3.3623    4.4454    0.2583 C   0  0  0  0  0  0  0  0  0  0  0  0
    4.0129    3.3738   -0.6028 C   0  0  0  0  0  0  0  0  0  0  0  0
    3.5888    2.0465   -0.0424 C   0  0  0  0  0  0  0  0  0  0  0  0
    4.2288    0.9558   -0.8866 C   0  0  0  0  0  0  0  0  0  0  0  0
    3.7956   -0.4106   -0.3191 C   0  0  0  0  0  0  0  0  0  0  0  0
    4.4364   -1.4174   -1.1552 C   0  0  0  0  0  0  0  0  0  0  0  0
    3.7997   -2.3094   -1.8458 C   0  0  0  0  0  0  0  0  0  0  0  0
    2.3272   -2.4058   -1.8616 C   0  0  0  0  0  0  0  0  0  0  0  0
    1.9518   -3.7342   -1.3703 C   0  0  0  0  0  0  0  0  0  0  0  0
    1.2027   -3.9491   -0.3243 C   0  0  0  0  0  0  0  0  0  0  0  0
    0.6381   -2.8697    0.4959 C   0  0  0  0  0  0  0  0  0  0  0  0
   -0.8772   -3.0000    0.4505 C   0  0  1  0  0  0  0  0  0  0  0  0
   -1.3831   -4.3037    0.9788 C   0  0  2  0  0  0  0  0  0  0  0  0
   -1.4661   -5.2737   -0.0271 O   0  0  0  0  0  0  0  0  0  0  0  0
   -2.8043   -3.9823    1.3921 C   0  0  0  0  0  0  0  0  0  0  0  0
   -2.5840   -2.6634    2.1267 C   0  0  2  0  0  0  0  0  0  0  0  0
   -3.7340   -1.9311    2.2896 O   0  0  0  0  0  0  0  0  0  0  0  0
   -1.5432   -1.9353    1.2685 C   0  0  2  0  0  0  0  0  0  0  0  0
   -2.2609   -0.9204    0.3675 C   0  0  0  0  0  0  0  0  0  0  0  0
   -1.3310   -0.2575   -0.5484 C   0  0  0  0  0  0  0  0  0  0  0  0
   -1.1457    1.0406   -0.5380 C   0  0  0  0  0  0  0  0  0  0  0  0
   -1.8508    1.9288    0.3888 C   0  0  0  0  0  0  0  0  0  0  0  0
   -2.7050    2.9589   -0.3297 C   0  0  0  0  0  0  0  0  0  0  0  0
   -3.3957    3.8325    0.6952 C   0  0  0  0  0  0  0  0  0  0  0  0
   -4.2378    4.8474    0.0071 C   0  0  0  0  0  0  0  0  0  0  0  0
   -4.3202    4.9205   -1.4696 C   0  0  0  0  0  0  0  0  0  0  0  0
   -4.8865    5.6505    0.6583 O   0  0  0  0  0  0  0  0  0  0  0  0
    3.4230    5.4016   -0.3018 H   0  0  0  0  0  0  0  0  0  0  0  0
    3.8262    4.4998    1.2529 H   0  0  0  0  0  0  0  0  0  0  0  0
    2.2882    4.1768    0.3217 H   0  0  0  0  0  0  0  0  0  0  0  0
    3.6938    3.5177   -1.6511 H   0  0  0  0  0  0  0  0  0  0  0  0
    5.1146    3.4459   -0.5809 H   0  0  0  0  0  0  0  0  0  0  0  0
    3.9423    1.9185    1.0003 H   0  0  0  0  0  0  0  0  0  0  0  0
    2.4880    1.9268   -0.0104 H   0  0  0  0  0  0  0  0  0  0  0  0
    3.8508    1.0871   -1.9198 H   0  0  0  0  0  0  0  0  0  0  0  0
    5.3185    1.0369   -0.9064 H   0  0  0  0  0  0  0  0  0  0  0  0
    4.2204   -0.4150    0.7377 H   0  0  0  0  0  0  0  0  0  0  0  0
    2.7259   -0.4402   -0.1943 H   0  0  0  0  0  0  0  0  0  0  0  0
    5.5473   -1.3829   -1.1732 H   0  0  0  0  0  0  0  0  0  0  0  0
    4.3998   -3.0265   -2.4482 H   0  0  0  0  0  0  0  0  0  0  0  0
    1.7772   -1.5558   -1.4949 H   0  0  0  0  0  0  0  0  0  0  0  0
    2.0598   -2.4174   -2.9893 H   0  0  0  0  0  0  0  0  0  0  0  0
    2.3310   -4.6273   -1.9282 H   0  0  0  0  0  0  0  0  0  0  0  0
    0.9656   -4.9957   -0.0132 H   0  0  0  0  0  0  0  0  0  0  0  0
    0.9103   -1.8691    0.2069 H   0  0  0  0  0  0  0  0  0  0  0  0
    0.9133   -3.0632    1.5795 H   0  0  0  0  0  0  0  0  0  0  0  0
   -1.1904   -2.9514   -0.6333 H   0  0  0  0  0  0  0  0  0  0  0  0
   -0.8266   -4.6679    1.8642 H   0  0  0  0  0  0  0  0  0  0  0  0
   -1.1884   -6.1670    0.3018 H   0  0  0  0  0  0  0  0  0  0  0  0
   -3.2447   -4.7483    2.0373 H   0  0  0  0  0  0  0  0  0  0  0  0
   -3.3826   -3.8278    0.4478 H   0  0  0  0  0  0  0  0  0  0  0  0
   -2.0842   -2.9461    3.0861 H   0  0  0  0  0  0  0  0  0  0  0  0
   -4.4410   -2.5453    2.6054 H   0  0  0  0  0  0  0  0  0  0  0  0
   -0.8163   -1.3881    1.9006 H   0  0  0  0  0  0  0  0  0  0  0  0
   -2.8923   -1.6007   -0.3034 H   0  0  0  0  0  0  0  0  0  0  0  0
   -2.9863   -0.3136    0.8865 H   0  0  0  0  0  0  0  0  0  0  0  0
   -0.7596   -0.8769   -1.2825 H   0  0  0  0  0  0  0  0  0  0  0  0
   -0.4307    1.5219   -1.2490 H   0  0  0  0  0  0  0  0  0  0  0  0
   -2.3626    1.4856    1.2297 H   0  0  0  0  0  0  0  0  0  0  0  0
   -1.0249    2.5621    0.8668 H   0  0  0  0  0  0  0  0  0  0  0  0
   -2.0428    3.6596   -0.9178 H   0  0  0  0  0  0  0  0  0  0  0  0
   -3.3909    2.5174   -1.0615 H   0  0  0  0  0  0  0  0  0  0  0  0
   -3.9764    3.2616    1.4418 H   0  0  0  0  0  0  0  0  0  0  0  0
   -2.5744    4.3178    1.2804 H   0  0  0  0  0  0  0  0  0  0  0  0
   -4.9108    4.0761   -1.9118 H   0  0  0  0  0  0  0  0  0  0  0  0
   -4.7974    5.8635   -1.8038 H   0  0  0  0  0  0  0  0  0  0  0  0
   -3.2915    4.9123   -1.9272 H   0  0  0  0  0  0  0  0  0  0  0  0
  1  2  1  0
  2  3  1  0
  3  4  1  0
  4  5  1  0
  5  6  1  0
  6  7  2  0
  7  8  1  0
  8  9  1  0
  9 10  2  0
 10 11  1  0
 11 12  1  0
 12 13  1  0
 13 14  1  0
 13 15  1  0
 15 16  1  0
 16 17  1  0
 16 18  1  0
 18 19  1  0
 19 20  1  0
 20 21  2  0
 21 22  1  0
 22 23  1  0
 23 24  1  0
 24 25  1  0
 25 26  1  0
 25 27  2  0
 18 12  1  0
  1 28  1  0
  1 29  1  0
  1 30  1  0
  2 31  1  0
  2 32  1  0
  3 33  1  0
  3 34  1  0
  4 35  1  0
  4 36  1  0
  5 37  1  0
  5 38  1  0
  6 39  1  0
  7 40  1  0
  8 41  1  0
  8 42  1  0
  9 43  1  0
 10 44  1  0
 11 45  1  0
 11 46  1  0
 12 47  1  6
 13 48  1  1
 14 49  1  0
 15 50  1  0
 15 51  1  0
 16 52  1  1
 17 53  1  0
 18 54  1  1
 19 55  1  0
 19 56  1  0
 20 57  1  0
 21 58  1  0
 22 59  1  0
 22 60  1  0
 23 61  1  0
 23 62  1  0
 24 63  1  0
 24 64  1  0
 26 65  1  0
 26 66  1  0
 26 67  1  0
M  END
$$$$
[H]c1nc(N([H])[H])c2nc(-c3c([H])c([H])c(C([H])([H])n4nc(-c5c([H])c([H])c([H])c(C#CC([H])([H])N([H])c6c([H])c([H])nc([H])c6[H])c5[H])c([H])c4C([H])([H])[H])c([H])c3[H])c([H])n2n1
     RDKit          3D

 64 69  0  0  0  0  0  0  0  0999 V2000
    0.7479   -3.2114   -2.9322 C   0  0  0  0  0  0  0  0  0  0  0  0
    0.3460   -2.9722   -1.5211 C   0  0  0  0  0  0  0  0  0  0  0  0
   -0.9284   -2.5803   -1.0892 C   0  0  0  0  0  0  0  0  0  0  0  0
   -0.9247   -2.4622    0.2795 C   0  0  0  0  0  0  0  0  0  0  0  0
    0.3218   -2.7753    0.6621 N   0  0  0  0  0  0  0  0  0  0  0  0
    1.0722   -3.0763   -0.3997 N   0  0  0  0  0  0  0  0  0  0  0  0
    2.4686   -3.4544   -0.3371 C   0  0  0  0  0  0  0  0  0  0  0  0
    3.4090   -2.3380   -0.3980 C   0  0  0  0  0  0  0  0  0  0  0  0
    3.9606   -1.9640   -1.5995 C   0  0  0  0  0  0  0  0  0  0  0  0
    4.8600   -0.8883   -1.6560 C   0  0  0  0  0  0  0  0  0  0  0  0
    5.2071   -0.1898   -0.5204 C   0  0  0  0  0  0  0  0  0  0  0  0
    4.6469   -0.5763    0.6736 C   0  0  0  0  0  0  0  0  0  0  0  0
    3.7549   -1.6406    0.7399 C   0  0  0  0  0  0  0  0  0  0  0  0
    6.1395    0.9321   -0.5513 C   0  0  0  0  0  0  0  0  0  0  0  0
    6.7956    1.4598   -1.6417 C   0  0  0  0  0  0  0  0  0  0  0  0
    7.5686    2.4891   -1.2620 N   0  0  0  0  0  0  0  0  0  0  0  0
    8.3904    3.3267   -1.9065 N   0  0  0  0  0  0  0  0  0  0  0  0
    9.0677    4.2948   -1.3040 C   0  0  0  0  0  0  0  0  0  0  0  0
    8.9181    4.4399    0.0279 N   0  0  0  0  0  0  0  0  0  0  0  0
    8.0983    3.6152    0.7155 C   0  0  0  0  0  0  0  0  0  0  0  0
    7.9179    3.7444    2.1350 N   0  0  0  0  0  0  0  0  0  0  0  0
    7.4046    2.6157    0.0656 C   0  0  0  0  0  0  0  0  0  0  0  0
    6.5395    1.6731    0.4960 N   0  0  0  0  0  0  0  0  0  0  0  0
   -2.0540   -2.0723    1.1526 C   0  0  0  0  0  0  0  0  0  0  0  0
   -1.8911   -1.9988    2.5167 C   0  0  0  0  0  0  0  0  0  0  0  0
   -2.9546   -1.6347    3.3037 C   0  0  0  0  0  0  0  0  0  0  0  0
   -4.1673   -1.3484    2.7209 C   0  0  0  0  0  0  0  0  0  0  0  0
   -4.3742   -1.4097    1.3565 C   0  0  0  0  0  0  0  0  0  0  0  0
   -3.2794   -1.7795    0.6036 C   0  0  0  0  0  0  0  0  0  0  0  0
   -5.6450   -1.1088    0.7562 C   0  0  0  0  0  0  0  0  0  0  0  0
   -6.7172   -0.8764    0.2551 C   0  0  0  0  0  0  0  0  0  0  0  0
   -8.0392   -0.5720   -0.3432 C   0  0  0  0  0  0  0  0  0  0  0  0
   -8.6448    0.6027    0.2058 N   0  0  0  0  0  0  0  0  0  0  0  0
   -8.0755    1.8890    0.0839 C   0  0  0  0  0  0  0  0  0  0  0  0
   -6.9514    2.0707   -0.6523 C   0  0  0  0  0  0  0  0  0  0  0  0
   -6.4189    3.3581   -0.7422 C   0  0  0  0  0  0  0  0  0  0  0  0
   -7.0028    4.3922   -0.1169 N   0  0  0  0  0  0  0  0  0  0  0  0
   -8.1229    4.2314    0.6209 C   0  0  0  0  0  0  0  0  0  0  0  0
   -8.6514    2.9772    0.7153 C   0  0  0  0  0  0  0  0  0  0  0  0
   -0.0922   -3.6506   -3.4910 H   0  0  0  0  0  0  0  0  0  0  0  0
    1.5637   -3.9736   -2.9191 H   0  0  0  0  0  0  0  0  0  0  0  0
    1.1012   -2.2555   -3.3739 H   0  0  0  0  0  0  0  0  0  0  0  0
   -1.7844   -2.3976   -1.7227 H   0  0  0  0  0  0  0  0  0  0  0  0
    2.6152   -4.0026    0.6380 H   0  0  0  0  0  0  0  0  0  0  0  0
    2.7058   -4.2394   -1.1145 H   0  0  0  0  0  0  0  0  0  0  0  0
    3.7472   -2.4572   -2.5334 H   0  0  0  0  0  0  0  0  0  0  0  0
    5.2985   -0.5850   -2.5875 H   0  0  0  0  0  0  0  0  0  0  0  0
    4.9128   -0.0350    1.5699 H   0  0  0  0  0  0  0  0  0  0  0  0
    3.3244   -1.9248    1.7096 H   0  0  0  0  0  0  0  0  0  0  0  0
    6.6804    1.0744   -2.6450 H   0  0  0  0  0  0  0  0  0  0  0  0
    9.7218    4.9546   -1.8448 H   0  0  0  0  0  0  0  0  0  0  0  0
    7.0176    3.5090    2.6024 H   0  0  0  0  0  0  0  0  0  0  0  0
    8.7404    4.0876    2.6711 H   0  0  0  0  0  0  0  0  0  0  0  0
   -0.9348   -2.2254    2.9664 H   0  0  0  0  0  0  0  0  0  0  0  0
   -2.8443   -1.5734    4.3590 H   0  0  0  0  0  0  0  0  0  0  0  0
   -5.0070   -1.0616    3.3348 H   0  0  0  0  0  0  0  0  0  0  0  0
   -3.4144   -1.8358   -0.4736 H   0  0  0  0  0  0  0  0  0  0  0  0
   -7.8539   -0.4723   -1.4529 H   0  0  0  0  0  0  0  0  0  0  0  0
   -8.7152   -1.4485   -0.2574 H   0  0  0  0  0  0  0  0  0  0  0  0
   -9.5474    0.5064    0.7193 H   0  0  0  0  0  0  0  0  0  0  0  0
   -6.4136    1.3106   -1.1916 H   0  0  0  0  0  0  0  0  0  0  0  0
   -5.5120    3.5304   -1.3305 H   0  0  0  0  0  0  0  0  0  0  0  0
   -8.5394    5.1105    1.0973 H   0  0  0  0  0  0  0  0  0  0  0  0
   -9.5626    2.8725    1.3211 H   0  0  0  0  0  0  0  0  0  0  0  0
  1  2  1  0
  2  3  2  0
  3  4  1  0
  4  5  2  0
  5  6  1  0
  6  7  1  0
  7  8  1  0
  8  9  2  0
  9 10  1  0
 10 11  2  0
 11 12  1  0
 12 13  2  0
 11 14  1  0
 14 15  2  0
 15 16  1  0
 16 17  1  0
 17 18  2  0
 18 19  1  0
 19 20  2  0
 20 21  1  0
 20 22  1  0
 22 23  2  0
  4 24  1  0
 24 25  2  0
 25 26  1  0
 26 27  2  0
 27 28  1  0
 28 29  2  0
 28 30  1  0
 30 31  3  0
 31 32  1  0
 32 33  1  0
 33 34  1  0
 34 35  2  0
 35 36  1  0
 36 37  2  0
 37 38  1  0
 38 39  2  0
  6  2  1  0
 13  8  1  0
 23 14  1  0
 29 24  1  0
 39 34  1  0
 22 16  1  0
  1 40  1  0
  1 41  1  0
  1 42  1  0
  3 43  1  0
  7 44  1  0
  7 45  1  0
  9 46  1  0
 10 47  1  0
 12 48  1  0
 13 49  1  0
 15 50  1  0
 18 51  1  0
 21 52  1  0
 21 53  1  0
 25 54  1  0
 26 55  1  0
 27 56  1  0
 29 57  1  0
 32 58  1  0
 32 59  1  0
 33 60  1  0
 35 61  1  0
 36 62  1  0
 38 63  1  0
 39 64  1  0
M  END
$$$$
[H]OC(=O)C1([H])N2C(=O)C(Br)=C(O[H])C2=C([H])[C@@]([H])(c2c([H])c([H])c([H])c(F)c2[H])N1S(=O)(=O)C([H])(C([H])([H])[H])C([H])([H])[H]
     RDKit          3D

 44 46  0  0  0  0  0  0  0  0999 V2000
    3.6716   -2.5128   -0.7719 C   0  0  0  0  0  0  0  0  0  0  0  0
    2.5936   -1.7417    0.0609 C   0  0  0  0  0  0  0  0  0  0  0  0
    1.8457   -2.8060    0.7841 C   0  0  0  0  0  0  0  0  0  0  0  0
    1.6103   -0.8006   -1.0388 S   0  0  0  0  0  0  0  0  0  0  0  0
    2.5887   -0.0124   -1.9119 O   0  0  0  0  0  0  0  0  0  0  0  0
    0.8204   -1.7173   -1.9489 O   0  0  0  0  0  0  0  0  0  0  0  0
    0.5367    0.3132   -0.3381 N   0  0  0  0  0  0  0  0  0  0  0  0
   -0.4597   -0.1691    0.4932 C   0  0  1  0  0  0  0  0  0  0  0  0
   -1.0104    0.7921    1.4616 C   0  0  0  0  0  0  0  0  0  0  0  0
   -0.5809    2.0212    1.5681 C   0  0  0  0  0  0  0  0  0  0  0  0
   -0.9825    3.1368    2.4594 C   0  0  0  0  0  0  0  0  0  0  0  0
   -1.9883    3.0316    3.4049 O   0  0  0  0  0  0  0  0  0  0  0  0
   -0.2521    4.1955    2.2087 C   0  0  0  0  0  0  0  0  0  0  0  0
   -0.3265    5.9090    3.0428 Br  0  0  0  0  0  0  0  0  0  0  0  0
    0.6833    3.8387    1.1265 C   0  0  0  0  0  0  0  0  0  0  0  0
    1.5325    4.6138    0.6364 O   0  0  0  0  0  0  0  0  0  0  0  0
    0.4599    2.4882    0.7449 N   0  0  0  0  0  0  0  0  0  0  0  0
    1.0402    1.6232   -0.2387 C   0  0  0  0  0  0  0  0  0  0  0  0
    0.9729    2.2369   -1.6122 C   0  0  0  0  0  0  0  0  0  0  0  0
    0.3823    1.5624   -2.6744 O   0  0  0  0  0  0  0  0  0  0  0  0
    1.4515    3.3754   -1.8253 O   0  0  0  0  0  0  0  0  0  0  0  0
   -1.6400   -0.8139   -0.1549 C   0  0  0  0  0  0  0  0  0  0  0  0
   -2.0782   -2.0613    0.2379 C   0  0  0  0  0  0  0  0  0  0  0  0
   -3.1769   -2.6753   -0.3283 C   0  0  0  0  0  0  0  0  0  0  0  0
   -3.8831   -2.0378   -1.3292 C   0  0  0  0  0  0  0  0  0  0  0  0
   -3.4786   -0.8100   -1.7385 C   0  0  0  0  0  0  0  0  0  0  0  0
   -4.1681   -0.1848   -2.7174 F   0  0  0  0  0  0  0  0  0  0  0  0
   -2.3603   -0.2080   -1.1478 C   0  0  0  0  0  0  0  0  0  0  0  0
    3.9112   -1.9294   -1.6843 H   0  0  0  0  0  0  0  0  0  0  0  0
    4.5900   -2.6214   -0.1596 H   0  0  0  0  0  0  0  0  0  0  0  0
    3.2943   -3.5137   -1.0279 H   0  0  0  0  0  0  0  0  0  0  0  0
    3.1802   -1.1241    0.7668 H   0  0  0  0  0  0  0  0  0  0  0  0
    0.8877   -3.0376    0.2980 H   0  0  0  0  0  0  0  0  0  0  0  0
    1.6344   -2.5493    1.8617 H   0  0  0  0  0  0  0  0  0  0  0  0
    2.4372   -3.7583    0.8585 H   0  0  0  0  0  0  0  0  0  0  0  0
    0.0216   -0.9884    1.1440 H   0  0  0  0  0  0  0  0  0  0  0  0
   -1.8222    0.5025    2.1459 H   0  0  0  0  0  0  0  0  0  0  0  0
   -2.9605    3.1548    3.2316 H   0  0  0  0  0  0  0  0  0  0  0  0
    2.1598    1.5842   -0.0175 H   0  0  0  0  0  0  0  0  0  0  0  0
    0.7411    1.7162   -3.6288 H   0  0  0  0  0  0  0  0  0  0  0  0
   -1.5265   -2.5618    1.0213 H   0  0  0  0  0  0  0  0  0  0  0  0
   -3.5149   -3.6666   -0.0074 H   0  0  0  0  0  0  0  0  0  0  0  0
   -4.7467   -2.5655   -1.7466 H   0  0  0  0  0  0  0  0  0  0  0  0
   -2.0907    0.7712   -1.5087 H   0  0  0  0  0  0  0  0  0  0  0  0
  1  2  1  0
  2  3  1  0
  2  4  1  0
  4  5  2  0
  4  6  2  0
  4  7  1  0
  7  8  1  0
  8  9  1  0
  9 10  2  0
 10 11  1  0
 11 12  1  0
 11 13  2  0
 13 14  1  0
 13 15  1  0
 15 16  2  0
 15 17  1  0
 17 18  1  0
 18 19  1  0
 19 20  1  0
 19 21  2  0
  8 22  1  0
 22 23  2  0
 23 24  1  0
 24 25  2  0
 25 26  1  0
 26 27  1  0
 26 28  2  0
 18  7  1  0
 28 22  1  0
 17 10  1  0
  1 29  1  0
  1 30  1  0
  1 31  1  0
  2 32  1  0
  3 33  1  0
  3 34  1  0
  3 35  1  0
  8 36  1  1
  9 37  1  0
 12 38  1  0
 18 39  1  0
 20 40  1  0
 23 41  1  0
 24 42  1  0
 25 43  1  0
 28 44  1  0
M  END
$$$$
[H]c1c([H])c([H])c2c(c1[H])C([H])([H])N(C(=O)c1c([H])c([H])c3c(c1[H])c(-c1c([H])c([H])c(F)c([H])c1[H])c([H])n3[H])C2([H])[H]
     RDKit          3D

 44 48  0  0  0  0  0  0  0  0999 V2000
   -6.6906    1.8836    3.2149 F   0  0  0  0  0  0  0  0  0  0  0  0
   -5.9488    1.2484    2.2495 C   0  0  0  0  0  0  0  0  0  0  0  0
   -6.1330   -0.0966    2.0235 C   0  0  0  0  0  0  0  0  0  0  0  0
   -5.3888   -0.7169    1.0604 C   0  0  0  0  0  0  0  0  0  0  0  0
   -4.4365   -0.0413    0.2832 C   0  0  0  0  0  0  0  0  0  0  0  0
   -4.2938    1.2879    0.5471 C   0  0  0  0  0  0  0  0  0  0  0  0
   -5.0254    1.9473    1.5095 C   0  0  0  0  0  0  0  0  0  0  0  0
   -3.6879   -0.7694   -0.7264 C   0  0  0  0  0  0  0  0  0  0  0  0
   -4.1469   -1.6371   -1.6912 C   0  0  0  0  0  0  0  0  0  0  0  0
   -3.1159   -2.0841   -2.4241 N   0  0  0  0  0  0  0  0  0  0  0  0
   -1.9524   -1.5457   -1.9888 C   0  0  0  0  0  0  0  0  0  0  0  0
   -0.6476   -1.6723   -2.3830 C   0  0  0  0  0  0  0  0  0  0  0  0
    0.3328   -0.9747   -1.7183 C   0  0  0  0  0  0  0  0  0  0  0  0
    0.0328   -0.1510   -0.6630 C   0  0  0  0  0  0  0  0  0  0  0  0
   -1.3150   -0.0377   -0.2779 C   0  0  0  0  0  0  0  0  0  0  0  0
   -2.3028   -0.7228   -0.9274 C   0  0  0  0  0  0  0  0  0  0  0  0
    0.9824    0.6030    0.1224 C   0  0  0  0  0  0  0  0  0  0  0  0
    0.4780    1.4038    1.0033 O   0  0  0  0  0  0  0  0  0  0  0  0
    2.3972    0.5813    0.0567 N   0  0  0  0  0  0  0  0  0  0  0  0
    3.1865    1.4679    0.9468 C   0  0  0  0  0  0  0  0  0  0  0  0
    4.5439    0.9446    0.8942 C   0  0  0  0  0  0  0  0  0  0  0  0
    5.7020    1.2394    1.6264 C   0  0  0  0  0  0  0  0  0  0  0  0
    6.9048    0.6213    1.4089 C   0  0  0  0  0  0  0  0  0  0  0  0
    6.9666   -0.3283    0.4265 C   0  0  0  0  0  0  0  0  0  0  0  0
    5.8483   -0.6430   -0.3120 C   0  0  0  0  0  0  0  0  0  0  0  0
    4.6415    0.0018   -0.0675 C   0  0  0  0  0  0  0  0  0  0  0  0
    3.3183   -0.1819   -0.7273 C   0  0  0  0  0  0  0  0  0  0  0  0
   -6.8600   -0.6587    2.6024 H   0  0  0  0  0  0  0  0  0  0  0  0
   -5.5307   -1.7699    0.8811 H   0  0  0  0  0  0  0  0  0  0  0  0
   -3.5654    1.8407   -0.0422 H   0  0  0  0  0  0  0  0  0  0  0  0
   -4.8727    3.0242    1.6851 H   0  0  0  0  0  0  0  0  0  0  0  0
   -5.1966   -1.9068   -1.8223 H   0  0  0  0  0  0  0  0  0  0  0  0
   -3.1709   -2.7445   -3.2133 H   0  0  0  0  0  0  0  0  0  0  0  0
   -0.3531   -2.3016   -3.2003 H   0  0  0  0  0  0  0  0  0  0  0  0
    1.3712   -1.0656   -2.0485 H   0  0  0  0  0  0  0  0  0  0  0  0
   -1.6298    0.5933    0.5511 H   0  0  0  0  0  0  0  0  0  0  0  0
    3.1159    2.5166    0.6040 H   0  0  0  0  0  0  0  0  0  0  0  0
    2.7683    1.3222    1.9684 H   0  0  0  0  0  0  0  0  0  0  0  0
    5.5957    1.9944    2.3866 H   0  0  0  0  0  0  0  0  0  0  0  0
    7.7823    0.8933    2.0150 H   0  0  0  0  0  0  0  0  0  0  0  0
    7.8932   -0.8348    0.2266 H   0  0  0  0  0  0  0  0  0  0  0  0
    5.9400   -1.3936   -1.0729 H   0  0  0  0  0  0  0  0  0  0  0  0
    3.3642    0.1376   -1.7708 H   0  0  0  0  0  0  0  0  0  0  0  0
    3.0988   -1.2742   -0.5794 H   0  0  0  0  0  0  0  0  0  0  0  0
  1  2  1  0
  2  3  2  0
  3  4  1  0
  4  5  2  0
  5  6  1  0
  6  7  2  0
  5  8  1  0
  8  9  2  0
  9 10  1  0
 10 11  1  0
 11 12  2  0
 12 13  1  0
 13 14  2  0
 14 15  1  0
 15 16  2  0
 14 17  1  0
 17 18  2  0
 17 19  1  0
 19 20  1  0
 20 21  1  0
 21 22  2  0
 22 23  1  0
 23 24  2  0
 24 25  1  0
 25 26  2  0
 26 27  1  0
  7  2  1  0
 16  8  1  0
 27 19  1  0
 16 11  1  0
 26 21  1  0
  3 28  1  0
  4 29  1  0
  6 30  1  0
  7 31  1  0
  9 32  1  0
 10 33  1  0
 12 34  1  0
 13 35  1  0
 15 36  1  0
 20 37  1  0
 20 38  1  0
 22 39  1  0
 23 40  1  0
 24 41  1  0
 25 42  1  0
 27 43  1  0
 27 44  1  0
M  END
$$$$
[H]C1=C2C([H])([H])C([H])([H])[C@@]3([H])[C@]4([H])C([H])([H])C([H])([H])C(C([H])([H])[H])(C([H])([H])[H])[C@@]4(C([H])([H])[H])C([H])([H])C([H])([H])[C@]3([H])[C@@]2(C([H])([H])[H])C([H])([H])C([H])([H])C1=O
     RDKit          3D

 54 57  0  0  0  0  0  0  0  0999 V2000
   -1.9234    1.3951   -1.0864 C   0  0  0  0  0  0  0  0  0  0  0  0
   -1.8603    0.5149    0.1170 C   0  0  2  0  0  0  0  0  0  0  0  0
   -1.1095    1.1672    1.2187 C   0  0  0  0  0  0  0  0  0  0  0  0
    0.3315    1.3167    0.8497 C   0  0  0  0  0  0  0  0  0  0  0  0
    0.9966    0.0800    0.3718 C   0  0  1  0  0  0  0  0  0  0  0  0
    0.1831   -0.6558   -0.7030 C   0  0  1  0  0  0  0  0  0  0  0  0
    0.7832   -2.0363   -0.8402 C   0  0  0  0  0  0  0  0  0  0  0  0
    2.2048   -1.9354   -1.3488 C   0  0  0  0  0  0  0  0  0  0  0  0
    2.9615   -0.9626   -0.5066 C   0  0  0  0  0  0  0  0  0  0  0  0
    4.1316   -1.3250   -0.0210 C   0  0  0  0  0  0  0  0  0  0  0  0
    4.9274   -0.4207    0.8157 C   0  0  0  0  0  0  0  0  0  0  0  0
    6.1498   -0.4998    0.9951 O   0  0  0  0  0  0  0  0  0  0  0  0
    4.1573    0.6659    1.4837 C   0  0  0  0  0  0  0  0  0  0  0  0
    3.2094    1.2960    0.4909 C   0  0  0  0  0  0  0  0  0  0  0  0
    2.3402    0.3618   -0.2615 C   0  0  2  0  0  0  0  0  0  0  0  0
    2.1384    1.0008   -1.6499 C   0  0  0  0  0  0  0  0  0  0  0  0
   -1.1750   -0.8163   -0.1212 C   0  0  2  0  0  0  0  0  0  0  0  0
   -2.1772   -1.5417   -0.9172 C   0  0  0  0  0  0  0  0  0  0  0  0
   -3.4034   -1.3599   -0.0405 C   0  0  0  0  0  0  0  0  0  0  0  0
   -3.2452    0.0520    0.4879 C   0  0  0  0  0  0  0  0  0  0  0  0
   -4.3347    0.8722   -0.1724 C   0  0  0  0  0  0  0  0  0  0  0  0
   -3.4943    0.1061    1.9780 C   0  0  0  0  0  0  0  0  0  0  0  0
   -2.0882    2.4469   -0.7095 H   0  0  0  0  0  0  0  0  0  0  0  0
   -2.8200    1.2016   -1.7342 H   0  0  0  0  0  0  0  0  0  0  0  0
   -1.0292    1.4346   -1.7042 H   0  0  0  0  0  0  0  0  0  0  0  0
   -1.4992    2.1778    1.4662 H   0  0  0  0  0  0  0  0  0  0  0  0
   -1.1858    0.5143    2.1215 H   0  0  0  0  0  0  0  0  0  0  0  0
    0.8520    1.5968    1.8171 H   0  0  0  0  0  0  0  0  0  0  0  0
    0.4678    2.1956    0.1922 H   0  0  0  0  0  0  0  0  0  0  0  0
    1.1622   -0.6187    1.1990 H   0  0  0  0  0  0  0  0  0  0  0  0
    0.2199   -0.1700   -1.6731 H   0  0  0  0  0  0  0  0  0  0  0  0
    0.1959   -2.6068   -1.5946 H   0  0  0  0  0  0  0  0  0  0  0  0
    0.7446   -2.5645    0.1363 H   0  0  0  0  0  0  0  0  0  0  0  0
    2.6295   -2.9672   -1.2231 H   0  0  0  0  0  0  0  0  0  0  0  0
    2.2148   -1.7214   -2.4131 H   0  0  0  0  0  0  0  0  0  0  0  0
    4.5609   -2.3068   -0.2172 H   0  0  0  0  0  0  0  0  0  0  0  0
    3.6663    0.3369    2.4124 H   0  0  0  0  0  0  0  0  0  0  0  0
    4.8859    1.4553    1.7565 H   0  0  0  0  0  0  0  0  0  0  0  0
    3.8927    1.8106   -0.2560 H   0  0  0  0  0  0  0  0  0  0  0  0
    2.6190    2.0712    0.9860 H   0  0  0  0  0  0  0  0  0  0  0  0
    3.0774    1.5827   -1.8986 H   0  0  0  0  0  0  0  0  0  0  0  0
    2.0365    0.2735   -2.4478 H   0  0  0  0  0  0  0  0  0  0  0  0
    1.3388    1.7386   -1.6489 H   0  0  0  0  0  0  0  0  0  0  0  0
   -1.0751   -1.2985    0.8710 H   0  0  0  0  0  0  0  0  0  0  0  0
   -1.9252   -2.6235   -0.9652 H   0  0  0  0  0  0  0  0  0  0  0  0
   -2.3554   -1.1198   -1.9202 H   0  0  0  0  0  0  0  0  0  0  0  0
   -4.3445   -1.5133   -0.5834 H   0  0  0  0  0  0  0  0  0  0  0  0
   -3.3113   -2.0875    0.8012 H   0  0  0  0  0  0  0  0  0  0  0  0
   -5.2665    0.7650    0.4512 H   0  0  0  0  0  0  0  0  0  0  0  0
   -4.6128    0.4139   -1.1579 H   0  0  0  0  0  0  0  0  0  0  0  0
   -4.0606    1.9317   -0.2880 H   0  0  0  0  0  0  0  0  0  0  0  0
   -3.0448   -0.7375    2.5213 H   0  0  0  0  0  0  0  0  0  0  0  0
   -3.1355    1.0358    2.4157 H   0  0  0  0  0  0  0  0  0  0  0  0
   -4.6019    0.0774    2.1477 H   0  0  0  0  0  0  0  0  0  0  0  0
  2  1  1  6
  2  3  1  0
  3  4  1  0
  4  5  1  0
  5  6  1  0
  6  7  1  0
  7  8  1  0
  8  9  1  0
  9 10  2  0
 10 11  1  0
 11 12  2  0
 11 13  1  0
 13 14  1  0
 14 15  1  0
 15 16  1  6
  6 17  1  0
 17 18  1  0
 18 19  1  0
 19 20  1  0
 20 21  1  0
 20 22  1  0
 17  2  1  0
 20  2  1  0
 15  5  1  0
 15  9  1  0
  1 23  1  0
  1 24  1  0
  1 25  1  0
  3 26  1  0
  3 27  1  0
  4 28  1  0
  4 29  1  0
  5 30  1  1
  6 31  1  6
  7 32  1  0
  7 33  1  0
  8 34  1  0
  8 35  1  0
 10 36  1  0
 13 37  1  0
 13 38  1  0
 14 39  1  0
 14 40  1  0
 16 41  1  0
 16 42  1  0
 16 43  1  0
 17 44  1  1
 18 45  1  0
 18 46  1  0
 19 47  1  0
 19 48  1  0
 21 49  1  0
 21 50  1  0
 21 51  1  0
 22 52  1  0
 22 53  1  0
 22 54  1  0
M  END
$$$$
