[H]c1nc(N([H])[H])sc1-c1c([H])c([H])c2c(-c3nc(N4C([H])([H])C([H])([H])N([H])C([H])([H])C4([H])[H])c([H])c([H])c3[H])nn([H])c2c1[H]
     RDKit          3D

 46 50  0  0  0  0  0  0  0  0999 V2000
    8.6646    2.1993   -0.6075 N   0  0  0  0  0  0  0  0  0  0  0  0
    7.2597    1.8522   -0.5460 C   0  0  0  0  0  0  0  0  0  0  0  0
    6.2766    2.2746   -1.3273 N   0  0  0  0  0  0  0  0  0  0  0  0
    5.0694    1.8561   -1.1258 C   0  0  0  0  0  0  0  0  0  0  0  0
    4.8659    0.9779   -0.0914 C   0  0  0  0  0  0  0  0  0  0  0  0
    6.4432    0.8071    0.5343 S   0  0  0  0  0  0  0  0  0  0  0  0
    3.5937    0.3582    0.3424 C   0  0  0  0  0  0  0  0  0  0  0  0
    2.4206    0.6250   -0.2984 C   0  0  0  0  0  0  0  0  0  0  0  0
    1.2444    0.0229    0.1386 C   0  0  0  0  0  0  0  0  0  0  0  0
    1.2556   -0.8489    1.2237 C   0  0  0  0  0  0  0  0  0  0  0  0
    0.2992   -1.5705    1.8667 C   0  0  0  0  0  0  0  0  0  0  0  0
    0.9291   -2.2374    2.8609 N   0  0  0  0  0  0  0  0  0  0  0  0
    2.2068   -1.9666    2.8621 N   0  0  0  0  0  0  0  0  0  0  0  0
    2.4746   -1.0976    1.8542 C   0  0  0  0  0  0  0  0  0  0  0  0
    3.6274   -0.4912    1.4057 C   0  0  0  0  0  0  0  0  0  0  0  0
   -1.1216   -1.6324    1.5683 C   0  0  0  0  0  0  0  0  0  0  0  0
   -1.9376   -2.4435    2.3594 C   0  0  0  0  0  0  0  0  0  0  0  0
   -3.2887   -2.5518    2.1368 C   0  0  0  0  0  0  0  0  0  0  0  0
   -3.8341   -1.8309    1.0978 C   0  0  0  0  0  0  0  0  0  0  0  0
   -3.0365   -1.0110    0.2908 C   0  0  0  0  0  0  0  0  0  0  0  0
   -1.7374   -0.9724    0.5862 N   0  0  0  0  0  0  0  0  0  0  0  0
   -3.6180   -0.2758   -0.7752 N   0  0  0  0  0  0  0  0  0  0  0  0
   -5.0378   -0.3919   -0.9995 C   0  0  0  0  0  0  0  0  0  0  0  0
   -5.5694    0.5939   -1.9865 C   0  0  0  0  0  0  0  0  0  0  0  0
   -4.7759    1.8110   -1.8555 N   0  0  0  0  0  0  0  0  0  0  0  0
   -3.4863    1.5094   -2.4736 C   0  0  0  0  0  0  0  0  0  0  0  0
   -2.7623    0.5545   -1.5865 C   0  0  0  0  0  0  0  0  0  0  0  0
    9.0947    2.4693   -1.4983 H   0  0  0  0  0  0  0  0  0  0  0  0
    9.2200    2.1659    0.2779 H   0  0  0  0  0  0  0  0  0  0  0  0
    4.2156    2.1846   -1.7569 H   0  0  0  0  0  0  0  0  0  0  0  0
    2.3850    1.2987   -1.1442 H   0  0  0  0  0  0  0  0  0  0  0  0
    0.3102    0.2130   -0.3441 H   0  0  0  0  0  0  0  0  0  0  0  0
    2.9645   -2.3196    3.5002 H   0  0  0  0  0  0  0  0  0  0  0  0
    4.5498   -0.7221    1.9358 H   0  0  0  0  0  0  0  0  0  0  0  0
   -1.4814   -2.9979    3.1682 H   0  0  0  0  0  0  0  0  0  0  0  0
   -3.8983   -3.1954    2.7747 H   0  0  0  0  0  0  0  0  0  0  0  0
   -4.9002   -1.9081    0.9118 H   0  0  0  0  0  0  0  0  0  0  0  0
   -5.5504   -0.1965   -0.0228 H   0  0  0  0  0  0  0  0  0  0  0  0
   -5.3059   -1.4114   -1.3682 H   0  0  0  0  0  0  0  0  0  0  0  0
   -5.5002    0.2190   -3.0439 H   0  0  0  0  0  0  0  0  0  0  0  0
   -6.6053    0.8502   -1.7444 H   0  0  0  0  0  0  0  0  0  0  0  0
   -5.1940    2.6265   -2.3114 H   0  0  0  0  0  0  0  0  0  0  0  0
   -3.6532    1.1069   -3.5030 H   0  0  0  0  0  0  0  0  0  0  0  0
   -2.8956    2.4242   -2.5884 H   0  0  0  0  0  0  0  0  0  0  0  0
   -2.0962   -0.0804   -2.2040 H   0  0  0  0  0  0  0  0  0  0  0  0
   -2.0846    1.1529   -0.9146 H   0  0  0  0  0  0  0  0  0  0  0  0
  1  2  1  0
  2  3  2  0
  3  4  1  0
  4  5  2  0
  5  6  1  0
  5  7  1  0
  7  8  2  0
  8  9  1  0
  9 10  2  0
 10 11  1  0
 11 12  2  0
 12 13  1  0
 13 14  1  0
 14 15  2  0
 11 16  1  0
 16 17  2  0
 17 18  1  0
 18 19  2  0
 19 20  1  0
 20 21  2  0
 20 22  1  0
 22 23  1  0
 23 24  1  0
 24 25  1  0
 25 26  1  0
 26 27  1  0
  6  2  1  0
 15  7  1  0
 21 16  1  0
 27 22  1  0
 14 10  1  0
  1 28  1  0
  1 29  1  0
  4 30  1  0
  8 31  1  0
  9 32  1  0
 13 33  1  0
 15 34  1  0
 17 35  1  0
 18 36  1  0
 19 37  1  0
 23 38  1  0
 23 39  1  0
 24 40  1  0
 24 41  1  0
 25 42  1  0
 26 43  1  0
 26 44  1  0
 27 45  1  0
 27 46  1  0
M  END
$$$$
[H]OC([H])([H])[C@@]1(O[H])C([H])([H])[C@@]2([H])O[C@]1(C([H])([H])[H])n1c3c([H])c([H])c([H])c([H])c3c3c4c(c5c6c([H])c([H])c([H])c([H])c6n2c5c31)C(=O)N([H])C4([H])[H]
     RDKit          3D

 54 61  0  0  0  0  0  0  0  0999 V2000
    3.1800    0.8838    1.3878 C   0  0  0  0  0  0  0  0  0  0  0  0
    2.1176    0.2237    0.5774 C   0  0  2  0  0  0  0  0  0  0  0  0
    1.6968   -0.7870    1.4854 O   0  0  0  0  0  0  0  0  0  0  0  0
    1.2511   -1.8639    0.7986 C   0  0  2  0  0  0  0  0  0  0  0  0
    2.0328   -1.9517   -0.4419 C   0  0  0  0  0  0  0  0  0  0  0  0
    2.6347   -0.5714   -0.5849 C   0  0  1  0  0  0  0  0  0  0  0  0
    2.2138   -0.0799   -1.8115 O   0  0  0  0  0  0  0  0  0  0  0  0
    4.1191   -0.7109   -0.6110 C   0  0  0  0  0  0  0  0  0  0  0  0
    4.4589   -1.5975   -1.6334 O   0  0  0  0  0  0  0  0  0  0  0  0
   -0.2014   -1.7853    0.5955 N   0  0  0  0  0  0  0  0  0  0  0  0
   -1.1044   -2.7499    0.6347 C   0  0  0  0  0  0  0  0  0  0  0  0
   -0.9179   -4.0868    0.8734 C   0  0  0  0  0  0  0  0  0  0  0  0
   -2.0299   -4.9199    0.8648 C   0  0  0  0  0  0  0  0  0  0  0  0
   -3.2823   -4.4161    0.6235 C   0  0  0  0  0  0  0  0  0  0  0  0
   -3.4758   -3.0511    0.3794 C   0  0  0  0  0  0  0  0  0  0  0  0
   -2.3768   -2.2421    0.3902 C   0  0  0  0  0  0  0  0  0  0  0  0
   -2.2053   -0.8905    0.1945 C   0  0  0  0  0  0  0  0  0  0  0  0
   -3.0670    0.1511   -0.0975 C   0  0  0  0  0  0  0  0  0  0  0  0
   -4.5001    0.2660   -0.2996 C   0  0  0  0  0  0  0  0  0  0  0  0
   -5.3884   -0.5871   -0.2658 O   0  0  0  0  0  0  0  0  0  0  0  0
   -4.7851    1.6416   -0.5724 N   0  0  0  0  0  0  0  0  0  0  0  0
   -3.5735    2.4248   -0.5610 C   0  0  0  0  0  0  0  0  0  0  0  0
   -2.5314    1.4168   -0.2472 C   0  0  0  0  0  0  0  0  0  0  0  0
   -1.1701    1.6669   -0.1133 C   0  0  0  0  0  0  0  0  0  0  0  0
   -0.3770    2.7657   -0.2198 C   0  0  0  0  0  0  0  0  0  0  0  0
   -0.7006    4.0705   -0.5126 C   0  0  0  0  0  0  0  0  0  0  0  0
    0.3203    5.0230   -0.5829 C   0  0  0  0  0  0  0  0  0  0  0  0
    1.6233    4.6180   -0.3553 C   0  0  0  0  0  0  0  0  0  0  0  0
    1.9232    3.2989   -0.0625 C   0  0  0  0  0  0  0  0  0  0  0  0
    0.9354    2.3466    0.0129 C   0  0  0  0  0  0  0  0  0  0  0  0
    0.9590    1.0103    0.2643 N   0  0  0  0  0  0  0  0  0  0  0  0
   -0.3578    0.6223    0.1746 C   0  0  0  0  0  0  0  0  0  0  0  0
   -0.8544   -0.6533    0.3299 C   0  0  0  0  0  0  0  0  0  0  0  0
    4.0624    1.2462    0.8471 H   0  0  0  0  0  0  0  0  0  0  0  0
    3.5596    0.1949    2.1815 H   0  0  0  0  0  0  0  0  0  0  0  0
    2.7312    1.7230    1.9466 H   0  0  0  0  0  0  0  0  0  0  0  0
    1.4219   -2.7643    1.4120 H   0  0  0  0  0  0  0  0  0  0  0  0
    1.4720   -2.2700   -1.3403 H   0  0  0  0  0  0  0  0  0  0  0  0
    2.8377   -2.7359   -0.3258 H   0  0  0  0  0  0  0  0  0  0  0  0
    2.8799   -0.3390   -2.4928 H   0  0  0  0  0  0  0  0  0  0  0  0
    4.5238   -1.1579    0.3296 H   0  0  0  0  0  0  0  0  0  0  0  0
    4.6358    0.2581   -0.8438 H   0  0  0  0  0  0  0  0  0  0  0  0
    4.7979   -2.4633   -1.2908 H   0  0  0  0  0  0  0  0  0  0  0  0
    0.0592   -4.4684    1.0598 H   0  0  0  0  0  0  0  0  0  0  0  0
   -1.8569   -5.9719    1.0560 H   0  0  0  0  0  0  0  0  0  0  0  0
   -4.1224   -5.0759    0.6219 H   0  0  0  0  0  0  0  0  0  0  0  0
   -4.4721   -2.7398    0.2018 H   0  0  0  0  0  0  0  0  0  0  0  0
   -5.7336    2.0654   -0.7610 H   0  0  0  0  0  0  0  0  0  0  0  0
   -3.6366    3.2333    0.1993 H   0  0  0  0  0  0  0  0  0  0  0  0
   -3.3846    2.8954   -1.5673 H   0  0  0  0  0  0  0  0  0  0  0  0
   -1.7294    4.3700   -0.6881 H   0  0  0  0  0  0  0  0  0  0  0  0
    0.0587    6.0490   -0.8135 H   0  0  0  0  0  0  0  0  0  0  0  0
    2.3774    5.3965   -0.4223 H   0  0  0  0  0  0  0  0  0  0  0  0
    2.9510    3.0689    0.0761 H   0  0  0  0  0  0  0  0  0  0  0  0
  2  1  1  1
  2  3  1  0
  3  4  1  0
  4  5  1  0
  5  6  1  0
  6  7  1  6
  6  8  1  0
  8  9  1  0
  4 10  1  0
 10 11  1  0
 11 12  2  0
 12 13  1  0
 13 14  2  0
 14 15  1  0
 15 16  2  0
 16 17  1  0
 17 18  2  0
 18 19  1  0
 19 20  2  0
 19 21  1  0
 21 22  1  0
 22 23  1  0
 23 24  2  0
 24 25  1  0
 25 26  2  0
 26 27  1  0
 27 28  2  0
 28 29  1  0
 29 30  2  0
 30 31  1  0
 31 32  1  0
 32 33  2  0
  6  2  1  0
 33 10  1  0
 31  2  1  0
 16 11  1  0
 33 17  1  0
 23 18  1  0
 32 24  1  0
 30 25  1  0
  1 34  1  0
  1 35  1  0
  1 36  1  0
  4 37  1  1
  5 38  1  0
  5 39  1  0
  7 40  1  0
  8 41  1  0
  8 42  1  0
  9 43  1  0
 12 44  1  0
 13 45  1  0
 14 46  1  0
 15 47  1  0
 21 48  1  0
 22 49  1  0
 22 50  1  0
 26 51  1  0
 27 52  1  0
 28 53  1  0
 29 54  1  0
M  END
$$$$
[H]c1c([H])c([H])c2c(c1[H])c1c3c(c4c5c([H])c([H])c([H])c([H])c5n5c4c1n2[C@@]1(C([H])([H])[H])O[C@]5([H])C([H])([H])[C@@]([H])(N([H])C([H])([H])[H])[C@@]1([H])OC([H])([H])[H])C(=O)N([H])C3([H])[H]
     RDKit          3D

 61 68  0  0  0  0  0  0  0  0999 V2000
   -3.3415   -2.0929    0.8927 C   0  0  0  0  0  0  0  0  0  0  0  0
   -2.7520   -0.8244    0.5060 N   0  0  0  0  0  0  0  0  0  0  0  0
   -2.5947   -0.7699   -0.9652 C   0  0  2  0  0  0  0  0  0  0  0  0
   -1.6635   -1.8336   -1.3456 C   0  0  0  0  0  0  0  0  0  0  0  0
   -0.4098   -1.3263   -1.9401 C   0  0  1  0  0  0  0  0  0  0  0  0
   -0.2904   -0.0961   -2.3609 O   0  0  0  0  0  0  0  0  0  0  0  0
   -0.9141    0.9817   -1.7381 C   0  0  1  0  0  0  0  0  0  0  0  0
   -0.8729    2.0231   -2.8643 C   0  0  0  0  0  0  0  0  0  0  0  0
   -2.2914    0.6326   -1.4119 C   0  0  2  0  0  0  0  0  0  0  0  0
   -2.9229    1.4324   -0.4622 O   0  0  0  0  0  0  0  0  0  0  0  0
   -4.0664    2.0564   -0.9455 C   0  0  0  0  0  0  0  0  0  0  0  0
   -0.0747    1.3904   -0.5981 N   0  0  0  0  0  0  0  0  0  0  0  0
    0.0066    2.5943   -0.0347 C   0  0  0  0  0  0  0  0  0  0  0  0
   -0.6403    3.7755   -0.2701 C   0  0  0  0  0  0  0  0  0  0  0  0
   -0.3753    4.9057    0.4704 C   0  0  0  0  0  0  0  0  0  0  0  0
    0.5715    4.8915    1.4994 C   0  0  0  0  0  0  0  0  0  0  0  0
    1.2169    3.7192    1.7374 C   0  0  0  0  0  0  0  0  0  0  0  0
    0.9447    2.6014    0.9941 C   0  0  0  0  0  0  0  0  0  0  0  0
    1.4533    1.3308    1.0530 C   0  0  0  0  0  0  0  0  0  0  0  0
    2.4134    0.7192    1.8621 C   0  0  0  0  0  0  0  0  0  0  0  0
    3.2252    1.2814    2.9656 C   0  0  0  0  0  0  0  0  0  0  0  0
    4.0513    0.2282    3.4563 N   0  0  0  0  0  0  0  0  0  0  0  0
    3.7725   -0.9500    2.6928 C   0  0  0  0  0  0  0  0  0  0  0  0
    4.3602   -2.0093    2.9202 O   0  0  0  0  0  0  0  0  0  0  0  0
    2.7553   -0.6238    1.7110 C   0  0  0  0  0  0  0  0  0  0  0  0
    2.1006   -1.3257    0.7242 C   0  0  0  0  0  0  0  0  0  0  0  0
    2.1422   -2.6347    0.2794 C   0  0  0  0  0  0  0  0  0  0  0  0
    2.8759   -3.7217    0.6638 C   0  0  0  0  0  0  0  0  0  0  0  0
    2.6892   -4.9254    0.0128 C   0  0  0  0  0  0  0  0  0  0  0  0
    1.7808   -5.0386   -1.0084 C   0  0  0  0  0  0  0  0  0  0  0  0
    1.0343   -3.9515   -1.4066 C   0  0  0  0  0  0  0  0  0  0  0  0
    1.2263   -2.7646   -0.7562 C   0  0  0  0  0  0  0  0  0  0  0  0
    0.6469   -1.5975   -0.9447 N   0  0  0  0  0  0  0  0  0  0  0  0
    1.1358   -0.7009   -0.0851 C   0  0  0  0  0  0  0  0  0  0  0  0
    0.8119    0.6350    0.0794 C   0  0  0  0  0  0  0  0  0  0  0  0
   -3.9345   -1.8764    1.8249 H   0  0  0  0  0  0  0  0  0  0  0  0
   -2.5804   -2.8202    1.1896 H   0  0  0  0  0  0  0  0  0  0  0  0
   -4.0376   -2.4413    0.1071 H   0  0  0  0  0  0  0  0  0  0  0  0
   -1.8252   -0.7857    0.9817 H   0  0  0  0  0  0  0  0  0  0  0  0
   -3.6418   -1.0758   -1.3069 H   0  0  0  0  0  0  0  0  0  0  0  0
   -1.4743   -2.5407   -0.4944 H   0  0  0  0  0  0  0  0  0  0  0  0
   -2.1827   -2.5069   -2.1019 H   0  0  0  0  0  0  0  0  0  0  0  0
   -0.1764   -2.0147   -2.8352 H   0  0  0  0  0  0  0  0  0  0  0  0
   -1.8561    2.5173   -2.9808 H   0  0  0  0  0  0  0  0  0  0  0  0
   -0.0367    2.7359   -2.7018 H   0  0  0  0  0  0  0  0  0  0  0  0
   -0.6761    1.5932   -3.8662 H   0  0  0  0  0  0  0  0  0  0  0  0
   -2.9127    0.7625   -2.3525 H   0  0  0  0  0  0  0  0  0  0  0  0
   -4.5472    2.6842   -0.1440 H   0  0  0  0  0  0  0  0  0  0  0  0
   -3.8494    2.7776   -1.7563 H   0  0  0  0  0  0  0  0  0  0  0  0
   -4.7942    1.3294   -1.3803 H   0  0  0  0  0  0  0  0  0  0  0  0
   -1.3647    3.8112   -1.0348 H   0  0  0  0  0  0  0  0  0  0  0  0
   -0.8845    5.8355    0.2847 H   0  0  0  0  0  0  0  0  0  0  0  0
    0.7949    5.7654    2.0918 H   0  0  0  0  0  0  0  0  0  0  0  0
    1.9682    3.6487    2.5304 H   0  0  0  0  0  0  0  0  0  0  0  0
    3.8868    2.0907    2.5395 H   0  0  0  0  0  0  0  0  0  0  0  0
    2.5967    1.6993    3.7873 H   0  0  0  0  0  0  0  0  0  0  0  0
    4.7363    0.3270    4.2421 H   0  0  0  0  0  0  0  0  0  0  0  0
    3.5871   -3.7061    1.4353 H   0  0  0  0  0  0  0  0  0  0  0  0
    3.2659   -5.8106    0.3031 H   0  0  0  0  0  0  0  0  0  0  0  0
    1.6292   -5.9934   -1.5280 H   0  0  0  0  0  0  0  0  0  0  0  0
    0.3048   -4.0175   -2.2172 H   0  0  0  0  0  0  0  0  0  0  0  0
  1  2  1  0
  2  3  1  0
  3  4  1  0
  4  5  1  0
  5  6  1  0
  6  7  1  0
  7  8  1  6
  7  9  1  0
  9 10  1  0
 10 11  1  0
  7 12  1  0
 12 13  1  0
 13 14  2  0
 14 15  1  0
 15 16  2  0
 16 17  1  0
 17 18  2  0
 18 19  1  0
 19 20  2  0
 20 21  1  0
 21 22  1  0
 22 23  1  0
 23 24  2  0
 23 25  1  0
 25 26  2  0
 26 27  1  0
 27 28  2  0
 28 29  1  0
 29 30  2  0
 30 31  1  0
 31 32  2  0
 32 33  1  0
 33 34  1  0
 34 35  2  0
  9  3  1  0
 35 12  1  0
 33  5  1  0
 18 13  1  0
 35 19  1  0
 25 20  1  0
 34 26  1  0
 32 27  1  0
  1 36  1  0
  1 37  1  0
  1 38  1  0
  2 39  1  0
  3 40  1  6
  4 41  1  0
  4 42  1  0
  5 43  1  6
  8 44  1  0
  8 45  1  0
  8 46  1  0
  9 47  1  6
 11 48  1  0
 11 49  1  0
 11 50  1  0
 14 51  1  0
 15 52  1  0
 16 53  1  0
 17 54  1  0
 21 55  1  0
 21 56  1  0
 22 57  1  0
 28 58  1  0
 29 59  1  0
 30 60  1  0
 31 61  1  0
M  END
$$$$
[H]c1c([H])c([H])c2c(c1[H])c1c3c(c4c5c([H])c([H])c([H])c([H])c5n5c4c1n2[C@@]1(C([H])([H])[H])O[C@]5([H])C([H])([H])[C@@]([H])(N([H])C([H])([H])[H])[C@@]1([H])OC([H])([H])[H])C(=O)N([H])C3([H])[H]
     RDKit          3D

 61 68  0  0  0  0  0  0  0  0999 V2000
   -3.3415   -2.0929    0.8927 C   0  0  0  0  0  0  0  0  0  0  0  0
   -2.7520   -0.8244    0.5060 N   0  0  0  0  0  0  0  0  0  0  0  0
   -2.5947   -0.7699   -0.9652 C   0  0  2  0  0  0  0  0  0  0  0  0
   -1.6635   -1.8336   -1.3456 C   0  0  0  0  0  0  0  0  0  0  0  0
   -0.4098   -1.3263   -1.9401 C   0  0  1  0  0  0  0  0  0  0  0  0
   -0.2904   -0.0961   -2.3609 O   0  0  0  0  0  0  0  0  0  0  0  0
   -0.9141    0.9817   -1.7381 C   0  0  1  0  0  0  0  0  0  0  0  0
   -0.8729    2.0231   -2.8643 C   0  0  0  0  0  0  0  0  0  0  0  0
   -2.2914    0.6326   -1.4119 C   0  0  2  0  0  0  0  0  0  0  0  0
   -2.9229    1.4324   -0.4622 O   0  0  0  0  0  0  0  0  0  0  0  0
   -4.0664    2.0564   -0.9455 C   0  0  0  0  0  0  0  0  0  0  0  0
   -0.0747    1.3904   -0.5981 N   0  0  0  0  0  0  0  0  0  0  0  0
    0.0066    2.5943   -0.0347 C   0  0  0  0  0  0  0  0  0  0  0  0
   -0.6403    3.7755   -0.2701 C   0  0  0  0  0  0  0  0  0  0  0  0
   -0.3753    4.9057    0.4704 C   0  0  0  0  0  0  0  0  0  0  0  0
    0.5715    4.8915    1.4994 C   0  0  0  0  0  0  0  0  0  0  0  0
    1.2169    3.7192    1.7374 C   0  0  0  0  0  0  0  0  0  0  0  0
    0.9447    2.6014    0.9941 C   0  0  0  0  0  0  0  0  0  0  0  0
    1.4533    1.3308    1.0530 C   0  0  0  0  0  0  0  0  0  0  0  0
    2.4134    0.7192    1.8621 C   0  0  0  0  0  0  0  0  0  0  0  0
    3.2252    1.2814    2.9656 C   0  0  0  0  0  0  0  0  0  0  0  0
    4.0513    0.2282    3.4563 N   0  0  0  0  0  0  0  0  0  0  0  0
    3.7725   -0.9500    2.6928 C   0  0  0  0  0  0  0  0  0  0  0  0
    4.3602   -2.0093    2.9202 O   0  0  0  0  0  0  0  0  0  0  0  0
    2.7553   -0.6238    1.7110 C   0  0  0  0  0  0  0  0  0  0  0  0
    2.1006   -1.3257    0.7242 C   0  0  0  0  0  0  0  0  0  0  0  0
    2.1422   -2.6347    0.2794 C   0  0  0  0  0  0  0  0  0  0  0  0
    2.8759   -3.7217    0.6638 C   0  0  0  0  0  0  0  0  0  0  0  0
    2.6892   -4.9254    0.0128 C   0  0  0  0  0  0  0  0  0  0  0  0
    1.7808   -5.0386   -1.0084 C   0  0  0  0  0  0  0  0  0  0  0  0
    1.0343   -3.9515   -1.4066 C   0  0  0  0  0  0  0  0  0  0  0  0
    1.2263   -2.7646   -0.7562 C   0  0  0  0  0  0  0  0  0  0  0  0
    0.6469   -1.5975   -0.9447 N   0  0  0  0  0  0  0  0  0  0  0  0
    1.1358   -0.7009   -0.0851 C   0  0  0  0  0  0  0  0  0  0  0  0
    0.8119    0.6350    0.0794 C   0  0  0  0  0  0  0  0  0  0  0  0
   -3.9345   -1.8764    1.8249 H   0  0  0  0  0  0  0  0  0  0  0  0
   -2.5804   -2.8202    1.1896 H   0  0  0  0  0  0  0  0  0  0  0  0
   -4.0376   -2.4413    0.1071 H   0  0  0  0  0  0  0  0  0  0  0  0
   -1.8252   -0.7857    0.9817 H   0  0  0  0  0  0  0  0  0  0  0  0
   -3.6418   -1.0758   -1.3069 H   0  0  0  0  0  0  0  0  0  0  0  0
   -1.4743   -2.5407   -0.4944 H   0  0  0  0  0  0  0  0  0  0  0  0
   -2.1827   -2.5069   -2.1019 H   0  0  0  0  0  0  0  0  0  0  0  0
   -0.1764   -2.0147   -2.8352 H   0  0  0  0  0  0  0  0  0  0  0  0
   -1.8561    2.5173   -2.9808 H   0  0  0  0  0  0  0  0  0  0  0  0
   -0.0367    2.7359   -2.7018 H   0  0  0  0  0  0  0  0  0  0  0  0
   -0.6761    1.5932   -3.8662 H   0  0  0  0  0  0  0  0  0  0  0  0
   -2.9127    0.7625   -2.3525 H   0  0  0  0  0  0  0  0  0  0  0  0
   -4.5472    2.6842   -0.1440 H   0  0  0  0  0  0  0  0  0  0  0  0
   -3.8494    2.7776   -1.7563 H   0  0  0  0  0  0  0  0  0  0  0  0
   -4.7942    1.3294   -1.3803 H   0  0  0  0  0  0  0  0  0  0  0  0
   -1.3647    3.8112   -1.0348 H   0  0  0  0  0  0  0  0  0  0  0  0
   -0.8845    5.8355    0.2847 H   0  0  0  0  0  0  0  0  0  0  0  0
    0.7949    5.7654    2.0918 H   0  0  0  0  0  0  0  0  0  0  0  0
    1.9682    3.6487    2.5304 H   0  0  0  0  0  0  0  0  0  0  0  0
    3.8868    2.0907    2.5395 H   0  0  0  0  0  0  0  0  0  0  0  0
    2.5967    1.6993    3.7873 H   0  0  0  0  0  0  0  0  0  0  0  0
    4.7363    0.3270    4.2421 H   0  0  0  0  0  0  0  0  0  0  0  0
    3.5871   -3.7061    1.4353 H   0  0  0  0  0  0  0  0  0  0  0  0
    3.2659   -5.8106    0.3031 H   0  0  0  0  0  0  0  0  0  0  0  0
    1.6292   -5.9934   -1.5280 H   0  0  0  0  0  0  0  0  0  0  0  0
    0.3048   -4.0175   -2.2172 H   0  0  0  0  0  0  0  0  0  0  0  0
  1  2  1  0
  2  3  1  0
  3  4  1  0
  4  5  1  0
  5  6  1  0
  6  7  1  0
  7  8  1  6
  7  9  1  0
  9 10  1  0
 10 11  1  0
  7 12  1  0
 12 13  1  0
 13 14  2  0
 14 15  1  0
 15 16  2  0
 16 17  1  0
 17 18  2  0
 18 19  1  0
 19 20  2  0
 20 21  1  0
 21 22  1  0
 22 23  1  0
 23 24  2  0
 23 25  1  0
 25 26  2  0
 26 27  1  0
 27 28  2  0
 28 29  1  0
 29 30  2  0
 30 31  1  0
 31 32  2  0
 32 33  1  0
 33 34  1  0
 34 35  2  0
  9  3  1  0
 35 12  1  0
 33  5  1  0
 18 13  1  0
 35 19  1  0
 25 20  1  0
 34 26  1  0
 32 27  1  0
  1 36  1  0
  1 37  1  0
  1 38  1  0
  2 39  1  0
  3 40  1  6
  4 41  1  0
  4 42  1  0
  5 43  1  6
  8 44  1  0
  8 45  1  0
  8 46  1  0
  9 47  1  6
 11 48  1  0
 11 49  1  0
 11 50  1  0
 14 51  1  0
 15 52  1  0
 16 53  1  0
 17 54  1  0
 21 55  1  0
 21 56  1  0
 22 57  1  0
 28 58  1  0
 29 59  1  0
 30 60  1  0
 31 61  1  0
M  END
$$$$
[H]OC([H])([H])/C([H])=C(\[H])c1nc(-c2c([H])c([H])c([Si](C([H])([H])[H])(C([H])([H])[H])C([H])([H])[H])c([H])c2[H])c2c([H])c(-c3c([H])c([H])c(C([H])([H])N4C([H])([H])C([H])([H])C([H])(O[H])C([H])([H])C4([H])[H])c([H])c3[H])n([H])c2n1
     RDKit          3D

 73 77  0  0  0  0  0  0  0  0999 V2000
   -5.2118    1.8847    4.4533 C   0  0  0  0  0  0  0  0  0  0  0  0
   -6.1609    0.8751    3.2259 Si  0  0  0  0  0  4  0  0  0  0  0  0
   -7.7092    1.7937    2.6909 C   0  0  0  0  0  0  0  0  0  0  0  0
   -6.7306   -0.6918    4.0874 C   0  0  0  0  0  0  0  0  0  0  0  0
   -5.1444    0.4773    1.7386 C   0  0  0  0  0  0  0  0  0  0  0  0
   -4.2121   -0.5375    1.7632 C   0  0  0  0  0  0  0  0  0  0  0  0
   -3.4288   -0.8590    0.6493 C   0  0  0  0  0  0  0  0  0  0  0  0
   -3.5723   -0.1546   -0.5250 C   0  0  0  0  0  0  0  0  0  0  0  0
   -4.5073    0.8592   -0.5418 C   0  0  0  0  0  0  0  0  0  0  0  0
   -5.2803    1.1766    0.5571 C   0  0  0  0  0  0  0  0  0  0  0  0
   -2.7922   -0.4198   -1.7369 C   0  0  0  0  0  0  0  0  0  0  0  0
   -3.3935   -0.4974   -2.9502 N   0  0  0  0  0  0  0  0  0  0  0  0
   -2.7687   -0.7307   -4.1000 C   0  0  0  0  0  0  0  0  0  0  0  0
   -3.4295   -0.8088   -5.3878 C   0  0  0  0  0  0  0  0  0  0  0  0
   -4.7276   -0.6451   -5.4865 C   0  0  0  0  0  0  0  0  0  0  0  0
   -5.4802   -0.7104   -6.7715 C   0  0  0  0  0  0  0  0  0  0  0  0
   -6.1153    0.4922   -6.9927 O   0  0  0  0  0  0  0  0  0  0  0  0
   -1.4228   -0.9017   -4.0295 N   0  0  0  0  0  0  0  0  0  0  0  0
   -0.7316   -0.8452   -2.8868 C   0  0  0  0  0  0  0  0  0  0  0  0
    0.5702   -0.9740   -2.5572 N   0  0  0  0  0  0  0  0  0  0  0  0
    0.7327   -0.8214   -1.2325 C   0  0  0  0  0  0  0  0  0  0  0  0
   -0.5145   -0.5859   -0.6951 C   0  0  0  0  0  0  0  0  0  0  0  0
   -1.4227   -0.6005   -1.7186 C   0  0  0  0  0  0  0  0  0  0  0  0
    2.0121   -0.8981   -0.5316 C   0  0  0  0  0  0  0  0  0  0  0  0
    3.1909   -1.1407   -1.2046 C   0  0  0  0  0  0  0  0  0  0  0  0
    4.3983   -1.2095   -0.5133 C   0  0  0  0  0  0  0  0  0  0  0  0
    4.4698   -1.0408    0.8553 C   0  0  0  0  0  0  0  0  0  0  0  0
    5.7420   -1.1098    1.6136 C   0  0  0  0  0  0  0  0  0  0  0  0
    6.3084    0.1729    1.8664 N   0  0  0  0  0  0  0  0  0  0  0  0
    7.5340    0.1443    2.5978 C   0  0  0  0  0  0  0  0  0  0  0  0
    8.7580   -0.1042    1.7638 C   0  0  0  0  0  0  0  0  0  0  0  0
    8.8017    0.7729    0.5334 C   0  0  0  0  0  0  0  0  0  0  0  0
    9.2277    2.0653    0.8593 O   0  0  0  0  0  0  0  0  0  0  0  0
    7.4891    0.7937   -0.1979 C   0  0  0  0  0  0  0  0  0  0  0  0
    6.3449    1.0743    0.7616 C   0  0  0  0  0  0  0  0  0  0  0  0
    3.2859   -0.7971    1.5313 C   0  0  0  0  0  0  0  0  0  0  0  0
    2.1027   -0.7324    0.8334 C   0  0  0  0  0  0  0  0  0  0  0  0
   -4.2560    2.1841    3.9830 H   0  0  0  0  0  0  0  0  0  0  0  0
   -4.9953    1.3043    5.3910 H   0  0  0  0  0  0  0  0  0  0  0  0
   -5.8315    2.7463    4.7551 H   0  0  0  0  0  0  0  0  0  0  0  0
   -8.0986    1.3008    1.7760 H   0  0  0  0  0  0  0  0  0  0  0  0
   -8.4784    1.7121    3.4653 H   0  0  0  0  0  0  0  0  0  0  0  0
   -7.4802    2.8759    2.5181 H   0  0  0  0  0  0  0  0  0  0  0  0
   -7.5291   -0.3877    4.8022 H   0  0  0  0  0  0  0  0  0  0  0  0
   -5.8716   -1.1734    4.5792 H   0  0  0  0  0  0  0  0  0  0  0  0
   -7.1210   -1.4091    3.3166 H   0  0  0  0  0  0  0  0  0  0  0  0
   -4.0995   -1.0962    2.6977 H   0  0  0  0  0  0  0  0  0  0  0  0
   -2.7224   -1.6496    0.7031 H   0  0  0  0  0  0  0  0  0  0  0  0
   -4.6237    1.4217   -1.4757 H   0  0  0  0  0  0  0  0  0  0  0  0
   -6.0158    1.9750    0.5422 H   0  0  0  0  0  0  0  0  0  0  0  0
   -2.8543   -1.0018   -6.2674 H   0  0  0  0  0  0  0  0  0  0  0  0
   -5.2728   -0.4522   -4.5774 H   0  0  0  0  0  0  0  0  0  0  0  0
   -4.8777   -1.0828   -7.5985 H   0  0  0  0  0  0  0  0  0  0  0  0
   -6.2924   -1.4743   -6.5968 H   0  0  0  0  0  0  0  0  0  0  0  0
   -5.5596    1.2688   -6.6716 H   0  0  0  0  0  0  0  0  0  0  0  0
    1.3155   -1.1677   -3.2811 H   0  0  0  0  0  0  0  0  0  0  0  0
   -0.7145   -0.4204    0.3480 H   0  0  0  0  0  0  0  0  0  0  0  0
    3.1331   -1.2736   -2.2833 H   0  0  0  0  0  0  0  0  0  0  0  0
    5.3099   -1.4027   -1.0757 H   0  0  0  0  0  0  0  0  0  0  0  0
    6.4203   -1.8122    1.0804 H   0  0  0  0  0  0  0  0  0  0  0  0
    5.5349   -1.5914    2.6129 H   0  0  0  0  0  0  0  0  0  0  0  0
    7.6505    1.1352    3.0963 H   0  0  0  0  0  0  0  0  0  0  0  0
    7.4912   -0.6037    3.3962 H   0  0  0  0  0  0  0  0  0  0  0  0
    8.8913   -1.1708    1.4818 H   0  0  0  0  0  0  0  0  0  0  0  0
    9.6483    0.1747    2.3840 H   0  0  0  0  0  0  0  0  0  0  0  0
    9.5656    0.3551   -0.1565 H   0  0  0  0  0  0  0  0  0  0  0  0
   10.1926    2.0307    1.0294 H   0  0  0  0  0  0  0  0  0  0  0  0
    7.5059    1.6567   -0.9105 H   0  0  0  0  0  0  0  0  0  0  0  0
    7.3293   -0.1066   -0.7883 H   0  0  0  0  0  0  0  0  0  0  0  0
    5.3957    1.1476    0.2287 H   0  0  0  0  0  0  0  0  0  0  0  0
    6.5503    2.0965    1.1959 H   0  0  0  0  0  0  0  0  0  0  0  0
    3.3530   -0.6668    2.6004 H   0  0  0  0  0  0  0  0  0  0  0  0
    1.1950   -0.5422    1.3775 H   0  0  0  0  0  0  0  0  0  0  0  0
  1  2  1  0
  2  3  1  0
  2  4  1  0
  2  5  1  0
  5  6  2  0
  6  7  1  0
  7  8  2  0
  8  9  1  0
  9 10  2  0
  8 11  1  0
 11 12  2  0
 12 13  1  0
 13 14  1  0
 14 15  2  0
 15 16  1  0
 16 17  1  0
 13 18  2  0
 18 19  1  0
 19 20  1  0
 20 21  1  0
 21 22  2  0
 22 23  1  0
 21 24  1  0
 24 25  2  0
 25 26  1  0
 26 27  2  0
 27 28  1  0
 28 29  1  0
 29 30  1  0
 30 31  1  0
 31 32  1  0
 32 33  1  0
 32 34  1  0
 34 35  1  0
 27 36  1  0
 36 37  2  0
 10  5  1  0
 23 11  1  0
 37 24  1  0
 23 19  2  0
 35 29  1  0
  1 38  1  0
  1 39  1  0
  1 40  1  0
  3 41  1  0
  3 42  1  0
  3 43  1  0
  4 44  1  0
  4 45  1  0
  4 46  1  0
  6 47  1  0
  7 48  1  0
  9 49  1  0
 10 50  1  0
 14 51  1  0
 15 52  1  0
 16 53  1  0
 16 54  1  0
 17 55  1  0
 20 56  1  0
 22 57  1  0
 25 58  1  0
 26 59  1  0
 28 60  1  0
 28 61  1  0
 30 62  1  0
 30 63  1  0
 31 64  1  0
 31 65  1  0
 32 66  1  0
 33 67  1  0
 34 68  1  0
 34 69  1  0
 35 70  1  0
 35 71  1  0
 36 72  1  0
 37 73  1  0
M  END
$$$$
[H]OC([H])([H])[C@@]1(O[H])C([H])([H])[C@@]2([H])O[C@]1(C([H])([H])[H])n1c3c([H])c([H])c([H])c([H])c3c3c4c(c5c6c([H])c([H])c([H])c([H])c6n2c5c31)C(=O)N([H])C4([H])[H]
     RDKit          3D

 54 61  0  0  0  0  0  0  0  0999 V2000
    3.1800    0.8838    1.3878 C   0  0  0  0  0  0  0  0  0  0  0  0
    2.1176    0.2237    0.5774 C   0  0  2  0  0  0  0  0  0  0  0  0
    1.6968   -0.7870    1.4854 O   0  0  0  0  0  0  0  0  0  0  0  0
    1.2511   -1.8639    0.7986 C   0  0  2  0  0  0  0  0  0  0  0  0
    2.0328   -1.9517   -0.4419 C   0  0  0  0  0  0  0  0  0  0  0  0
    2.6347   -0.5714   -0.5849 C   0  0  1  0  0  0  0  0  0  0  0  0
    2.2138   -0.0799   -1.8115 O   0  0  0  0  0  0  0  0  0  0  0  0
    4.1191   -0.7109   -0.6110 C   0  0  0  0  0  0  0  0  0  0  0  0
    4.4589   -1.5975   -1.6334 O   0  0  0  0  0  0  0  0  0  0  0  0
   -0.2014   -1.7853    0.5955 N   0  0  0  0  0  0  0  0  0  0  0  0
   -1.1044   -2.7499    0.6347 C   0  0  0  0  0  0  0  0  0  0  0  0
   -0.9179   -4.0868    0.8734 C   0  0  0  0  0  0  0  0  0  0  0  0
   -2.0299   -4.9199    0.8648 C   0  0  0  0  0  0  0  0  0  0  0  0
   -3.2823   -4.4161    0.6235 C   0  0  0  0  0  0  0  0  0  0  0  0
   -3.4758   -3.0511    0.3794 C   0  0  0  0  0  0  0  0  0  0  0  0
   -2.3768   -2.2421    0.3902 C   0  0  0  0  0  0  0  0  0  0  0  0
   -2.2053   -0.8905    0.1945 C   0  0  0  0  0  0  0  0  0  0  0  0
   -3.0670    0.1511   -0.0975 C   0  0  0  0  0  0  0  0  0  0  0  0
   -4.5001    0.2660   -0.2996 C   0  0  0  0  0  0  0  0  0  0  0  0
   -5.3884   -0.5871   -0.2658 O   0  0  0  0  0  0  0  0  0  0  0  0
   -4.7851    1.6416   -0.5724 N   0  0  0  0  0  0  0  0  0  0  0  0
   -3.5735    2.4248   -0.5610 C   0  0  0  0  0  0  0  0  0  0  0  0
   -2.5314    1.4168   -0.2472 C   0  0  0  0  0  0  0  0  0  0  0  0
   -1.1701    1.6669   -0.1133 C   0  0  0  0  0  0  0  0  0  0  0  0
   -0.3770    2.7657   -0.2198 C   0  0  0  0  0  0  0  0  0  0  0  0
   -0.7006    4.0705   -0.5126 C   0  0  0  0  0  0  0  0  0  0  0  0
    0.3203    5.0230   -0.5829 C   0  0  0  0  0  0  0  0  0  0  0  0
    1.6233    4.6180   -0.3553 C   0  0  0  0  0  0  0  0  0  0  0  0
    1.9232    3.2989   -0.0625 C   0  0  0  0  0  0  0  0  0  0  0  0
    0.9354    2.3466    0.0129 C   0  0  0  0  0  0  0  0  0  0  0  0
    0.9590    1.0103    0.2643 N   0  0  0  0  0  0  0  0  0  0  0  0
   -0.3578    0.6223    0.1746 C   0  0  0  0  0  0  0  0  0  0  0  0
   -0.8544   -0.6533    0.3299 C   0  0  0  0  0  0  0  0  0  0  0  0
    4.0624    1.2462    0.8471 H   0  0  0  0  0  0  0  0  0  0  0  0
    3.5596    0.1949    2.1815 H   0  0  0  0  0  0  0  0  0  0  0  0
    2.7312    1.7230    1.9466 H   0  0  0  0  0  0  0  0  0  0  0  0
    1.4219   -2.7643    1.4120 H   0  0  0  0  0  0  0  0  0  0  0  0
    1.4720   -2.2700   -1.3403 H   0  0  0  0  0  0  0  0  0  0  0  0
    2.8377   -2.7359   -0.3258 H   0  0  0  0  0  0  0  0  0  0  0  0
    2.8799   -0.3390   -2.4928 H   0  0  0  0  0  0  0  0  0  0  0  0
    4.5238   -1.1579    0.3296 H   0  0  0  0  0  0  0  0  0  0  0  0
    4.6358    0.2581   -0.8438 H   0  0  0  0  0  0  0  0  0  0  0  0
    4.7979   -2.4633   -1.2908 H   0  0  0  0  0  0  0  0  0  0  0  0
    0.0592   -4.4684    1.0598 H   0  0  0  0  0  0  0  0  0  0  0  0
   -1.8569   -5.9719    1.0560 H   0  0  0  0  0  0  0  0  0  0  0  0
   -4.1224   -5.0759    0.6219 H   0  0  0  0  0  0  0  0  0  0  0  0
   -4.4721   -2.7398    0.2018 H   0  0  0  0  0  0  0  0  0  0  0  0
   -5.7336    2.0654   -0.7610 H   0  0  0  0  0  0  0  0  0  0  0  0
   -3.6366    3.2333    0.1993 H   0  0  0  0  0  0  0  0  0  0  0  0
   -3.3846    2.8954   -1.5673 H   0  0  0  0  0  0  0  0  0  0  0  0
   -1.7294    4.3700   -0.6881 H   0  0  0  0  0  0  0  0  0  0  0  0
    0.0587    6.0490   -0.8135 H   0  0  0  0  0  0  0  0  0  0  0  0
    2.3774    5.3965   -0.4223 H   0  0  0  0  0  0  0  0  0  0  0  0
    2.9510    3.0689    0.0761 H   0  0  0  0  0  0  0  0  0  0  0  0
  2  1  1  1
  2  3  1  0
  3  4  1  0
  4  5  1  0
  5  6  1  0
  6  7  1  6
  6  8  1  0
  8  9  1  0
  4 10  1  0
 10 11  1  0
 11 12  2  0
 12 13  1  0
 13 14  2  0
 14 15  1  0
 15 16  2  0
 16 17  1  0
 17 18  2  0
 18 19  1  0
 19 20  2  0
 19 21  1  0
 21 22  1  0
 22 23  1  0
 23 24  2  0
 24 25  1  0
 25 26  2  0
 26 27  1  0
 27 28  2  0
 28 29  1  0
 29 30  2  0
 30 31  1  0
 31 32  1  0
 32 33  2  0
  6  2  1  0
 33 10  1  0
 31  2  1  0
 16 11  1  0
 33 17  1  0
 23 18  1  0
 32 24  1  0
 30 25  1  0
  1 34  1  0
  1 35  1  0
  1 36  1  0
  4 37  1  1
  5 38  1  0
  5 39  1  0
  7 40  1  0
  8 41  1  0
  8 42  1  0
  9 43  1  0
 12 44  1  0
 13 45  1  0
 14 46  1  0
 15 47  1  0
 21 48  1  0
 22 49  1  0
 22 50  1  0
 26 51  1  0
 27 52  1  0
 28 53  1  0
 29 54  1  0
M  END
$$$$
[H]c1nc(Oc2c([H])c([H])c(N([H])C(=O)N([H])c3c([H])c([H])c(C([H])([H])N4C([H])([H])C([H])([H])N(C([H])([H])C([H])([H])[H])C([H])([H])C4([H])[H])c(C(F)(F)F)c3[H])c([H])c2[H])c([H])c(N([H])C([H])([H])[H])n1
     RDKit          3D

 68 71  0  0  0  0  0  0  0  0999 V2000
  -10.2990   -0.3201   -0.2443 C   0  0  0  0  0  0  0  0  0  0  0  0
   -9.0487    0.5002   -0.4280 C   0  0  0  0  0  0  0  0  0  0  0  0
   -8.1793   -0.0359   -1.4572 N   0  0  0  0  0  0  0  0  0  0  0  0
   -7.0305    0.8062   -1.5517 C   0  0  0  0  0  0  0  0  0  0  0  0
   -5.7154    0.1130   -1.2911 C   0  0  0  0  0  0  0  0  0  0  0  0
   -5.7379   -0.8228   -0.2229 N   0  0  0  0  0  0  0  0  0  0  0  0
   -5.1553   -0.4373    1.0060 C   0  0  0  0  0  0  0  0  0  0  0  0
   -3.7153   -0.2169    1.0542 C   0  0  0  0  0  0  0  0  0  0  0  0
   -2.9459   -0.4458   -0.0457 C   0  0  0  0  0  0  0  0  0  0  0  0
   -1.5554   -0.2549    0.0222 C   0  0  0  0  0  0  0  0  0  0  0  0
   -0.9188    0.1543    1.1522 C   0  0  0  0  0  0  0  0  0  0  0  0
    0.4451    0.3547    1.3623 N   0  0  0  0  0  0  0  0  0  0  0  0
    1.4499   -0.2261    0.5465 C   0  0  0  0  0  0  0  0  0  0  0  0
    1.1958   -0.9699   -0.4220 O   0  0  0  0  0  0  0  0  0  0  0  0
    2.8063    0.0526    0.8476 N   0  0  0  0  0  0  0  0  0  0  0  0
    3.8841   -0.4730    0.1219 C   0  0  0  0  0  0  0  0  0  0  0  0
    5.0696    0.2695    0.1595 C   0  0  0  0  0  0  0  0  0  0  0  0
    6.1724   -0.1959   -0.5017 C   0  0  0  0  0  0  0  0  0  0  0  0
    6.1984   -1.3743   -1.2203 C   0  0  0  0  0  0  0  0  0  0  0  0
    7.3559   -1.8175   -1.8874 O   0  0  0  0  0  0  0  0  0  0  0  0
    8.4788   -0.9936   -1.7796 C   0  0  0  0  0  0  0  0  0  0  0  0
    9.3306   -1.0781   -0.6992 C   0  0  0  0  0  0  0  0  0  0  0  0
   10.4383   -0.2312   -0.6411 C   0  0  0  0  0  0  0  0  0  0  0  0
   11.3426   -0.2777    0.4449 N   0  0  0  0  0  0  0  0  0  0  0  0
   12.4721    0.6190    0.4560 C   0  0  0  0  0  0  0  0  0  0  0  0
   10.6148    0.6290   -1.6528 N   0  0  0  0  0  0  0  0  0  0  0  0
    9.7904    0.7181   -2.7086 C   0  0  0  0  0  0  0  0  0  0  0  0
    8.7293   -0.1014   -2.7527 N   0  0  0  0  0  0  0  0  0  0  0  0
    5.0337   -2.0940   -1.2508 C   0  0  0  0  0  0  0  0  0  0  0  0
    3.8935   -1.6380   -0.5818 C   0  0  0  0  0  0  0  0  0  0  0  0
   -1.7503    0.3770    2.2572 C   0  0  0  0  0  0  0  0  0  0  0  0
   -3.1090    0.2069    2.2445 C   0  0  0  0  0  0  0  0  0  0  0  0
   -3.9076    0.4692    3.4596 C   0  0  0  0  0  0  0  0  0  0  0  0
   -3.0267    0.8724    4.4765 F   0  0  0  0  0  0  0  0  0  0  0  0
   -4.5531   -0.6222    3.9660 F   0  0  0  0  0  0  0  0  0  0  0  0
   -4.7451    1.5847    3.3219 F   0  0  0  0  0  0  0  0  0  0  0  0
   -6.9874   -1.4884    0.0062 C   0  0  0  0  0  0  0  0  0  0  0  0
   -7.8513   -1.4181   -1.2341 C   0  0  0  0  0  0  0  0  0  0  0  0
  -10.0056   -1.2236    0.3376 H   0  0  0  0  0  0  0  0  0  0  0  0
  -11.0156    0.2828    0.3494 H   0  0  0  0  0  0  0  0  0  0  0  0
  -10.7451   -0.5533   -1.2099 H   0  0  0  0  0  0  0  0  0  0  0  0
   -9.3902    1.5064   -0.7967 H   0  0  0  0  0  0  0  0  0  0  0  0
   -8.5282    0.6942    0.5188 H   0  0  0  0  0  0  0  0  0  0  0  0
   -6.9427    1.2787   -2.5729 H   0  0  0  0  0  0  0  0  0  0  0  0
   -7.0852    1.6803   -0.8419 H   0  0  0  0  0  0  0  0  0  0  0  0
   -5.3787   -0.3639   -2.2424 H   0  0  0  0  0  0  0  0  0  0  0  0
   -4.9782    0.9378   -1.0987 H   0  0  0  0  0  0  0  0  0  0  0  0
   -5.3596   -1.2873    1.7313 H   0  0  0  0  0  0  0  0  0  0  0  0
   -5.7610    0.3966    1.4141 H   0  0  0  0  0  0  0  0  0  0  0  0
   -3.3300   -0.7898   -1.0118 H   0  0  0  0  0  0  0  0  0  0  0  0
   -0.9627   -0.4277   -0.8741 H   0  0  0  0  0  0  0  0  0  0  0  0
    0.7597    0.9698    2.1611 H   0  0  0  0  0  0  0  0  0  0  0  0
    3.0013    0.6928    1.6707 H   0  0  0  0  0  0  0  0  0  0  0  0
    5.0877    1.2125    0.7209 H   0  0  0  0  0  0  0  0  0  0  0  0
    7.0847    0.3965   -0.4601 H   0  0  0  0  0  0  0  0  0  0  0  0
    9.1416   -1.7902    0.0899 H   0  0  0  0  0  0  0  0  0  0  0  0
   11.2010   -0.9471    1.2284 H   0  0  0  0  0  0  0  0  0  0  0  0
   12.6067    1.1140   -0.5277 H   0  0  0  0  0  0  0  0  0  0  0  0
   13.4237    0.0623    0.6491 H   0  0  0  0  0  0  0  0  0  0  0  0
   12.3043    1.3858    1.2464 H   0  0  0  0  0  0  0  0  0  0  0  0
    9.9776    1.4417   -3.5159 H   0  0  0  0  0  0  0  0  0  0  0  0
    5.0003   -3.0327   -1.8043 H   0  0  0  0  0  0  0  0  0  0  0  0
    3.0130   -2.2945   -0.6480 H   0  0  0  0  0  0  0  0  0  0  0  0
   -1.3081    0.7006    3.1773 H   0  0  0  0  0  0  0  0  0  0  0  0
   -7.5417   -1.0573    0.8567 H   0  0  0  0  0  0  0  0  0  0  0  0
   -6.7530   -2.5420    0.2777 H   0  0  0  0  0  0  0  0  0  0  0  0
   -7.2335   -1.7544   -2.0856 H   0  0  0  0  0  0  0  0  0  0  0  0
   -8.7522   -2.0077   -1.0717 H   0  0  0  0  0  0  0  0  0  0  0  0
  1  2  1  0
  2  3  1  0
  3  4  1  0
  4  5  1  0
  5  6  1  0
  6  7  1  0
  7  8  1  0
  8  9  2  0
  9 10  1  0
 10 11  2  0
 11 12  1  0
 12 13  1  0
 13 14  2  0
 13 15  1  0
 15 16  1  0
 16 17  2  0
 17 18  1  0
 18 19  2  0
 19 20  1  0
 20 21  1  0
 21 22  2  0
 22 23  1  0
 23 24  1  0
 24 25  1  0
 23 26  2  0
 26 27  1  0
 27 28  2  0
 19 29  1  0
 29 30  2  0
 11 31  1  0
 31 32  2  0
 32 33  1  0
 33 34  1  0
 33 35  1  0
 33 36  1  0
  6 37  1  0
 37 38  1  0
 38  3  1  0
 32  8  1  0
 30 16  1  0
 28 21  1  0
  1 39  1  0
  1 40  1  0
  1 41  1  0
  2 42  1  0
  2 43  1  0
  4 44  1  0
  4 45  1  0
  5 46  1  0
  5 47  1  0
  7 48  1  0
  7 49  1  0
  9 50  1  0
 10 51  1  0
 12 52  1  0
 15 53  1  0
 17 54  1  0
 18 55  1  0
 22 56  1  0
 24 57  1  0
 25 58  1  0
 25 59  1  0
 25 60  1  0
 27 61  1  0
 29 62  1  0
 30 63  1  0
 31 64  1  0
 37 65  1  0
 37 66  1  0
 38 67  1  0
 38 68  1  0
M  END
$$$$
[H]c1c([H])c([H])c2c(c1[H])c1c3c(c4c5c([H])c([H])c([H])c([H])c5n5c4c1n2[C@@]1(C([H])([H])[H])O[C@]5([H])C([H])([H])[C@@]([H])(N([H])C([H])([H])[H])[C@@]1([H])OC([H])([H])[H])C(=O)N([H])C3([H])[H]
     RDKit          3D

 61 68  0  0  0  0  0  0  0  0999 V2000
   -3.3415   -2.0929    0.8927 C   0  0  0  0  0  0  0  0  0  0  0  0
   -2.7520   -0.8244    0.5060 N   0  0  0  0  0  0  0  0  0  0  0  0
   -2.5947   -0.7699   -0.9652 C   0  0  2  0  0  0  0  0  0  0  0  0
   -1.6635   -1.8336   -1.3456 C   0  0  0  0  0  0  0  0  0  0  0  0
   -0.4098   -1.3263   -1.9401 C   0  0  1  0  0  0  0  0  0  0  0  0
   -0.2904   -0.0961   -2.3609 O   0  0  0  0  0  0  0  0  0  0  0  0
   -0.9141    0.9817   -1.7381 C   0  0  1  0  0  0  0  0  0  0  0  0
   -0.8729    2.0231   -2.8643 C   0  0  0  0  0  0  0  0  0  0  0  0
   -2.2914    0.6326   -1.4119 C   0  0  2  0  0  0  0  0  0  0  0  0
   -2.9229    1.4324   -0.4622 O   0  0  0  0  0  0  0  0  0  0  0  0
   -4.0664    2.0564   -0.9455 C   0  0  0  0  0  0  0  0  0  0  0  0
   -0.0747    1.3904   -0.5981 N   0  0  0  0  0  0  0  0  0  0  0  0
    0.0066    2.5943   -0.0347 C   0  0  0  0  0  0  0  0  0  0  0  0
   -0.6403    3.7755   -0.2701 C   0  0  0  0  0  0  0  0  0  0  0  0
   -0.3753    4.9057    0.4704 C   0  0  0  0  0  0  0  0  0  0  0  0
    0.5715    4.8915    1.4994 C   0  0  0  0  0  0  0  0  0  0  0  0
    1.2169    3.7192    1.7374 C   0  0  0  0  0  0  0  0  0  0  0  0
    0.9447    2.6014    0.9941 C   0  0  0  0  0  0  0  0  0  0  0  0
    1.4533    1.3308    1.0530 C   0  0  0  0  0  0  0  0  0  0  0  0
    2.4134    0.7192    1.8621 C   0  0  0  0  0  0  0  0  0  0  0  0
    3.2252    1.2814    2.9656 C   0  0  0  0  0  0  0  0  0  0  0  0
    4.0513    0.2282    3.4563 N   0  0  0  0  0  0  0  0  0  0  0  0
    3.7725   -0.9500    2.6928 C   0  0  0  0  0  0  0  0  0  0  0  0
    4.3602   -2.0093    2.9202 O   0  0  0  0  0  0  0  0  0  0  0  0
    2.7553   -0.6238    1.7110 C   0  0  0  0  0  0  0  0  0  0  0  0
    2.1006   -1.3257    0.7242 C   0  0  0  0  0  0  0  0  0  0  0  0
    2.1422   -2.6347    0.2794 C   0  0  0  0  0  0  0  0  0  0  0  0
    2.8759   -3.7217    0.6638 C   0  0  0  0  0  0  0  0  0  0  0  0
    2.6892   -4.9254    0.0128 C   0  0  0  0  0  0  0  0  0  0  0  0
    1.7808   -5.0386   -1.0084 C   0  0  0  0  0  0  0  0  0  0  0  0
    1.0343   -3.9515   -1.4066 C   0  0  0  0  0  0  0  0  0  0  0  0
    1.2263   -2.7646   -0.7562 C   0  0  0  0  0  0  0  0  0  0  0  0
    0.6469   -1.5975   -0.9447 N   0  0  0  0  0  0  0  0  0  0  0  0
    1.1358   -0.7009   -0.0851 C   0  0  0  0  0  0  0  0  0  0  0  0
    0.8119    0.6350    0.0794 C   0  0  0  0  0  0  0  0  0  0  0  0
   -3.9345   -1.8764    1.8249 H   0  0  0  0  0  0  0  0  0  0  0  0
   -2.5804   -2.8202    1.1896 H   0  0  0  0  0  0  0  0  0  0  0  0
   -4.0376   -2.4413    0.1071 H   0  0  0  0  0  0  0  0  0  0  0  0
   -1.8252   -0.7857    0.9817 H   0  0  0  0  0  0  0  0  0  0  0  0
   -3.6418   -1.0758   -1.3069 H   0  0  0  0  0  0  0  0  0  0  0  0
   -1.4743   -2.5407   -0.4944 H   0  0  0  0  0  0  0  0  0  0  0  0
   -2.1827   -2.5069   -2.1019 H   0  0  0  0  0  0  0  0  0  0  0  0
   -0.1764   -2.0147   -2.8352 H   0  0  0  0  0  0  0  0  0  0  0  0
   -1.8561    2.5173   -2.9808 H   0  0  0  0  0  0  0  0  0  0  0  0
   -0.0367    2.7359   -2.7018 H   0  0  0  0  0  0  0  0  0  0  0  0
   -0.6761    1.5932   -3.8662 H   0  0  0  0  0  0  0  0  0  0  0  0
   -2.9127    0.7625   -2.3525 H   0  0  0  0  0  0  0  0  0  0  0  0
   -4.5472    2.6842   -0.1440 H   0  0  0  0  0  0  0  0  0  0  0  0
   -3.8494    2.7776   -1.7563 H   0  0  0  0  0  0  0  0  0  0  0  0
   -4.7942    1.3294   -1.3803 H   0  0  0  0  0  0  0  0  0  0  0  0
   -1.3647    3.8112   -1.0348 H   0  0  0  0  0  0  0  0  0  0  0  0
   -0.8845    5.8355    0.2847 H   0  0  0  0  0  0  0  0  0  0  0  0
    0.7949    5.7654    2.0918 H   0  0  0  0  0  0  0  0  0  0  0  0
    1.9682    3.6487    2.5304 H   0  0  0  0  0  0  0  0  0  0  0  0
    3.8868    2.0907    2.5395 H   0  0  0  0  0  0  0  0  0  0  0  0
    2.5967    1.6993    3.7873 H   0  0  0  0  0  0  0  0  0  0  0  0
    4.7363    0.3270    4.2421 H   0  0  0  0  0  0  0  0  0  0  0  0
    3.5871   -3.7061    1.4353 H   0  0  0  0  0  0  0  0  0  0  0  0
    3.2659   -5.8106    0.3031 H   0  0  0  0  0  0  0  0  0  0  0  0
    1.6292   -5.9934   -1.5280 H   0  0  0  0  0  0  0  0  0  0  0  0
    0.3048   -4.0175   -2.2172 H   0  0  0  0  0  0  0  0  0  0  0  0
  1  2  1  0
  2  3  1  0
  3  4  1  0
  4  5  1  0
  5  6  1  0
  6  7  1  0
  7  8  1  6
  7  9  1  0
  9 10  1  0
 10 11  1  0
  7 12  1  0
 12 13  1  0
 13 14  2  0
 14 15  1  0
 15 16  2  0
 16 17  1  0
 17 18  2  0
 18 19  1  0
 19 20  2  0
 20 21  1  0
 21 22  1  0
 22 23  1  0
 23 24  2  0
 23 25  1  0
 25 26  2  0
 26 27  1  0
 27 28  2  0
 28 29  1  0
 29 30  2  0
 30 31  1  0
 31 32  2  0
 32 33  1  0
 33 34  1  0
 34 35  2  0
  9  3  1  0
 35 12  1  0
 33  5  1  0
 18 13  1  0
 35 19  1  0
 25 20  1  0
 34 26  1  0
 32 27  1  0
  1 36  1  0
  1 37  1  0
  1 38  1  0
  2 39  1  0
  3 40  1  6
  4 41  1  0
  4 42  1  0
  5 43  1  6
  8 44  1  0
  8 45  1  0
  8 46  1  0
  9 47  1  6
 11 48  1  0
 11 49  1  0
 11 50  1  0
 14 51  1  0
 15 52  1  0
 16 53  1  0
 17 54  1  0
 21 55  1  0
 21 56  1  0
 22 57  1  0
 28 58  1  0
 29 59  1  0
 30 60  1  0
 31 61  1  0
M  END
$$$$
[H]c1nc(N([H])c2c([H])c([H])c(N3C([H])([H])C([H])([H])C([H])(N4C([H])([H])C([H])([H])N(C([H])([H])[H])C([H])([H])C4([H])[H])C([H])([H])C3([H])[H])c([H])c2OC([H])([H])[H])nc(N([H])c2c([H])c([H])c([H])c([H])c2S(=O)(=O)C([H])(C([H])([H])[H])C([H])([H])[H])c1Cl
     RDKit          3D

 82 86  0  0  0  0  0  0  0  0999 V2000
   -0.1870    3.7228   -1.2569 C   0  0  0  0  0  0  0  0  0  0  0  0
    0.4390    2.5297   -0.8437 O   0  0  0  0  0  0  0  0  0  0  0  0
   -0.3483    1.4775   -0.4024 C   0  0  0  0  0  0  0  0  0  0  0  0
   -1.7220    1.6350   -0.3827 C   0  0  0  0  0  0  0  0  0  0  0  0
   -2.5624    0.6308    0.0436 C   0  0  0  0  0  0  0  0  0  0  0  0
   -1.9599   -0.5357    0.4478 C   0  0  0  0  0  0  0  0  0  0  0  0
   -0.5748   -0.7280    0.4408 C   0  0  0  0  0  0  0  0  0  0  0  0
    0.2576    0.2764    0.0150 C   0  0  0  0  0  0  0  0  0  0  0  0
    1.6540    0.2011   -0.0367 N   0  0  0  0  0  0  0  0  0  0  0  0
    2.4984   -0.8842    0.3177 C   0  0  0  0  0  0  0  0  0  0  0  0
    2.1033   -2.0726    0.7812 N   0  0  0  0  0  0  0  0  0  0  0  0
    2.9559   -3.0558    1.0957 C   0  0  0  0  0  0  0  0  0  0  0  0
    4.3092   -2.8632    0.9451 C   0  0  0  0  0  0  0  0  0  0  0  0
    5.4455   -4.1449    1.3534 Cl  0  0  0  0  0  0  0  0  0  0  0  0
    4.7527   -1.6166    0.4572 C   0  0  0  0  0  0  0  0  0  0  0  0
    6.1380   -1.4466    0.3110 N   0  0  0  0  0  0  0  0  0  0  0  0
    6.9009   -0.3576   -0.1368 C   0  0  0  0  0  0  0  0  0  0  0  0
    6.2766    0.8084   -0.5266 C   0  0  0  0  0  0  0  0  0  0  0  0
    7.0240    1.9039   -0.9778 C   0  0  0  0  0  0  0  0  0  0  0  0
    8.3820    1.8034   -1.0274 C   0  0  0  0  0  0  0  0  0  0  0  0
    9.0024    0.6381   -0.6374 C   0  0  0  0  0  0  0  0  0  0  0  0
    8.2961   -0.4485   -0.1920 C   0  0  0  0  0  0  0  0  0  0  0  0
    9.0842   -1.8926    0.2913 S   0  0  0  0  0  0  0  0  0  0  0  0
    8.6633   -3.0312   -0.6035 O   0  0  0  0  0  0  0  0  0  0  0  0
    8.8235   -2.3045    1.7132 O   0  0  0  0  0  0  0  0  0  0  0  0
   10.8572   -1.7881    0.1370 C   0  0  0  0  0  0  0  0  0  0  0  0
   11.2609   -1.6791   -1.2975 C   0  0  0  0  0  0  0  0  0  0  0  0
   11.4760   -0.7869    1.0544 C   0  0  0  0  0  0  0  0  0  0  0  0
    3.8248   -0.7008    0.1721 N   0  0  0  0  0  0  0  0  0  0  0  0
   -3.9818    0.8060    0.0512 N   0  0  0  0  0  0  0  0  0  0  0  0
   -4.5241    1.9609   -0.5784 C   0  0  0  0  0  0  0  0  0  0  0  0
   -6.0011    1.9283   -0.8544 C   0  0  0  0  0  0  0  0  0  0  0  0
   -6.8245    1.3726    0.2584 C   0  0  0  0  0  0  0  0  0  0  0  0
   -6.0036    0.6088    1.2781 C   0  0  0  0  0  0  0  0  0  0  0  0
   -4.8657   -0.1463    0.6796 C   0  0  0  0  0  0  0  0  0  0  0  0
   -7.9560    0.6086   -0.0875 N   0  0  0  0  0  0  0  0  0  0  0  0
   -7.7905   -0.5856   -0.8057 C   0  0  0  0  0  0  0  0  0  0  0  0
   -9.1362   -1.0235   -1.3907 C   0  0  0  0  0  0  0  0  0  0  0  0
  -10.1390   -0.8718   -0.3544 N   0  0  0  0  0  0  0  0  0  0  0  0
  -10.0361   -1.8235    0.7053 C   0  0  0  0  0  0  0  0  0  0  0  0
  -10.3349    0.4834    0.0484 C   0  0  0  0  0  0  0  0  0  0  0  0
   -9.1475    1.3193   -0.4248 C   0  0  0  0  0  0  0  0  0  0  0  0
    0.5375    4.4499   -1.6799 H   0  0  0  0  0  0  0  0  0  0  0  0
   -0.9481    3.5330   -2.0530 H   0  0  0  0  0  0  0  0  0  0  0  0
   -0.6880    4.2523   -0.4156 H   0  0  0  0  0  0  0  0  0  0  0  0
   -2.1476    2.5764   -0.7105 H   0  0  0  0  0  0  0  0  0  0  0  0
   -2.6020   -1.3517    0.7883 H   0  0  0  0  0  0  0  0  0  0  0  0
   -0.2121   -1.6859    0.7807 H   0  0  0  0  0  0  0  0  0  0  0  0
    2.1500    1.0935   -0.3956 H   0  0  0  0  0  0  0  0  0  0  0  0
    2.6174   -4.0222    1.4737 H   0  0  0  0  0  0  0  0  0  0  0  0
    6.7215   -2.3022    0.5911 H   0  0  0  0  0  0  0  0  0  0  0  0
    5.2202    0.9989   -0.5296 H   0  0  0  0  0  0  0  0  0  0  0  0
    6.5603    2.8305   -1.2896 H   0  0  0  0  0  0  0  0  0  0  0  0
    9.0220    2.6252   -1.3712 H   0  0  0  0  0  0  0  0  0  0  0  0
   10.0936    0.6299   -0.7052 H   0  0  0  0  0  0  0  0  0  0  0  0
   11.2252   -2.8031    0.4806 H   0  0  0  0  0  0  0  0  0  0  0  0
   11.9033   -0.7785   -1.4926 H   0  0  0  0  0  0  0  0  0  0  0  0
   10.3307   -1.5514   -1.9199 H   0  0  0  0  0  0  0  0  0  0  0  0
   11.7765   -2.5763   -1.6995 H   0  0  0  0  0  0  0  0  0  0  0  0
   12.0225   -1.2557    1.8769 H   0  0  0  0  0  0  0  0  0  0  0  0
   12.1781   -0.1622    0.4319 H   0  0  0  0  0  0  0  0  0  0  0  0
   10.7434   -0.0899    1.5079 H   0  0  0  0  0  0  0  0  0  0  0  0
   -4.2803    2.8410    0.0525 H   0  0  0  0  0  0  0  0  0  0  0  0
   -3.9354    2.1199   -1.5269 H   0  0  0  0  0  0  0  0  0  0  0  0
   -6.3084    2.9635   -1.1164 H   0  0  0  0  0  0  0  0  0  0  0  0
   -6.1470    1.3325   -1.7818 H   0  0  0  0  0  0  0  0  0  0  0  0
   -7.2139    2.2642    0.8421 H   0  0  0  0  0  0  0  0  0  0  0  0
   -6.6586   -0.1075    1.8153 H   0  0  0  0  0  0  0  0  0  0  0  0
   -5.5929    1.2907    2.0626 H   0  0  0  0  0  0  0  0  0  0  0  0
   -5.1731   -0.8869   -0.0780 H   0  0  0  0  0  0  0  0  0  0  0  0
   -4.3121   -0.6097    1.5260 H   0  0  0  0  0  0  0  0  0  0  0  0
   -7.5080   -1.4012   -0.0997 H   0  0  0  0  0  0  0  0  0  0  0  0
   -7.0082   -0.5774   -1.5870 H   0  0  0  0  0  0  0  0  0  0  0  0
   -9.4445   -0.3742   -2.2343 H   0  0  0  0  0  0  0  0  0  0  0  0
   -9.0261   -2.0597   -1.7202 H   0  0  0  0  0  0  0  0  0  0  0  0
   -9.1822   -2.5377    0.5321 H   0  0  0  0  0  0  0  0  0  0  0  0
   -9.9814   -1.3564    1.7041 H   0  0  0  0  0  0  0  0  0  0  0  0
  -10.9456   -2.4645    0.6802 H   0  0  0  0  0  0  0  0  0  0  0  0
  -11.2261    0.8855   -0.4545 H   0  0  0  0  0  0  0  0  0  0  0  0
  -10.4517    0.5517    1.1515 H   0  0  0  0  0  0  0  0  0  0  0  0
   -9.2778    1.5186   -1.4917 H   0  0  0  0  0  0  0  0  0  0  0  0
   -9.1611    2.2698    0.1783 H   0  0  0  0  0  0  0  0  0  0  0  0
  1  2  1  0
  2  3  1  0
  3  4  2  0
  4  5  1  0
  5  6  2  0
  6  7  1  0
  7  8  2  0
  8  9  1  0
  9 10  1  0
 10 11  2  0
 11 12  1  0
 12 13  2  0
 13 14  1  0
 13 15  1  0
 15 16  1  0
 16 17  1  0
 17 18  2  0
 18 19  1  0
 19 20  2  0
 20 21  1  0
 21 22  2  0
 22 23  1  0
 23 24  2  0
 23 25  2  0
 23 26  1  0
 26 27  1  0
 26 28  1  0
 15 29  2  0
  5 30  1  0
 30 31  1  0
 31 32  1  0
 32 33  1  0
 33 34  1  0
 34 35  1  0
 33 36  1  0
 36 37  1  0
 37 38  1  0
 38 39  1  0
 39 40  1  0
 39 41  1  0
 41 42  1  0
  8  3  1  0
 29 10  1  0
 35 30  1  0
 42 36  1  0
 22 17  1  0
  1 43  1  0
  1 44  1  0
  1 45  1  0
  4 46  1  0
  6 47  1  0
  7 48  1  0
  9 49  1  0
 12 50  1  0
 16 51  1  0
 18 52  1  0
 19 53  1  0
 20 54  1  0
 21 55  1  0
 26 56  1  0
 27 57  1  0
 27 58  1  0
 27 59  1  0
 28 60  1  0
 28 61  1  0
 28 62  1  0
 31 63  1  0
 31 64  1  0
 32 65  1  0
 32 66  1  0
 33 67  1  0
 34 68  1  0
 34 69  1  0
 35 70  1  0
 35 71  1  0
 37 72  1  0
 37 73  1  0
 38 74  1  0
 38 75  1  0
 40 76  1  0
 40 77  1  0
 40 78  1  0
 41 79  1  0
 41 80  1  0
 42 81  1  0
 42 82  1  0
M  END
$$$$
[H]c1nc(N([H])[H])c2c(-c3c([H])c([H])c(C(=O)N([H])c4c([H])c([H])c([H])c(F)c4F)c([H])c3[H])nc([C@]3([H])OC([H])([H])C([H])([H])C([H])([H])N(C(=O)N([H])C([H])([H])C([H])([H])[H])C3([H])[H])n2c1[H]
     RDKit          3D

 66 70  0  0  0  0  0  0  0  0999 V2000
   -6.4426    4.3560   -0.1417 C   0  0  0  0  0  0  0  0  0  0  0  0
   -5.2010    3.9139   -0.8930 C   0  0  0  0  0  0  0  0  0  0  0  0
   -4.7757    2.6099   -0.4711 N   0  0  0  0  0  0  0  0  0  0  0  0
   -5.6311    1.4978   -0.6102 C   0  0  0  0  0  0  0  0  0  0  0  0
   -6.7756    1.6774   -1.1135 O   0  0  0  0  0  0  0  0  0  0  0  0
   -5.2306    0.1769   -0.1950 N   0  0  0  0  0  0  0  0  0  0  0  0
   -6.2425   -0.8406   -0.4195 C   0  0  0  0  0  0  0  0  0  0  0  0
   -5.6634   -1.7617   -1.5046 C   0  0  0  0  0  0  0  0  0  0  0  0
   -4.2709   -2.1345   -1.0200 C   0  0  0  0  0  0  0  0  0  0  0  0
   -4.2673   -2.2645    0.3491 O   0  0  0  0  0  0  0  0  0  0  0  0
   -3.6040   -1.2348    0.9648 C   0  0  2  0  0  0  0  0  0  0  0  0
   -3.9183    0.0938    0.3613 C   0  0  0  0  0  0  0  0  0  0  0  0
   -2.1397   -1.5058    1.0119 C   0  0  0  0  0  0  0  0  0  0  0  0
   -1.1440   -0.6718    0.7169 N   0  0  0  0  0  0  0  0  0  0  0  0
    0.0531   -1.3139    0.8902 C   0  0  0  0  0  0  0  0  0  0  0  0
    1.3702   -0.7002    0.6852 C   0  0  0  0  0  0  0  0  0  0  0  0
    1.6539    0.4528    1.4196 C   0  0  0  0  0  0  0  0  0  0  0  0
    2.8331    1.1065    1.2401 C   0  0  0  0  0  0  0  0  0  0  0  0
    3.8096    0.6804    0.3360 C   0  0  0  0  0  0  0  0  0  0  0  0
    3.4961   -0.4515   -0.3654 C   0  0  0  0  0  0  0  0  0  0  0  0
    2.3025   -1.1312   -0.1982 C   0  0  0  0  0  0  0  0  0  0  0  0
    5.0603    1.4386    0.1867 C   0  0  0  0  0  0  0  0  0  0  0  0
    5.0532    2.5979    0.6398 O   0  0  0  0  0  0  0  0  0  0  0  0
    6.1579    0.8732   -0.4220 N   0  0  0  0  0  0  0  0  0  0  0  0
    7.4372    1.4125   -0.6685 C   0  0  0  0  0  0  0  0  0  0  0  0
    7.8131    2.6739   -0.3145 C   0  0  0  0  0  0  0  0  0  0  0  0
    9.0936    3.1695   -0.5782 C   0  0  0  0  0  0  0  0  0  0  0  0
   10.0265    2.4077   -1.2046 C   0  0  0  0  0  0  0  0  0  0  0  0
    9.6739    1.1259   -1.5748 C   0  0  0  0  0  0  0  0  0  0  0  0
   10.6162    0.3777   -2.1993 F   0  0  0  0  0  0  0  0  0  0  0  0
    8.4172    0.6537   -1.3104 C   0  0  0  0  0  0  0  0  0  0  0  0
    8.1358   -0.6070   -1.6978 F   0  0  0  0  0  0  0  0  0  0  0  0
   -0.2694   -2.5757    1.3066 C   0  0  0  0  0  0  0  0  0  0  0  0
    0.4760   -3.6819    1.6610 C   0  0  0  0  0  0  0  0  0  0  0  0
    1.8893   -3.6018    1.6423 N   0  0  0  0  0  0  0  0  0  0  0  0
   -0.0987   -4.8434    2.0630 N   0  0  0  0  0  0  0  0  0  0  0  0
   -1.4275   -4.9084    2.1156 C   0  0  0  0  0  0  0  0  0  0  0  0
   -2.2237   -3.8468    1.7797 C   0  0  0  0  0  0  0  0  0  0  0  0
   -1.6338   -2.7069    1.3849 N   0  0  0  0  0  0  0  0  0  0  0  0
   -6.7347    3.5919    0.6344 H   0  0  0  0  0  0  0  0  0  0  0  0
   -6.1690    5.2698    0.4311 H   0  0  0  0  0  0  0  0  0  0  0  0
   -7.3153    4.4895   -0.7941 H   0  0  0  0  0  0  0  0  0  0  0  0
   -4.3814    4.6337   -0.7975 H   0  0  0  0  0  0  0  0  0  0  0  0
   -5.4919    3.8715   -1.9669 H   0  0  0  0  0  0  0  0  0  0  0  0
   -3.8356    2.4828   -0.0625 H   0  0  0  0  0  0  0  0  0  0  0  0
   -7.1962   -0.4074   -0.7260 H   0  0  0  0  0  0  0  0  0  0  0  0
   -6.3214   -1.4869    0.4971 H   0  0  0  0  0  0  0  0  0  0  0  0
   -6.2785   -2.6508   -1.6533 H   0  0  0  0  0  0  0  0  0  0  0  0
   -5.5901   -1.1517   -2.4209 H   0  0  0  0  0  0  0  0  0  0  0  0
   -3.5364   -1.3977   -1.3482 H   0  0  0  0  0  0  0  0  0  0  0  0
   -4.0072   -3.1146   -1.5104 H   0  0  0  0  0  0  0  0  0  0  0  0
   -3.9446   -1.1953    2.0406 H   0  0  0  0  0  0  0  0  0  0  0  0
   -3.1972    0.3932   -0.4341 H   0  0  0  0  0  0  0  0  0  0  0  0
   -3.8639    0.8739    1.1763 H   0  0  0  0  0  0  0  0  0  0  0  0
    0.9032    0.8108    2.1384 H   0  0  0  0  0  0  0  0  0  0  0  0
    3.0693    2.0199    1.8155 H   0  0  0  0  0  0  0  0  0  0  0  0
    4.2286   -0.8273   -1.0945 H   0  0  0  0  0  0  0  0  0  0  0  0
    2.1378   -1.9999   -0.8084 H   0  0  0  0  0  0  0  0  0  0  0  0
    6.0418   -0.1376   -0.7651 H   0  0  0  0  0  0  0  0  0  0  0  0
    7.1407    3.3371    0.1811 H   0  0  0  0  0  0  0  0  0  0  0  0
    9.2969    4.1868   -0.2572 H   0  0  0  0  0  0  0  0  0  0  0  0
   11.0031    2.8329   -1.3875 H   0  0  0  0  0  0  0  0  0  0  0  0
    2.3750   -3.0570    2.3672 H   0  0  0  0  0  0  0  0  0  0  0  0
    2.4224   -4.0858    0.9080 H   0  0  0  0  0  0  0  0  0  0  0  0
   -1.8796   -5.8450    2.4386 H   0  0  0  0  0  0  0  0  0  0  0  0
   -3.2850   -3.9499    1.8400 H   0  0  0  0  0  0  0  0  0  0  0  0
  1  2  1  0
  2  3  1  0
  3  4  1  0
  4  5  2  0
  4  6  1  0
  6  7  1  0
  7  8  1  0
  8  9  1  0
  9 10  1  0
 10 11  1  0
 11 12  1  0
 11 13  1  0
 13 14  2  0
 14 15  1  0
 15 16  1  0
 16 17  2  0
 17 18  1  0
 18 19  2  0
 19 20  1  0
 20 21  2  0
 19 22  1  0
 22 23  2  0
 22 24  1  0
 24 25  1  0
 25 26  2  0
 26 27  1  0
 27 28  2  0
 28 29  1  0
 29 30  1  0
 29 31  2  0
 31 32  1  0
 15 33  2  0
 33 34  1  0
 34 35  1  0
 34 36  2  0
 36 37  1  0
 37 38  2  0
 38 39  1  0
 12  6  1  0
 39 13  1  0
 21 16  1  0
 31 25  1  0
 39 33  1  0
  1 40  1  0
  1 41  1  0
  1 42  1  0
  2 43  1  0
  2 44  1  0
  3 45  1  0
  7 46  1  0
  7 47  1  0
  8 48  1  0
  8 49  1  0
  9 50  1  0
  9 51  1  0
 11 52  1  1
 12 53  1  0
 12 54  1  0
 17 55  1  0
 18 56  1  0
 20 57  1  0
 21 58  1  0
 24 59  1  0
 26 60  1  0
 27 61  1  0
 28 62  1  0
 35 63  1  0
 35 64  1  0
 37 65  1  0
 38 66  1  0
M  END
$$$$
[H]c1c([H])c(Cl)c(-c2c([H])c3c([H])nc(N([H])c4c([H])c([H])c(C([H])([H])N5C([H])([H])C([H])([H])N(C([H])([H])C([H])([H])[H])C([H])([H])C5([H])[H])c(C(=O)N([H])[H])c4[H])nc3n(C([H])([H])[H])c2=O)c(Cl)c1[H]
     RDKit          3D

 68 72  0  0  0  0  0  0  0  0999 V2000
   -8.4849   -2.1021   -1.0056 C   0  0  0  0  0  0  0  0  0  0  0  0
   -7.2156   -1.9337   -0.2112 C   0  0  0  0  0  0  0  0  0  0  0  0
   -6.0284   -2.3000   -0.9215 N   0  0  0  0  0  0  0  0  0  0  0  0
   -5.7177   -1.4158   -2.0122 C   0  0  0  0  0  0  0  0  0  0  0  0
   -5.3094   -0.0509   -1.5645 C   0  0  0  0  0  0  0  0  0  0  0  0
   -4.0809   -0.1172   -0.7339 N   0  0  0  0  0  0  0  0  0  0  0  0
   -4.0036    1.2538   -0.1675 C   0  0  0  0  0  0  0  0  0  0  0  0
   -2.6976    1.5139    0.4646 C   0  0  0  0  0  0  0  0  0  0  0  0
   -1.6895    0.5776    0.3960 C   0  0  0  0  0  0  0  0  0  0  0  0
   -0.4193    0.7803    0.9433 C   0  0  0  0  0  0  0  0  0  0  0  0
   -0.1144    1.9499    1.5866 C   0  0  0  0  0  0  0  0  0  0  0  0
    1.1217    2.2989    2.1488 N   0  0  0  0  0  0  0  0  0  0  0  0
    2.3467    1.7778    1.7956 C   0  0  0  0  0  0  0  0  0  0  0  0
    3.4716    2.2103    2.4554 N   0  0  0  0  0  0  0  0  0  0  0  0
    4.6937    1.7546    2.1374 C   0  0  0  0  0  0  0  0  0  0  0  0
    4.8513    0.8306    1.1285 C   0  0  0  0  0  0  0  0  0  0  0  0
    6.0828    0.3212    0.7488 C   0  0  0  0  0  0  0  0  0  0  0  0
    6.1964   -0.6017   -0.2677 C   0  0  0  0  0  0  0  0  0  0  0  0
    7.4716   -1.1684   -0.7029 C   0  0  0  0  0  0  0  0  0  0  0  0
    8.2299   -0.5845   -1.6973 C   0  0  0  0  0  0  0  0  0  0  0  0
    7.6264    0.8734   -2.4401 Cl  0  0  0  0  0  0  0  0  0  0  0  0
    9.4341   -1.1156   -2.1120 C   0  0  0  0  0  0  0  0  0  0  0  0
    9.9319   -2.2662   -1.5401 C   0  0  0  0  0  0  0  0  0  0  0  0
    9.1788   -2.8573   -0.5431 C   0  0  0  0  0  0  0  0  0  0  0  0
    7.9659   -2.3207   -0.1269 C   0  0  0  0  0  0  0  0  0  0  0  0
    7.0161   -3.0661    1.1306 Cl  0  0  0  0  0  0  0  0  0  0  0  0
    5.0234   -0.9976   -0.8931 C   0  0  0  0  0  0  0  0  0  0  0  0
    5.0853   -1.8312   -1.8178 O   0  0  0  0  0  0  0  0  0  0  0  0
    3.8049   -0.5052   -0.5311 N   0  0  0  0  0  0  0  0  0  0  0  0
    2.5773   -0.9138   -1.1846 C   0  0  0  0  0  0  0  0  0  0  0  0
    3.7198    0.3938    0.4631 C   0  0  0  0  0  0  0  0  0  0  0  0
    2.5327    0.8871    0.8288 N   0  0  0  0  0  0  0  0  0  0  0  0
   -1.1279    2.9030    1.6605 C   0  0  0  0  0  0  0  0  0  0  0  0
   -2.3895    2.6859    1.1106 C   0  0  0  0  0  0  0  0  0  0  0  0
   -3.3880    3.7480    1.2277 C   0  0  0  0  0  0  0  0  0  0  0  0
   -3.0550    4.9646    1.9393 N   0  0  0  0  0  0  0  0  0  0  0  0
   -4.5100    3.6095    0.7225 O   0  0  0  0  0  0  0  0  0  0  0  0
   -4.4730   -0.9499    0.4133 C   0  0  0  0  0  0  0  0  0  0  0  0
   -4.9126   -2.3170    0.0083 C   0  0  0  0  0  0  0  0  0  0  0  0
   -8.5167   -1.4961   -1.9256 H   0  0  0  0  0  0  0  0  0  0  0  0
   -9.3199   -1.7136   -0.3650 H   0  0  0  0  0  0  0  0  0  0  0  0
   -8.7133   -3.1508   -1.2746 H   0  0  0  0  0  0  0  0  0  0  0  0
   -7.2080   -0.9098    0.1967 H   0  0  0  0  0  0  0  0  0  0  0  0
   -7.2978   -2.6222    0.6713 H   0  0  0  0  0  0  0  0  0  0  0  0
   -6.6235   -1.2976   -2.6459 H   0  0  0  0  0  0  0  0  0  0  0  0
   -4.8895   -1.8881   -2.5877 H   0  0  0  0  0  0  0  0  0  0  0  0
   -6.0793    0.3822   -0.8994 H   0  0  0  0  0  0  0  0  0  0  0  0
   -5.1433    0.5979   -2.4204 H   0  0  0  0  0  0  0  0  0  0  0  0
   -4.8434    1.3094    0.5891 H   0  0  0  0  0  0  0  0  0  0  0  0
   -4.2681    1.9638   -0.9790 H   0  0  0  0  0  0  0  0  0  0  0  0
   -1.8880   -0.3526   -0.1240 H   0  0  0  0  0  0  0  0  0  0  0  0
    0.3131   -0.0205    0.8584 H   0  0  0  0  0  0  0  0  0  0  0  0
    1.1025    3.0357    2.9247 H   0  0  0  0  0  0  0  0  0  0  0  0
    5.5547    2.1132    2.6751 H   0  0  0  0  0  0  0  0  0  0  0  0
    6.9752    0.6554    1.2620 H   0  0  0  0  0  0  0  0  0  0  0  0
   10.0266   -0.6427   -2.9019 H   0  0  0  0  0  0  0  0  0  0  0  0
   10.8797   -2.6830   -1.8709 H   0  0  0  0  0  0  0  0  0  0  0  0
    9.5602   -3.7676   -0.0828 H   0  0  0  0  0  0  0  0  0  0  0  0
    2.0745   -1.7443   -0.6764 H   0  0  0  0  0  0  0  0  0  0  0  0
    1.9053   -0.0116   -1.2827 H   0  0  0  0  0  0  0  0  0  0  0  0
    2.8276   -1.1939   -2.2256 H   0  0  0  0  0  0  0  0  0  0  0  0
   -0.9341    3.8622    2.1676 H   0  0  0  0  0  0  0  0  0  0  0  0
   -2.9210    5.8086    1.3685 H   0  0  0  0  0  0  0  0  0  0  0  0
   -2.9709    4.9148    2.9787 H   0  0  0  0  0  0  0  0  0  0  0  0
   -5.3552   -0.3849    0.8521 H   0  0  0  0  0  0  0  0  0  0  0  0
   -3.6820   -0.9788    1.1363 H   0  0  0  0  0  0  0  0  0  0  0  0
   -5.2318   -2.8552    0.9099 H   0  0  0  0  0  0  0  0  0  0  0  0
   -4.0787   -2.8493   -0.4797 H   0  0  0  0  0  0  0  0  0  0  0  0
  1  2  1  0
  2  3  1  0
  3  4  1  0
  4  5  1  0
  5  6  1  0
  6  7  1  0
  7  8  1  0
  8  9  2  0
  9 10  1  0
 10 11  2  0
 11 12  1  0
 12 13  1  0
 13 14  2  0
 14 15  1  0
 15 16  2  0
 16 17  1  0
 17 18  2  0
 18 19  1  0
 19 20  2  0
 20 21  1  0
 20 22  1  0
 22 23  2  0
 23 24  1  0
 24 25  2  0
 25 26  1  0
 18 27  1  0
 27 28  2  0
 27 29  1  0
 29 30  1  0
 29 31  1  0
 31 32  2  0
 11 33  1  0
 33 34  2  0
 34 35  1  0
 35 36  1  0
 35 37  2  0
  6 38  1  0
 38 39  1  0
 39  3  1  0
 34  8  1  0
 32 13  1  0
 31 16  1  0
 25 19  1  0
  1 40  1  0
  1 41  1  0
  1 42  1  0
  2 43  1  0
  2 44  1  0
  4 45  1  0
  4 46  1  0
  5 47  1  0
  5 48  1  0
  7 49  1  0
  7 50  1  0
  9 51  1  0
 10 52  1  0
 12 53  1  0
 15 54  1  0
 17 55  1  0
 22 56  1  0
 23 57  1  0
 24 58  1  0
 30 59  1  0
 30 60  1  0
 30 61  1  0
 33 62  1  0
 36 63  1  0
 36 64  1  0
 38 65  1  0
 38 66  1  0
 39 67  1  0
 39 68  1  0
M  END
$$$$
[H]/C(=C1/C(=O)N([H])c2c([H])c([H])c(F)c([H])c21)c1c(C([H])([H])[H])c(C(=O)N([H])C([H])([H])C([H])([H])N(C([H])([H])C([H])([H])[H])C([H])([H])C([H])([H])[H])c(C([H])([H])[H])n1[H]
     RDKit          3D

 56 58  0  0  0  0  0  0  0  0999 V2000
   -5.0714    1.8670   -1.0108 C   0  0  0  0  0  0  0  0  0  0  0  0
   -5.3461    0.3881   -0.8275 C   0  0  0  0  0  0  0  0  0  0  0  0
   -4.6170   -0.1646    0.3206 N   0  0  0  0  0  0  0  0  0  0  0  0
   -5.1790    0.4151    1.5016 C   0  0  0  0  0  0  0  0  0  0  0  0
   -4.5345   -0.0334    2.7742 C   0  0  0  0  0  0  0  0  0  0  0  0
   -4.6501   -1.5699    0.2637 C   0  0  0  0  0  0  0  0  0  0  0  0
   -3.7757   -2.2111   -0.7540 C   0  0  0  0  0  0  0  0  0  0  0  0
   -2.3731   -2.1323   -0.6218 N   0  0  0  0  0  0  0  0  0  0  0  0
   -1.4740   -1.0577   -0.5954 C   0  0  0  0  0  0  0  0  0  0  0  0
   -1.9007    0.1569   -0.6986 O   0  0  0  0  0  0  0  0  0  0  0  0
   -0.0260   -1.1673   -0.4518 C   0  0  0  0  0  0  0  0  0  0  0  0
    0.8308   -2.2047   -0.6599 C   0  0  0  0  0  0  0  0  0  0  0  0
    0.5183   -3.5624   -1.1880 C   0  0  0  0  0  0  0  0  0  0  0  0
    2.1148   -1.8439   -0.3380 N   0  0  0  0  0  0  0  0  0  0  0  0
    2.0987   -0.5939    0.0716 C   0  0  0  0  0  0  0  0  0  0  0  0
    3.1774    0.2565    0.5004 C   0  0  0  0  0  0  0  0  0  0  0  0
    4.2152    0.5258   -0.2368 C   0  0  0  0  0  0  0  0  0  0  0  0
    4.5400    0.0878   -1.5770 C   0  0  0  0  0  0  0  0  0  0  0  0
    3.8503   -0.6552   -2.3249 O   0  0  0  0  0  0  0  0  0  0  0  0
    5.8118    0.6670   -1.9034 N   0  0  0  0  0  0  0  0  0  0  0  0
    6.2838    1.4437   -0.8228 C   0  0  0  0  0  0  0  0  0  0  0  0
    7.4169    2.1967   -0.6129 C   0  0  0  0  0  0  0  0  0  0  0  0
    7.6451    2.8791    0.5618 C   0  0  0  0  0  0  0  0  0  0  0  0
    6.7134    2.8201    1.5851 C   0  0  0  0  0  0  0  0  0  0  0  0
    6.8926    3.4732    2.7576 F   0  0  0  0  0  0  0  0  0  0  0  0
    5.5872    2.0654    1.3625 C   0  0  0  0  0  0  0  0  0  0  0  0
    5.3509    1.3770    0.1845 C   0  0  0  0  0  0  0  0  0  0  0  0
    0.7763   -0.1375    0.0139 C   0  0  0  0  0  0  0  0  0  0  0  0
    0.3086    1.2202    0.3933 C   0  0  0  0  0  0  0  0  0  0  0  0
   -5.8586    2.4508   -0.5357 H   0  0  0  0  0  0  0  0  0  0  0  0
   -4.0666    2.1489   -0.6432 H   0  0  0  0  0  0  0  0  0  0  0  0
   -5.0551    2.0620   -2.1045 H   0  0  0  0  0  0  0  0  0  0  0  0
   -5.1075   -0.2012   -1.6994 H   0  0  0  0  0  0  0  0  0  0  0  0
   -6.4302    0.2709   -0.5364 H   0  0  0  0  0  0  0  0  0  0  0  0
   -6.2797    0.2912    1.5323 H   0  0  0  0  0  0  0  0  0  0  0  0
   -5.0076    1.5283    1.4040 H   0  0  0  0  0  0  0  0  0  0  0  0
   -5.0445   -0.8560    3.2889 H   0  0  0  0  0  0  0  0  0  0  0  0
   -3.4622   -0.2647    2.6232 H   0  0  0  0  0  0  0  0  0  0  0  0
   -4.5485    0.8322    3.4886 H   0  0  0  0  0  0  0  0  0  0  0  0
   -4.4903   -2.0463    1.2893 H   0  0  0  0  0  0  0  0  0  0  0  0
   -5.7090   -1.9542    0.0302 H   0  0  0  0  0  0  0  0  0  0  0  0
   -4.1207   -3.3053   -0.7880 H   0  0  0  0  0  0  0  0  0  0  0  0
   -4.0214   -1.8378   -1.7910 H   0  0  0  0  0  0  0  0  0  0  0  0
   -1.9069   -3.1170   -0.4939 H   0  0  0  0  0  0  0  0  0  0  0  0
    1.4454   -4.0202   -1.6271 H   0  0  0  0  0  0  0  0  0  0  0  0
   -0.1980   -3.5119   -2.0293 H   0  0  0  0  0  0  0  0  0  0  0  0
    0.1816   -4.2087   -0.3617 H   0  0  0  0  0  0  0  0  0  0  0  0
    2.9340   -2.4990   -0.4118 H   0  0  0  0  0  0  0  0  0  0  0  0
    3.1447    0.7200    1.5125 H   0  0  0  0  0  0  0  0  0  0  0  0
    6.3151    0.5384   -2.8011 H   0  0  0  0  0  0  0  0  0  0  0  0
    8.1416    2.2410   -1.4148 H   0  0  0  0  0  0  0  0  0  0  0  0
    8.5539    3.4777    0.7183 H   0  0  0  0  0  0  0  0  0  0  0  0
    4.8413    2.0008    2.1446 H   0  0  0  0  0  0  0  0  0  0  0  0
    1.1157    1.7992    0.8832 H   0  0  0  0  0  0  0  0  0  0  0  0
   -0.5276    1.1531    1.1483 H   0  0  0  0  0  0  0  0  0  0  0  0
   -0.0237    1.8018   -0.4924 H   0  0  0  0  0  0  0  0  0  0  0  0
  1  2  1  0
  2  3  1  0
  3  4  1  0
  4  5  1  0
  3  6  1  0
  6  7  1  0
  7  8  1  0
  8  9  1  0
  9 10  2  0
  9 11  1  0
 11 12  2  0
 12 13  1  0
 12 14  1  0
 14 15  1  0
 15 16  1  0
 16 17  2  0
 17 18  1  0
 18 19  2  0
 18 20  1  0
 20 21  1  0
 21 22  2  0
 22 23  1  0
 23 24  2  0
 24 25  1  0
 24 26  1  0
 26 27  2  0
 15 28  2  0
 28 29  1  0
 28 11  1  0
 27 17  1  0
 27 21  1  0
  1 30  1  0
  1 31  1  0
  1 32  1  0
  2 33  1  0
  2 34  1  0
  4 35  1  0
  4 36  1  0
  5 37  1  0
  5 38  1  0
  5 39  1  0
  6 40  1  0
  6 41  1  0
  7 42  1  0
  7 43  1  0
  8 44  1  0
 13 45  1  0
 13 46  1  0
 13 47  1  0
 14 48  1  0
 16 49  1  0
 20 50  1  0
 22 51  1  0
 23 52  1  0
 26 53  1  0
 29 54  1  0
 29 55  1  0
 29 56  1  0
M  END
$$$$
[H]c1c(OC2([H])C([H])([H])C([H])([H])N(C([H])([H])[H])C([H])([H])C2([H])[H])nc(C([H])([H])[H])nc1N([H])c1c([H])c(C([H])([H])[H])nn1-c1c([H])c([H])c([H])c([H])c1[H]
     RDKit          3D

 54 57  0  0  0  0  0  0  0  0999 V2000
    7.7376    0.3314   -0.7203 C   0  0  0  0  0  0  0  0  0  0  0  0
    6.4347   -0.2079   -0.3240 N   0  0  0  0  0  0  0  0  0  0  0  0
    5.6109   -0.2530   -1.4913 C   0  0  0  0  0  0  0  0  0  0  0  0
    4.3157    0.5189   -1.3405 C   0  0  0  0  0  0  0  0  0  0  0  0
    3.6473   -0.0121   -0.0855 C   0  0  0  0  0  0  0  0  0  0  0  0
    4.4978    0.3806    1.0761 C   0  0  0  0  0  0  0  0  0  0  0  0
    5.9380    0.6047    0.7369 C   0  0  0  0  0  0  0  0  0  0  0  0
    2.3127    0.3262    0.0183 O   0  0  0  0  0  0  0  0  0  0  0  0
    1.2327   -0.4806    0.0237 C   0  0  0  0  0  0  0  0  0  0  0  0
   -0.0527    0.0524    0.1387 C   0  0  0  0  0  0  0  0  0  0  0  0
   -1.1896   -0.7196    0.1486 C   0  0  0  0  0  0  0  0  0  0  0  0
   -2.5230   -0.3059    0.2181 N   0  0  0  0  0  0  0  0  0  0  0  0
   -3.1305    0.9348    0.1787 C   0  0  0  0  0  0  0  0  0  0  0  0
   -2.5911    2.1613   -0.0620 C   0  0  0  0  0  0  0  0  0  0  0  0
   -3.6232    3.1037    0.0465 C   0  0  0  0  0  0  0  0  0  0  0  0
   -3.4682    4.5881   -0.1427 C   0  0  0  0  0  0  0  0  0  0  0  0
   -4.6980    2.4057    0.3381 N   0  0  0  0  0  0  0  0  0  0  0  0
   -4.4825    1.1208    0.4317 N   0  0  0  0  0  0  0  0  0  0  0  0
   -5.4412    0.0964    0.7353 C   0  0  0  0  0  0  0  0  0  0  0  0
   -5.8548   -0.7791   -0.2362 C   0  0  0  0  0  0  0  0  0  0  0  0
   -6.7790   -1.7813    0.0196 C   0  0  0  0  0  0  0  0  0  0  0  0
   -7.3104   -1.9156    1.2900 C   0  0  0  0  0  0  0  0  0  0  0  0
   -6.9042   -1.0465    2.2679 C   0  0  0  0  0  0  0  0  0  0  0  0
   -5.9692   -0.0373    1.9973 C   0  0  0  0  0  0  0  0  0  0  0  0
   -0.9297   -2.0693    0.0357 N   0  0  0  0  0  0  0  0  0  0  0  0
    0.2695   -2.6145   -0.0744 C   0  0  0  0  0  0  0  0  0  0  0  0
    0.4305   -4.0861   -0.1903 C   0  0  0  0  0  0  0  0  0  0  0  0
    1.3422   -1.8019   -0.0789 N   0  0  0  0  0  0  0  0  0  0  0  0
    8.1872    0.8993    0.1454 H   0  0  0  0  0  0  0  0  0  0  0  0
    8.4439   -0.4602   -0.9819 H   0  0  0  0  0  0  0  0  0  0  0  0
    7.6230    1.0384   -1.5434 H   0  0  0  0  0  0  0  0  0  0  0  0
    5.3042   -1.3293   -1.6314 H   0  0  0  0  0  0  0  0  0  0  0  0
    6.1398    0.0134   -2.4309 H   0  0  0  0  0  0  0  0  0  0  0  0
    3.7018    0.2835   -2.2335 H   0  0  0  0  0  0  0  0  0  0  0  0
    4.5270    1.5999   -1.2776 H   0  0  0  0  0  0  0  0  0  0  0  0
    3.7106   -1.1360   -0.1709 H   0  0  0  0  0  0  0  0  0  0  0  0
    4.1066    1.3615    1.4755 H   0  0  0  0  0  0  0  0  0  0  0  0
    4.3878   -0.3224    1.9499 H   0  0  0  0  0  0  0  0  0  0  0  0
    6.1523    1.6833    0.5466 H   0  0  0  0  0  0  0  0  0  0  0  0
    6.5481    0.3566    1.6540 H   0  0  0  0  0  0  0  0  0  0  0  0
   -0.1552    1.1179    0.2509 H   0  0  0  0  0  0  0  0  0  0  0  0
   -3.2170   -1.1462    0.3237 H   0  0  0  0  0  0  0  0  0  0  0  0
   -1.5914    2.4693   -0.3161 H   0  0  0  0  0  0  0  0  0  0  0  0
   -2.4693    4.7978   -0.5342 H   0  0  0  0  0  0  0  0  0  0  0  0
   -4.2669    4.9298   -0.8620 H   0  0  0  0  0  0  0  0  0  0  0  0
   -3.6912    5.0410    0.8350 H   0  0  0  0  0  0  0  0  0  0  0  0
   -5.4576   -0.7049   -1.2524 H   0  0  0  0  0  0  0  0  0  0  0  0
   -7.0670   -2.4377   -0.7761 H   0  0  0  0  0  0  0  0  0  0  0  0
   -8.0412   -2.7178    1.4674 H   0  0  0  0  0  0  0  0  0  0  0  0
   -7.3255   -1.1611    3.2545 H   0  0  0  0  0  0  0  0  0  0  0  0
   -5.6499    0.6472    2.7693 H   0  0  0  0  0  0  0  0  0  0  0  0
    1.3256   -4.4470    0.3555 H   0  0  0  0  0  0  0  0  0  0  0  0
   -0.4710   -4.5465    0.2987 H   0  0  0  0  0  0  0  0  0  0  0  0
    0.4230   -4.3440   -1.2564 H   0  0  0  0  0  0  0  0  0  0  0  0
  1  2  1  0
  2  3  1  0
  3  4  1  0
  4  5  1  0
  5  6  1  0
  6  7  1  0
  5  8  1  0
  8  9  1  0
  9 10  2  0
 10 11  1  0
 11 12  1  0
 12 13  1  0
 13 14  2  0
 14 15  1  0
 15 16  1  0
 15 17  2  0
 17 18  1  0
 18 19  1  0
 19 20  2  0
 20 21  1  0
 21 22  2  0
 22 23  1  0
 23 24  2  0
 11 25  2  0
 25 26  1  0
 26 27  1  0
 26 28  2  0
  7  2  1  0
 28  9  1  0
 18 13  1  0
 24 19  1  0
  1 29  1  0
  1 30  1  0
  1 31  1  0
  3 32  1  0
  3 33  1  0
  4 34  1  0
  4 35  1  0
  5 36  1  0
  6 37  1  0
  6 38  1  0
  7 39  1  0
  7 40  1  0
 10 41  1  0
 12 42  1  0
 14 43  1  0
 16 44  1  0
 16 45  1  0
 16 46  1  0
 20 47  1  0
 21 48  1  0
 22 49  1  0
 23 50  1  0
 24 51  1  0
 27 52  1  0
 27 53  1  0
 27 54  1  0
M  END
$$$$
[H]Oc1c([H])c([H])c(-c2sc3c(C(=O)N([H])[H])c([H])c(N([H])C([H])([H])C([H])([H])O[H])c([H])c3c2-c2c([H])c([H])c([H])c([H])c2[H])c([H])c1[H]
     RDKit          3D

 49 52  0  0  0  0  0  0  0  0999 V2000
   -6.5307    2.5211    1.8345 O   0  0  0  0  0  0  0  0  0  0  0  0
   -5.2492    2.2139    1.3694 C   0  0  0  0  0  0  0  0  0  0  0  0
   -5.0543    1.3561    0.3085 C   0  0  0  0  0  0  0  0  0  0  0  0
   -3.7812    1.0573   -0.1458 C   0  0  0  0  0  0  0  0  0  0  0  0
   -2.6748    1.6155    0.4579 C   0  0  0  0  0  0  0  0  0  0  0  0
   -2.8876    2.4715    1.5179 C   0  0  0  0  0  0  0  0  0  0  0  0
   -4.1501    2.7775    1.9802 C   0  0  0  0  0  0  0  0  0  0  0  0
   -1.2958    1.3125   -0.0094 C   0  0  0  0  0  0  0  0  0  0  0  0
   -0.1249    2.3654   -0.6533 S   0  0  0  0  0  0  0  0  0  0  0  0
    1.1328    1.2400   -0.9179 C   0  0  0  0  0  0  0  0  0  0  0  0
    2.4345    1.3465   -1.4310 C   0  0  0  0  0  0  0  0  0  0  0  0
    3.2440    0.2161   -1.5227 C   0  0  0  0  0  0  0  0  0  0  0  0
    2.7259   -0.9809   -1.0985 C   0  0  0  0  0  0  0  0  0  0  0  0
    3.5468   -2.1732   -1.1607 N   0  0  0  0  0  0  0  0  0  0  0  0
    4.9461   -2.0554   -1.3907 C   0  0  0  0  0  0  0  0  0  0  0  0
    5.6416   -1.4169   -0.2108 C   0  0  0  0  0  0  0  0  0  0  0  0
    5.4646   -2.1783    0.9523 O   0  0  0  0  0  0  0  0  0  0  0  0
    1.4558   -1.0523   -0.6045 C   0  0  0  0  0  0  0  0  0  0  0  0
    0.5996    0.0624   -0.4925 C   0  0  0  0  0  0  0  0  0  0  0  0
   -0.6779    0.0977   -0.0141 C   0  0  0  0  0  0  0  0  0  0  0  0
   -1.4117   -1.1110    0.4928 C   0  0  0  0  0  0  0  0  0  0  0  0
   -1.8202   -1.2026    1.7991 C   0  0  0  0  0  0  0  0  0  0  0  0
   -2.4966   -2.3016    2.2927 C   0  0  0  0  0  0  0  0  0  0  0  0
   -2.7584   -3.3438    1.3970 C   0  0  0  0  0  0  0  0  0  0  0  0
   -2.3660   -3.2935    0.0755 C   0  0  0  0  0  0  0  0  0  0  0  0
   -1.6953   -2.1663   -0.3478 C   0  0  0  0  0  0  0  0  0  0  0  0
    2.8714    2.6505   -1.8432 C   0  0  0  0  0  0  0  0  0  0  0  0
    2.0252    3.7662   -1.7307 N   0  0  0  0  0  0  0  0  0  0  0  0
    4.0238    2.8018   -2.3109 O   0  0  0  0  0  0  0  0  0  0  0  0
   -7.0457    3.3106    1.4545 H   0  0  0  0  0  0  0  0  0  0  0  0
   -5.9237    0.9284   -0.1525 H   0  0  0  0  0  0  0  0  0  0  0  0
   -3.6282    0.3792   -0.9840 H   0  0  0  0  0  0  0  0  0  0  0  0
   -2.0199    2.9066    1.9883 H   0  0  0  0  0  0  0  0  0  0  0  0
   -4.3097    3.4599    2.8243 H   0  0  0  0  0  0  0  0  0  0  0  0
    4.2348    0.3382   -1.9311 H   0  0  0  0  0  0  0  0  0  0  0  0
    3.1244   -3.1165   -1.0384 H   0  0  0  0  0  0  0  0  0  0  0  0
    5.1852   -1.5305   -2.3400 H   0  0  0  0  0  0  0  0  0  0  0  0
    5.3848   -3.0776   -1.4749 H   0  0  0  0  0  0  0  0  0  0  0  0
    5.3345   -0.3935    0.0067 H   0  0  0  0  0  0  0  0  0  0  0  0
    6.7367   -1.3572   -0.4815 H   0  0  0  0  0  0  0  0  0  0  0  0
    4.9061   -1.6897    1.6225 H   0  0  0  0  0  0  0  0  0  0  0  0
    1.1222   -2.0352   -0.2916 H   0  0  0  0  0  0  0  0  0  0  0  0
   -1.5900   -0.3585    2.4577 H   0  0  0  0  0  0  0  0  0  0  0  0
   -2.8126   -2.3594    3.3269 H   0  0  0  0  0  0  0  0  0  0  0  0
   -3.2953   -4.2310    1.7614 H   0  0  0  0  0  0  0  0  0  0  0  0
   -2.5535   -4.0817   -0.6401 H   0  0  0  0  0  0  0  0  0  0  0  0
   -1.3769   -2.1082   -1.3890 H   0  0  0  0  0  0  0  0  0  0  0  0
    1.8648    4.2065   -0.7847 H   0  0  0  0  0  0  0  0  0  0  0  0
    1.5246    4.2134   -2.5277 H   0  0  0  0  0  0  0  0  0  0  0  0
  1  2  1  0
  2  3  2  0
  3  4  1  0
  4  5  2  0
  5  6  1  0
  6  7  2  0
  5  8  1  0
  8  9  1  0
  9 10  1  0
 10 11  2  0
 11 12  1  0
 12 13  2  0
 13 14  1  0
 14 15  1  0
 15 16  1  0
 16 17  1  0
 13 18  1  0
 18 19  2  0
 19 20  1  0
 20 21  1  0
 21 22  2  0
 22 23  1  0
 23 24  2  0
 24 25  1  0
 25 26  2  0
 11 27  1  0
 27 28  1  0
 27 29  2  0
  7  2  1  0
 20  8  2  0
 26 21  1  0
 19 10  1  0
  1 30  1  0
  3 31  1  0
  4 32  1  0
  6 33  1  0
  7 34  1  0
 12 35  1  0
 14 36  1  0
 15 37  1  0
 15 38  1  0
 16 39  1  0
 16 40  1  0
 17 41  1  0
 18 42  1  0
 22 43  1  0
 23 44  1  0
 24 45  1  0
 25 46  1  0
 26 47  1  0
 28 48  1  0
 28 49  1  0
M  END
$$$$
[H]c1nc(N(C([H])([H])[H])S(=O)(=O)C([H])([H])C([H])([H])[H])nc(N([H])c2c([H])c([H])c3c(c2[H])c([H])c([H])n3[H])c1C(=O)N([H])[H]
     RDKit          3D

 44 46  0  0  0  0  0  0  0  0999 V2000
    4.1819    2.6777   -0.2110 C   0  0  0  0  0  0  0  0  0  0  0  0
    4.6447    1.3863    0.4077 C   0  0  0  0  0  0  0  0  0  0  0  0
    4.1325   -0.0369   -0.4997 S   0  0  0  0  0  0  0  0  0  0  0  0
    4.7030   -1.2412    0.2400 O   0  0  0  0  0  0  0  0  0  0  0  0
    4.7471   -0.0474   -1.8466 O   0  0  0  0  0  0  0  0  0  0  0  0
    2.4352   -0.1750   -0.6339 N   0  0  0  0  0  0  0  0  0  0  0  0
    1.8209   -0.1504   -1.9303 C   0  0  0  0  0  0  0  0  0  0  0  0
    1.6416   -0.3125    0.5328 C   0  0  0  0  0  0  0  0  0  0  0  0
    2.1896   -0.3390    1.7718 N   0  0  0  0  0  0  0  0  0  0  0  0
    1.4652   -0.4667    2.8779 C   0  0  0  0  0  0  0  0  0  0  0  0
    0.0660   -0.5843    2.8384 C   0  0  0  0  0  0  0  0  0  0  0  0
   -0.6633   -0.7045    4.0919 C   0  0  0  0  0  0  0  0  0  0  0  0
    0.1141   -0.7221    5.2917 N   0  0  0  0  0  0  0  0  0  0  0  0
   -1.8820   -0.7963    4.2866 O   0  0  0  0  0  0  0  0  0  0  0  0
   -0.4991   -0.5588    1.5815 C   0  0  0  0  0  0  0  0  0  0  0  0
   -1.8862   -0.7114    1.4297 N   0  0  0  0  0  0  0  0  0  0  0  0
   -2.6227   -0.6623    0.2040 C   0  0  0  0  0  0  0  0  0  0  0  0
   -3.8492   -1.3427    0.1325 C   0  0  0  0  0  0  0  0  0  0  0  0
   -4.6190   -1.3146   -0.9981 C   0  0  0  0  0  0  0  0  0  0  0  0
   -4.2332   -0.6195   -2.1233 C   0  0  0  0  0  0  0  0  0  0  0  0
   -4.7792   -0.4279   -3.3352 N   0  0  0  0  0  0  0  0  0  0  0  0
   -3.9578    0.3447   -4.0424 C   0  0  0  0  0  0  0  0  0  0  0  0
   -2.8582    0.6593   -3.2727 C   0  0  0  0  0  0  0  0  0  0  0  0
   -3.0373    0.0475   -2.0611 C   0  0  0  0  0  0  0  0  0  0  0  0
   -2.2406    0.0264   -0.9087 C   0  0  0  0  0  0  0  0  0  0  0  0
    0.3137   -0.4256    0.5147 N   0  0  0  0  0  0  0  0  0  0  0  0
    4.8885    3.4758    0.1514 H   0  0  0  0  0  0  0  0  0  0  0  0
    4.2481    2.6854   -1.3085 H   0  0  0  0  0  0  0  0  0  0  0  0
    3.1873    2.9723    0.1811 H   0  0  0  0  0  0  0  0  0  0  0  0
    4.3371    1.3654    1.4564 H   0  0  0  0  0  0  0  0  0  0  0  0
    5.7554    1.4013    0.3950 H   0  0  0  0  0  0  0  0  0  0  0  0
    0.9083   -0.8149   -1.9502 H   0  0  0  0  0  0  0  0  0  0  0  0
    1.4554    0.8525   -2.2231 H   0  0  0  0  0  0  0  0  0  0  0  0
    2.5111   -0.5830   -2.6898 H   0  0  0  0  0  0  0  0  0  0  0  0
    1.9480   -0.4835    3.8588 H   0  0  0  0  0  0  0  0  0  0  0  0
    0.7374   -1.5230    5.4595 H   0  0  0  0  0  0  0  0  0  0  0  0
    0.0522    0.0444    5.9684 H   0  0  0  0  0  0  0  0  0  0  0  0
   -2.4786   -0.8831    2.2608 H   0  0  0  0  0  0  0  0  0  0  0  0
   -4.1776   -1.8962    0.9993 H   0  0  0  0  0  0  0  0  0  0  0  0
   -5.5699   -1.8318   -1.0782 H   0  0  0  0  0  0  0  0  0  0  0  0
   -5.7082   -0.8293   -3.6619 H   0  0  0  0  0  0  0  0  0  0  0  0
   -4.1155    0.6826   -5.0663 H   0  0  0  0  0  0  0  0  0  0  0  0
   -1.9958    1.2675   -3.5312 H   0  0  0  0  0  0  0  0  0  0  0  0
   -1.3108    0.5946   -0.9225 H   0  0  0  0  0  0  0  0  0  0  0  0
  1  2  1  0
  2  3  1  0
  3  4  2  0
  3  5  2  0
  3  6  1  0
  6  7  1  0
  6  8  1  0
  8  9  2  0
  9 10  1  0
 10 11  2  0
 11 12  1  0
 12 13  1  0
 12 14  2  0
 11 15  1  0
 15 16  1  0
 16 17  1  0
 17 18  2  0
 18 19  1  0
 19 20  2  0
 20 21  1  0
 21 22  1  0
 22 23  2  0
 23 24  1  0
 24 25  2  0
 15 26  2  0
 26  8  1  0
 25 17  1  0
 24 20  1  0
  1 27  1  0
  1 28  1  0
  1 29  1  0
  2 30  1  0
  2 31  1  0
  7 32  1  0
  7 33  1  0
  7 34  1  0
 10 35  1  0
 13 36  1  0
 13 37  1  0
 16 38  1  0
 18 39  1  0
 19 40  1  0
 21 41  1  0
 22 42  1  0
 23 43  1  0
 25 44  1  0
M  END
$$$$
[H]O[C@@]1([H])C2([H])O[C@](C([H])([H])[H])(n3c4c([H])c([H])c([H])c([H])c4c4c5c(c6c7c([H])c([H])c([H])c([H])c7n2c6c43)C(=O)N([H])C5([H])[H])[C@@]([H])(C(=O)OC([H])([H])[H])C1([H])[H]
     RDKit          3D

 59 66  0  0  0  0  0  0  0  0999 V2000
    6.1117   -0.0203   -0.2287 C   0  0  0  0  0  0  0  0  0  0  0  0
    4.7481   -0.4046   -0.2910 O   0  0  0  0  0  0  0  0  0  0  0  0
    3.8003    0.1985   -1.1000 C   0  0  0  0  0  0  0  0  0  0  0  0
    4.1441    1.1421   -1.8266 O   0  0  0  0  0  0  0  0  0  0  0  0
    2.3721   -0.3280   -1.0604 C   0  0  1  0  0  0  0  0  0  0  0  0
    2.6734   -1.8405   -1.1754 C   0  0  0  0  0  0  0  0  0  0  0  0
    1.5117   -2.7290   -0.6249 C   0  0  1  0  0  0  0  0  0  0  0  0
    2.0168   -3.4174    0.5102 O   0  0  0  0  0  0  0  0  0  0  0  0
    0.5951   -1.7540   -0.2974 C   0  0  0  0  0  0  0  0  0  0  0  0
    1.1820   -1.0150    0.7176 O   0  0  0  0  0  0  0  0  0  0  0  0
    1.6906    0.1755    0.0934 C   0  0  1  0  0  0  0  0  0  0  0  0
    2.6030    0.7094    1.2084 C   0  0  0  0  0  0  0  0  0  0  0  0
    0.4978    1.0172    0.0421 N   0  0  0  0  0  0  0  0  0  0  0  0
    0.5344    2.3766    0.0736 C   0  0  0  0  0  0  0  0  0  0  0  0
    1.5135    3.3452    0.0205 C   0  0  0  0  0  0  0  0  0  0  0  0
    1.2482    4.6956    0.0676 C   0  0  0  0  0  0  0  0  0  0  0  0
   -0.0472    5.1577    0.1726 C   0  0  0  0  0  0  0  0  0  0  0  0
   -1.0447    4.2362    0.2271 C   0  0  0  0  0  0  0  0  0  0  0  0
   -0.7621    2.8918    0.1789 C   0  0  0  0  0  0  0  0  0  0  0  0
   -1.6034    1.8359    0.2073 C   0  0  0  0  0  0  0  0  0  0  0  0
   -2.9737    1.6378    0.3331 C   0  0  0  0  0  0  0  0  0  0  0  0
   -4.0312    2.6664    0.4509 C   0  0  0  0  0  0  0  0  0  0  0  0
   -5.2578    1.9338    0.5567 N   0  0  0  0  0  0  0  0  0  0  0  0
   -4.9854    0.5117    0.5049 C   0  0  0  0  0  0  0  0  0  0  0  0
   -5.9031   -0.3143    0.5777 O   0  0  0  0  0  0  0  0  0  0  0  0
   -3.5721    0.3780    0.3673 C   0  0  0  0  0  0  0  0  0  0  0  0
   -2.7684   -0.7489    0.2670 C   0  0  0  0  0  0  0  0  0  0  0  0
   -2.9536   -2.0910    0.2053 C   0  0  0  0  0  0  0  0  0  0  0  0
   -4.0661   -2.8882    0.2768 C   0  0  0  0  0  0  0  0  0  0  0  0
   -3.8884   -4.2643    0.1705 C   0  0  0  0  0  0  0  0  0  0  0  0
   -2.6565   -4.8548   -0.0016 C   0  0  0  0  0  0  0  0  0  0  0  0
   -1.5252   -4.0475   -0.0744 C   0  0  0  0  0  0  0  0  0  0  0  0
   -1.7140   -2.6986    0.0315 C   0  0  0  0  0  0  0  0  0  0  0  0
   -0.7900   -1.7476   -0.0105 N   0  0  0  0  0  0  0  0  0  0  0  0
   -1.4148   -0.5241    0.1426 C   0  0  0  0  0  0  0  0  0  0  0  0
   -0.8273    0.7316    0.1185 C   0  0  0  0  0  0  0  0  0  0  0  0
    6.2170    0.7526    0.5623 H   0  0  0  0  0  0  0  0  0  0  0  0
    6.6664   -0.9121    0.1543 H   0  0  0  0  0  0  0  0  0  0  0  0
    6.5066    0.3553   -1.1711 H   0  0  0  0  0  0  0  0  0  0  0  0
    1.9483    0.0122   -2.0428 H   0  0  0  0  0  0  0  0  0  0  0  0
    3.5822   -2.1189   -0.6153 H   0  0  0  0  0  0  0  0  0  0  0  0
    2.8607   -2.0343   -2.2257 H   0  0  0  0  0  0  0  0  0  0  0  0
    1.3437   -3.4806   -1.4221 H   0  0  0  0  0  0  0  0  0  0  0  0
    2.2796   -4.3383    0.2513 H   0  0  0  0  0  0  0  0  0  0  0  0
    0.5590   -1.1541   -1.3162 H   0  0  0  0  0  0  0  0  0  0  0  0
    2.9233   -0.1312    1.8914 H   0  0  0  0  0  0  0  0  0  0  0  0
    1.9858    1.3648    1.8546 H   0  0  0  0  0  0  0  0  0  0  0  0
    3.4782    1.2311    0.8757 H   0  0  0  0  0  0  0  0  0  0  0  0
    2.5288    3.0448   -0.0752 H   0  0  0  0  0  0  0  0  0  0  0  0
    2.0703    5.4199    0.0217 H   0  0  0  0  0  0  0  0  0  0  0  0
   -0.1904    6.2239    0.2051 H   0  0  0  0  0  0  0  0  0  0  0  0
   -2.0741    4.6003    0.3102 H   0  0  0  0  0  0  0  0  0  0  0  0
   -3.9155    3.2849    1.3696 H   0  0  0  0  0  0  0  0  0  0  0  0
   -4.1048    3.3073   -0.4629 H   0  0  0  0  0  0  0  0  0  0  0  0
   -6.1988    2.3906    0.6562 H   0  0  0  0  0  0  0  0  0  0  0  0
   -5.0585   -2.5160    0.4103 H   0  0  0  0  0  0  0  0  0  0  0  0
   -4.7930   -4.8810    0.2306 H   0  0  0  0  0  0  0  0  0  0  0  0
   -2.5326   -5.9188   -0.0823 H   0  0  0  0  0  0  0  0  0  0  0  0
   -0.5398   -4.4552   -0.2110 H   0  0  0  0  0  0  0  0  0  0  0  0
  1  2  1  0
  2  3  1  0
  3  4  2  0
  3  5  1  0
  5  6  1  0
  6  7  1  0
  7  8  1  0
  7  9  1  0
  9 10  1  0
 10 11  1  0
 11 12  1  1
 11 13  1  0
 13 14  1  0
 14 15  2  0
 15 16  1  0
 16 17  2  0
 17 18  1  0
 18 19  2  0
 19 20  1  0
 20 21  2  0
 21 22  1  0
 22 23  1  0
 23 24  1  0
 24 25  2  0
 24 26  1  0
 26 27  2  0
 27 28  1  0
 28 29  2  0
 29 30  1  0
 30 31  2  0
 31 32  1  0
 32 33  2  0
 33 34  1  0
 34 35  1  0
 35 36  2  0
 11  5  1  0
 36 13  1  0
 34  9  1  0
 19 14  1  0
 36 20  1  0
 26 21  1  0
 35 27  1  0
 33 28  1  0
  1 37  1  0
  1 38  1  0
  1 39  1  0
  5 40  1  6
  6 41  1  0
  6 42  1  0
  7 43  1  6
  8 44  1  0
  9 45  1  0
 12 46  1  0
 12 47  1  0
 12 48  1  0
 15 49  1  0
 16 50  1  0
 17 51  1  0
 18 52  1  0
 22 53  1  0
 22 54  1  0
 23 55  1  0
 29 56  1  0
 30 57  1  0
 31 58  1  0
 32 59  1  0
M  END
$$$$
[H]OC([H])([H])[C@@]1(O[H])C([H])([H])[C@@]2([H])O[C@]1(C([H])([H])[H])n1c3c([H])c([H])c([H])c([H])c3c3c4c(c5c6c([H])c([H])c([H])c([H])c6n2c5c31)C(=O)N([H])C4([H])[H]
     RDKit          3D

 54 61  0  0  0  0  0  0  0  0999 V2000
    3.1800    0.8838    1.3878 C   0  0  0  0  0  0  0  0  0  0  0  0
    2.1176    0.2237    0.5774 C   0  0  2  0  0  0  0  0  0  0  0  0
    1.6968   -0.7870    1.4854 O   0  0  0  0  0  0  0  0  0  0  0  0
    1.2511   -1.8639    0.7986 C   0  0  2  0  0  0  0  0  0  0  0  0
    2.0328   -1.9517   -0.4419 C   0  0  0  0  0  0  0  0  0  0  0  0
    2.6347   -0.5714   -0.5849 C   0  0  1  0  0  0  0  0  0  0  0  0
    2.2138   -0.0799   -1.8115 O   0  0  0  0  0  0  0  0  0  0  0  0
    4.1191   -0.7109   -0.6110 C   0  0  0  0  0  0  0  0  0  0  0  0
    4.4589   -1.5975   -1.6334 O   0  0  0  0  0  0  0  0  0  0  0  0
   -0.2014   -1.7853    0.5955 N   0  0  0  0  0  0  0  0  0  0  0  0
   -1.1044   -2.7499    0.6347 C   0  0  0  0  0  0  0  0  0  0  0  0
   -0.9179   -4.0868    0.8734 C   0  0  0  0  0  0  0  0  0  0  0  0
   -2.0299   -4.9199    0.8648 C   0  0  0  0  0  0  0  0  0  0  0  0
   -3.2823   -4.4161    0.6235 C   0  0  0  0  0  0  0  0  0  0  0  0
   -3.4758   -3.0511    0.3794 C   0  0  0  0  0  0  0  0  0  0  0  0
   -2.3768   -2.2421    0.3902 C   0  0  0  0  0  0  0  0  0  0  0  0
   -2.2053   -0.8905    0.1945 C   0  0  0  0  0  0  0  0  0  0  0  0
   -3.0670    0.1511   -0.0975 C   0  0  0  0  0  0  0  0  0  0  0  0
   -4.5001    0.2660   -0.2996 C   0  0  0  0  0  0  0  0  0  0  0  0
   -5.3884   -0.5871   -0.2658 O   0  0  0  0  0  0  0  0  0  0  0  0
   -4.7851    1.6416   -0.5724 N   0  0  0  0  0  0  0  0  0  0  0  0
   -3.5735    2.4248   -0.5610 C   0  0  0  0  0  0  0  0  0  0  0  0
   -2.5314    1.4168   -0.2472 C   0  0  0  0  0  0  0  0  0  0  0  0
   -1.1701    1.6669   -0.1133 C   0  0  0  0  0  0  0  0  0  0  0  0
   -0.3770    2.7657   -0.2198 C   0  0  0  0  0  0  0  0  0  0  0  0
   -0.7006    4.0705   -0.5126 C   0  0  0  0  0  0  0  0  0  0  0  0
    0.3203    5.0230   -0.5829 C   0  0  0  0  0  0  0  0  0  0  0  0
    1.6233    4.6180   -0.3553 C   0  0  0  0  0  0  0  0  0  0  0  0
    1.9232    3.2989   -0.0625 C   0  0  0  0  0  0  0  0  0  0  0  0
    0.9354    2.3466    0.0129 C   0  0  0  0  0  0  0  0  0  0  0  0
    0.9590    1.0103    0.2643 N   0  0  0  0  0  0  0  0  0  0  0  0
   -0.3578    0.6223    0.1746 C   0  0  0  0  0  0  0  0  0  0  0  0
   -0.8544   -0.6533    0.3299 C   0  0  0  0  0  0  0  0  0  0  0  0
    4.0624    1.2462    0.8471 H   0  0  0  0  0  0  0  0  0  0  0  0
    3.5596    0.1949    2.1815 H   0  0  0  0  0  0  0  0  0  0  0  0
    2.7312    1.7230    1.9466 H   0  0  0  0  0  0  0  0  0  0  0  0
    1.4219   -2.7643    1.4120 H   0  0  0  0  0  0  0  0  0  0  0  0
    1.4720   -2.2700   -1.3403 H   0  0  0  0  0  0  0  0  0  0  0  0
    2.8377   -2.7359   -0.3258 H   0  0  0  0  0  0  0  0  0  0  0  0
    2.8799   -0.3390   -2.4928 H   0  0  0  0  0  0  0  0  0  0  0  0
    4.5238   -1.1579    0.3296 H   0  0  0  0  0  0  0  0  0  0  0  0
    4.6358    0.2581   -0.8438 H   0  0  0  0  0  0  0  0  0  0  0  0
    4.7979   -2.4633   -1.2908 H   0  0  0  0  0  0  0  0  0  0  0  0
    0.0592   -4.4684    1.0598 H   0  0  0  0  0  0  0  0  0  0  0  0
   -1.8569   -5.9719    1.0560 H   0  0  0  0  0  0  0  0  0  0  0  0
   -4.1224   -5.0759    0.6219 H   0  0  0  0  0  0  0  0  0  0  0  0
   -4.4721   -2.7398    0.2018 H   0  0  0  0  0  0  0  0  0  0  0  0
   -5.7336    2.0654   -0.7610 H   0  0  0  0  0  0  0  0  0  0  0  0
   -3.6366    3.2333    0.1993 H   0  0  0  0  0  0  0  0  0  0  0  0
   -3.3846    2.8954   -1.5673 H   0  0  0  0  0  0  0  0  0  0  0  0
   -1.7294    4.3700   -0.6881 H   0  0  0  0  0  0  0  0  0  0  0  0
    0.0587    6.0490   -0.8135 H   0  0  0  0  0  0  0  0  0  0  0  0
    2.3774    5.3965   -0.4223 H   0  0  0  0  0  0  0  0  0  0  0  0
    2.9510    3.0689    0.0761 H   0  0  0  0  0  0  0  0  0  0  0  0
  2  1  1  1
  2  3  1  0
  3  4  1  0
  4  5  1  0
  5  6  1  0
  6  7  1  6
  6  8  1  0
  8  9  1  0
  4 10  1  0
 10 11  1  0
 11 12  2  0
 12 13  1  0
 13 14  2  0
 14 15  1  0
 15 16  2  0
 16 17  1  0
 17 18  2  0
 18 19  1  0
 19 20  2  0
 19 21  1  0
 21 22  1  0
 22 23  1  0
 23 24  2  0
 24 25  1  0
 25 26  2  0
 26 27  1  0
 27 28  2  0
 28 29  1  0
 29 30  2  0
 30 31  1  0
 31 32  1  0
 32 33  2  0
  6  2  1  0
 33 10  1  0
 31  2  1  0
 16 11  1  0
 33 17  1  0
 23 18  1  0
 32 24  1  0
 30 25  1  0
  1 34  1  0
  1 35  1  0
  1 36  1  0
  4 37  1  1
  5 38  1  0
  5 39  1  0
  7 40  1  0
  8 41  1  0
  8 42  1  0
  9 43  1  0
 12 44  1  0
 13 45  1  0
 14 46  1  0
 15 47  1  0
 21 48  1  0
 22 49  1  0
 22 50  1  0
 26 51  1  0
 27 52  1  0
 28 53  1  0
 29 54  1  0
M  END
$$$$
[H]c1c([H])c([H])c2c(c1[H])c1c3c(c4c5c([H])c([H])c([H])c([H])c5n([H])c4c1c(=O)n2[H])C([H])([H])N([H])C3=O
     RDKit          3D

 39 44  0  0  0  0  0  0  0  0999 V2000
   -1.4049   -2.7277   -1.5065 O   0  0  0  0  0  0  0  0  0  0  0  0
   -1.7724   -1.6251   -1.0050 C   0  0  0  0  0  0  0  0  0  0  0  0
   -3.0597   -1.2957   -0.9771 N   0  0  0  0  0  0  0  0  0  0  0  0
   -3.4604   -0.1256   -0.4574 C   0  0  0  0  0  0  0  0  0  0  0  0
   -4.7839    0.2383   -0.5692 C   0  0  0  0  0  0  0  0  0  0  0  0
   -5.2313    1.4799   -0.1871 C   0  0  0  0  0  0  0  0  0  0  0  0
   -4.3078    2.3585    0.3105 C   0  0  0  0  0  0  0  0  0  0  0  0
   -2.9651    2.0046    0.4340 C   0  0  0  0  0  0  0  0  0  0  0  0
   -2.5319    0.7718    0.0718 C   0  0  0  0  0  0  0  0  0  0  0  0
   -1.2053    0.4358    0.0663 C   0  0  0  0  0  0  0  0  0  0  0  0
   -0.2428    1.2601    0.6450 C   0  0  0  0  0  0  0  0  0  0  0  0
   -0.3738    2.3044    1.6500 C   0  0  0  0  0  0  0  0  0  0  0  0
   -1.2493    3.0111    2.1536 O   0  0  0  0  0  0  0  0  0  0  0  0
    0.9621    2.5006    2.1758 N   0  0  0  0  0  0  0  0  0  0  0  0
    1.8870    1.9444    1.2213 C   0  0  0  0  0  0  0  0  0  0  0  0
    1.1003    0.8557    0.5965 C   0  0  0  0  0  0  0  0  0  0  0  0
    1.4861   -0.3360    0.0152 C   0  0  0  0  0  0  0  0  0  0  0  0
    2.7098   -0.9270   -0.1599 C   0  0  0  0  0  0  0  0  0  0  0  0
    3.9999   -0.5663    0.1612 C   0  0  0  0  0  0  0  0  0  0  0  0
    5.0328   -1.4153   -0.1742 C   0  0  0  0  0  0  0  0  0  0  0  0
    4.8275   -2.6135   -0.8199 C   0  0  0  0  0  0  0  0  0  0  0  0
    3.5297   -2.9519   -1.1309 C   0  0  0  0  0  0  0  0  0  0  0  0
    2.4557   -2.1366   -0.8172 C   0  0  0  0  0  0  0  0  0  0  0  0
    1.1096   -2.2601   -1.0292 N   0  0  0  0  0  0  0  0  0  0  0  0
    0.5285   -1.1635   -0.5219 C   0  0  0  0  0  0  0  0  0  0  0  0
   -0.7938   -0.7976   -0.4984 C   0  0  0  0  0  0  0  0  0  0  0  0
   -3.7623   -1.9380   -1.3524 H   0  0  0  0  0  0  0  0  0  0  0  0
   -5.4780   -0.4883   -0.9722 H   0  0  0  0  0  0  0  0  0  0  0  0
   -6.2731    1.7524   -0.2748 H   0  0  0  0  0  0  0  0  0  0  0  0
   -4.6111    3.3470    0.6176 H   0  0  0  0  0  0  0  0  0  0  0  0
   -2.3104    2.8236    0.6567 H   0  0  0  0  0  0  0  0  0  0  0  0
    1.2407    2.9507    3.0672 H   0  0  0  0  0  0  0  0  0  0  0  0
    2.0460    2.7284    0.4361 H   0  0  0  0  0  0  0  0  0  0  0  0
    2.8304    1.6668    1.6737 H   0  0  0  0  0  0  0  0  0  0  0  0
    4.2442    0.3486    0.6532 H   0  0  0  0  0  0  0  0  0  0  0  0
    6.0479   -1.1509    0.0688 H   0  0  0  0  0  0  0  0  0  0  0  0
    5.6433   -3.2650   -1.0748 H   0  0  0  0  0  0  0  0  0  0  0  0
    3.3715   -3.8905   -1.6366 H   0  0  0  0  0  0  0  0  0  0  0  0
    0.7645   -3.1080   -1.5097 H   0  0  0  0  0  0  0  0  0  0  0  0
  1  2  2  0
  2  3  1  0
  3  4  1  0
  4  5  2  0
  5  6  1  0
  6  7  2  0
  7  8  1  0
  8  9  2  0
  9 10  1  0
 10 11  2  0
 11 12  1  0
 12 13  2  0
 12 14  1  0
 14 15  1  0
 15 16  1  0
 16 17  2  0
 17 18  1  0
 18 19  2  0
 19 20  1  0
 20 21  2  0
 21 22  1  0
 22 23  2  0
 23 24  1  0
 24 25  1  0
 25 26  2  0
 26  2  1  0
  9  4  1  0
 26 10  1  0
 16 11  1  0
 25 17  1  0
 23 18  1  0
  3 27  1  0
  5 28  1  0
  6 29  1  0
  7 30  1  0
  8 31  1  0
 14 32  1  0
 15 33  1  0
 15 34  1  0
 19 35  1  0
 20 36  1  0
 21 37  1  0
 22 38  1  0
 24 39  1  0
M  END
$$$$
[H]C1=C(c2c([H])c(C3([H])C([H])([H])C([H])([H])N(C([H])([H])C([H])([H])[H])C([H])([H])C3([H])[H])c([H])c([H])c2N([H])C(=O)c2nc([H])c(C#N)n2[H])C([H])([H])C([H])([H])C([H])([H])C1([H])[H]
     RDKit          3D

 59 62  0  0  0  0  0  0  0  0999 V2000
    6.9912    1.1911    0.4993 C   0  0  0  0  0  0  0  0  0  0  0  0
    6.5471   -0.1904    0.9676 C   0  0  0  0  0  0  0  0  0  0  0  0
    5.0834   -0.1977    1.0949 N   0  0  0  0  0  0  0  0  0  0  0  0
    4.5205   -0.0876   -0.2231 C   0  0  0  0  0  0  0  0  0  0  0  0
    3.5546   -1.1776   -0.5418 C   0  0  0  0  0  0  0  0  0  0  0  0
    2.5998   -1.5196    0.5723 C   0  0  0  0  0  0  0  0  0  0  0  0
    3.2233   -1.4394    1.9407 C   0  0  0  0  0  0  0  0  0  0  0  0
    4.7193   -1.4350    1.7659 C   0  0  0  0  0  0  0  0  0  0  0  0
    1.3324   -0.7322    0.4662 C   0  0  0  0  0  0  0  0  0  0  0  0
    1.3206    0.6012    0.7673 C   0  0  0  0  0  0  0  0  0  0  0  0
    0.1518    1.3452    0.6685 C   0  0  0  0  0  0  0  0  0  0  0  0
   -1.0584    0.7676    0.2582 C   0  0  0  0  0  0  0  0  0  0  0  0
   -2.2547    1.4965    0.3065 N   0  0  0  0  0  0  0  0  0  0  0  0
   -2.4108    2.8846    0.2548 C   0  0  0  0  0  0  0  0  0  0  0  0
   -1.4622    3.6894    0.1449 O   0  0  0  0  0  0  0  0  0  0  0  0
   -3.7508    3.5068    0.3293 C   0  0  0  0  0  0  0  0  0  0  0  0
   -3.9855    4.8138    0.2786 N   0  0  0  0  0  0  0  0  0  0  0  0
   -5.3076    5.0578    0.3727 C   0  0  0  0  0  0  0  0  0  0  0  0
   -5.9201    3.8409    0.4872 C   0  0  0  0  0  0  0  0  0  0  0  0
   -4.9325    2.9049    0.4570 N   0  0  0  0  0  0  0  0  0  0  0  0
   -7.3223    3.5930    0.6144 C   0  0  0  0  0  0  0  0  0  0  0  0
   -8.4446    3.3998    0.7179 N   0  0  0  0  0  0  0  0  0  0  0  0
   -1.0634   -0.5957   -0.0580 C   0  0  0  0  0  0  0  0  0  0  0  0
    0.1518   -1.2930    0.0649 C   0  0  0  0  0  0  0  0  0  0  0  0
   -2.1869   -1.3040   -0.6447 C   0  0  0  0  0  0  0  0  0  0  0  0
   -2.2598   -2.6463   -0.6156 C   0  0  0  0  0  0  0  0  0  0  0  0
   -3.3657   -3.4299   -1.1904 C   0  0  0  0  0  0  0  0  0  0  0  0
   -4.2746   -2.7018   -2.1088 C   0  0  0  0  0  0  0  0  0  0  0  0
   -3.5575   -1.4939   -2.6657 C   0  0  0  0  0  0  0  0  0  0  0  0
   -3.2762   -0.6126   -1.4170 C   0  0  0  0  0  0  0  0  0  0  0  0
    6.2590    1.9160    0.9029 H   0  0  0  0  0  0  0  0  0  0  0  0
    7.0112    1.2374   -0.6201 H   0  0  0  0  0  0  0  0  0  0  0  0
    8.0297    1.3691    0.8452 H   0  0  0  0  0  0  0  0  0  0  0  0
    7.0131   -0.4442    1.9224 H   0  0  0  0  0  0  0  0  0  0  0  0
    6.8359   -0.9304    0.1988 H   0  0  0  0  0  0  0  0  0  0  0  0
    5.3329   -0.1508   -1.0078 H   0  0  0  0  0  0  0  0  0  0  0  0
    4.0496    0.8989   -0.4030 H   0  0  0  0  0  0  0  0  0  0  0  0
    2.9806   -0.9344   -1.4476 H   0  0  0  0  0  0  0  0  0  0  0  0
    4.1684   -2.0913   -0.7676 H   0  0  0  0  0  0  0  0  0  0  0  0
    2.3328   -2.6064    0.4031 H   0  0  0  0  0  0  0  0  0  0  0  0
    2.8995   -0.5225    2.4813 H   0  0  0  0  0  0  0  0  0  0  0  0
    2.9712   -2.2865    2.5906 H   0  0  0  0  0  0  0  0  0  0  0  0
    5.1998   -1.3752    2.7800 H   0  0  0  0  0  0  0  0  0  0  0  0
    5.0471   -2.3097    1.1969 H   0  0  0  0  0  0  0  0  0  0  0  0
    2.2023    1.1513    1.0958 H   0  0  0  0  0  0  0  0  0  0  0  0
    0.1630    2.3971    0.9267 H   0  0  0  0  0  0  0  0  0  0  0  0
   -3.1542    0.9489    0.4519 H   0  0  0  0  0  0  0  0  0  0  0  0
   -5.8178    6.0091    0.3626 H   0  0  0  0  0  0  0  0  0  0  0  0
   -5.0705    1.8755    0.5234 H   0  0  0  0  0  0  0  0  0  0  0  0
    0.1890   -2.3427   -0.1779 H   0  0  0  0  0  0  0  0  0  0  0  0
   -1.4810   -3.1931   -0.1363 H   0  0  0  0  0  0  0  0  0  0  0  0
   -3.8867   -3.9401   -0.3522 H   0  0  0  0  0  0  0  0  0  0  0  0
   -2.8814   -4.2595   -1.7839 H   0  0  0  0  0  0  0  0  0  0  0  0
   -5.1463   -2.3225   -1.5152 H   0  0  0  0  0  0  0  0  0  0  0  0
   -4.6226   -3.3868   -2.9079 H   0  0  0  0  0  0  0  0  0  0  0  0
   -4.2091   -0.9076   -3.3172 H   0  0  0  0  0  0  0  0  0  0  0  0
   -2.5767   -1.7573   -3.0995 H   0  0  0  0  0  0  0  0  0  0  0  0
   -4.2404   -0.6207   -0.8841 H   0  0  0  0  0  0  0  0  0  0  0  0
   -2.9603    0.3427   -1.8258 H   0  0  0  0  0  0  0  0  0  0  0  0
  1  2  1  0
  2  3  1  0
  3  4  1  0
  4  5  1  0
  5  6  1  0
  6  7  1  0
  7  8  1  0
  6  9  1  0
  9 10  2  0
 10 11  1  0
 11 12  2  0
 12 13  1  0
 13 14  1  0
 14 15  2  0
 14 16  1  0
 16 17  2  0
 17 18  1  0
 18 19  2  0
 19 20  1  0
 19 21  1  0
 21 22  3  0
 12 23  1  0
 23 24  2  0
 23 25  1  0
 25 26  2  0
 26 27  1  0
 27 28  1  0
 28 29  1  0
 29 30  1  0
  8  3  1  0
 24  9  1  0
 30 25  1  0
 20 16  1  0
  1 31  1  0
  1 32  1  0
  1 33  1  0
  2 34  1  0
  2 35  1  0
  4 36  1  0
  4 37  1  0
  5 38  1  0
  5 39  1  0
  6 40  1  0
  7 41  1  0
  7 42  1  0
  8 43  1  0
  8 44  1  0
 10 45  1  0
 11 46  1  0
 13 47  1  0
 18 48  1  0
 20 49  1  0
 24 50  1  0
 26 51  1  0
 27 52  1  0
 27 53  1  0
 28 54  1  0
 28 55  1  0
 29 56  1  0
 29 57  1  0
 30 58  1  0
 30 59  1  0
M  END
$$$$
