[H]c1c([H])c([H])c2c(c1[H])c1c3c(c4c5c([H])c([H])c([H])c([H])c5n5c4c1n2[C@@]1([H])O[C@]5(C([H])([H])[H])[C@@]([H])(OC([H])([H])[H])[C@@]([H])(N([H])C([H])([H])[H])C1([H])[H])C([H])([H])N([H])C3=O
     RDKit          3D

 61 68  0  0  0  0  0  0  0  0999 V2000
   -2.5900    1.1246    2.6909 C   0  0  0  0  0  0  0  0  0  0  0  0
   -2.2701    0.1494    1.6691 N   0  0  0  0  0  0  0  0  0  0  0  0
   -2.7037    0.7256    0.3894 C   0  0  1  0  0  0  0  0  0  0  0  0
   -1.9693    1.9591    0.0600 C   0  0  0  0  0  0  0  0  0  0  0  0
   -1.0374    1.8542   -1.1025 C   0  0  2  0  0  0  0  0  0  0  0  0
   -1.1108    0.8211   -1.8978 O   0  0  0  0  0  0  0  0  0  0  0  0
   -1.4719   -0.4453   -1.4993 C   0  0  2  0  0  0  0  0  0  0  0  0
   -1.8587   -1.0747   -2.8537 C   0  0  0  0  0  0  0  0  0  0  0  0
   -2.6627   -0.3659   -0.6565 C   0  0  1  0  0  0  0  0  0  0  0  0
   -3.0555   -1.5061    0.0270 O   0  0  0  0  0  0  0  0  0  0  0  0
   -4.3079   -1.9695   -0.2639 C   0  0  0  0  0  0  0  0  0  0  0  0
   -0.3020   -1.1026   -0.9411 N   0  0  0  0  0  0  0  0  0  0  0  0
   -0.0368   -2.4107   -0.8661 C   0  0  0  0  0  0  0  0  0  0  0  0
   -0.7505   -3.5118   -1.2342 C   0  0  0  0  0  0  0  0  0  0  0  0
   -0.2313   -4.7829   -1.0386 C   0  0  0  0  0  0  0  0  0  0  0  0
    1.0025   -5.0019   -0.4761 C   0  0  0  0  0  0  0  0  0  0  0  0
    1.7444   -3.8826   -0.0939 C   0  0  0  0  0  0  0  0  0  0  0  0
    1.2038   -2.6348   -0.3003 C   0  0  0  0  0  0  0  0  0  0  0  0
    1.7282   -1.3877   -0.0109 C   0  0  0  0  0  0  0  0  0  0  0  0
    2.9250   -0.9637    0.5498 C   0  0  0  0  0  0  0  0  0  0  0  0
    4.0703   -1.7821    1.0519 C   0  0  0  0  0  0  0  0  0  0  0  0
    5.0490   -0.8360    1.5052 N   0  0  0  0  0  0  0  0  0  0  0  0
    4.5511    0.4878    1.3292 C   0  0  0  0  0  0  0  0  0  0  0  0
    5.2116    1.4752    1.6612 O   0  0  0  0  0  0  0  0  0  0  0  0
    3.2325    0.3685    0.7340 C   0  0  0  0  0  0  0  0  0  0  0  0
    2.2736    1.2731    0.3281 C   0  0  0  0  0  0  0  0  0  0  0  0
    2.1943    2.6494    0.3519 C   0  0  0  0  0  0  0  0  0  0  0  0
    3.0346    3.6410    0.7719 C   0  0  0  0  0  0  0  0  0  0  0  0
    2.6237    4.9672    0.6424 C   0  0  0  0  0  0  0  0  0  0  0  0
    1.4040    5.3207    0.1079 C   0  0  0  0  0  0  0  0  0  0  0  0
    0.5569    4.3176   -0.3154 C   0  0  0  0  0  0  0  0  0  0  0  0
    0.9564    3.0255   -0.1896 C   0  0  0  0  0  0  0  0  0  0  0  0
    0.3179    1.9031   -0.5262 N   0  0  0  0  0  0  0  0  0  0  0  0
    1.0813    0.8475   -0.2300 C   0  0  0  0  0  0  0  0  0  0  0  0
    0.8029   -0.4946   -0.4048 C   0  0  0  0  0  0  0  0  0  0  0  0
   -1.7275    1.7656    2.9459 H   0  0  0  0  0  0  0  0  0  0  0  0
   -3.4000    1.7830    2.2910 H   0  0  0  0  0  0  0  0  0  0  0  0
   -3.0290    0.6437    3.5924 H   0  0  0  0  0  0  0  0  0  0  0  0
   -2.7602   -0.7186    1.9035 H   0  0  0  0  0  0  0  0  0  0  0  0
   -3.7998    0.9480    0.5957 H   0  0  0  0  0  0  0  0  0  0  0  0
   -1.4594    2.3204    1.0029 H   0  0  0  0  0  0  0  0  0  0  0  0
   -2.7065    2.7776   -0.1658 H   0  0  0  0  0  0  0  0  0  0  0  0
   -1.0912    2.7965   -1.7221 H   0  0  0  0  0  0  0  0  0  0  0  0
   -2.0056   -0.3257   -3.6573 H   0  0  0  0  0  0  0  0  0  0  0  0
   -1.0068   -1.6950   -3.1940 H   0  0  0  0  0  0  0  0  0  0  0  0
   -2.8277   -1.6039   -2.8044 H   0  0  0  0  0  0  0  0  0  0  0  0
   -3.5358   -0.1252   -1.3381 H   0  0  0  0  0  0  0  0  0  0  0  0
   -4.4650   -2.8889    0.3782 H   0  0  0  0  0  0  0  0  0  0  0  0
   -4.4865   -2.3125   -1.2897 H   0  0  0  0  0  0  0  0  0  0  0  0
   -5.1216   -1.2643    0.0633 H   0  0  0  0  0  0  0  0  0  0  0  0
   -1.7208   -3.3825   -1.6725 H   0  0  0  0  0  0  0  0  0  0  0  0
   -0.8491   -5.6109   -1.3524 H   0  0  0  0  0  0  0  0  0  0  0  0
    1.4213   -5.9802   -0.3168 H   0  0  0  0  0  0  0  0  0  0  0  0
    2.7206   -4.0420    0.3513 H   0  0  0  0  0  0  0  0  0  0  0  0
    3.7648   -2.4865    1.8473 H   0  0  0  0  0  0  0  0  0  0  0  0
    4.5351   -2.3717    0.2322 H   0  0  0  0  0  0  0  0  0  0  0  0
    5.9960   -1.0989    1.9084 H   0  0  0  0  0  0  0  0  0  0  0  0
    3.9823    3.4684    1.1903 H   0  0  0  0  0  0  0  0  0  0  0  0
    3.2909    5.7541    0.9750 H   0  0  0  0  0  0  0  0  0  0  0  0
    1.0902    6.3566    0.0099 H   0  0  0  0  0  0  0  0  0  0  0  0
   -0.4140    4.5350   -0.7434 H   0  0  0  0  0  0  0  0  0  0  0  0
  1  2  1  0
  2  3  1  0
  3  4  1  0
  4  5  1  0
  5  6  1  0
  6  7  1  0
  7  8  1  6
  7  9  1  0
  9 10  1  0
 10 11  1  0
  7 12  1  0
 12 13  1  0
 13 14  2  0
 14 15  1  0
 15 16  2  0
 16 17  1  0
 17 18  2  0
 18 19  1  0
 19 20  2  0
 20 21  1  0
 21 22  1  0
 22 23  1  0
 23 24  2  0
 23 25  1  0
 25 26  2  0
 26 27  1  0
 27 28  2  0
 28 29  1  0
 29 30  2  0
 30 31  1  0
 31 32  2  0
 32 33  1  0
 33 34  1  0
 34 35  2  0
  9  3  1  0
 35 12  1  0
 33  5  1  0
 18 13  1  0
 35 19  1  0
 25 20  1  0
 34 26  1  0
 32 27  1  0
  1 36  1  0
  1 37  1  0
  1 38  1  0
  2 39  1  0
  3 40  1  1
  4 41  1  0
  4 42  1  0
  5 43  1  6
  8 44  1  0
  8 45  1  0
  8 46  1  0
  9 47  1  6
 11 48  1  0
 11 49  1  0
 11 50  1  0
 14 51  1  0
 15 52  1  0
 16 53  1  0
 17 54  1  0
 21 55  1  0
 21 56  1  0
 22 57  1  0
 28 58  1  0
 29 59  1  0
 30 60  1  0
 31 61  1  0
M  END
$$$$
[H]OC([H])([H])[C@@]1(O[H])C([H])([H])[C@@]2([H])O[C@]1(C([H])([H])[H])n1c3c([H])c([H])c([H])c([H])c3c3c4c(c5c6c([H])c([H])c([H])c([H])c6n2c5c31)C(=O)N([H])C4([H])[H]
     RDKit          3D

 54 61  0  0  0  0  0  0  0  0999 V2000
    3.1800    0.8838    1.3878 C   0  0  0  0  0  0  0  0  0  0  0  0
    2.1176    0.2237    0.5774 C   0  0  2  0  0  0  0  0  0  0  0  0
    1.6968   -0.7870    1.4854 O   0  0  0  0  0  0  0  0  0  0  0  0
    1.2511   -1.8639    0.7986 C   0  0  2  0  0  0  0  0  0  0  0  0
    2.0328   -1.9517   -0.4419 C   0  0  0  0  0  0  0  0  0  0  0  0
    2.6347   -0.5714   -0.5849 C   0  0  1  0  0  0  0  0  0  0  0  0
    2.2138   -0.0799   -1.8115 O   0  0  0  0  0  0  0  0  0  0  0  0
    4.1191   -0.7109   -0.6110 C   0  0  0  0  0  0  0  0  0  0  0  0
    4.4589   -1.5975   -1.6334 O   0  0  0  0  0  0  0  0  0  0  0  0
   -0.2014   -1.7853    0.5955 N   0  0  0  0  0  0  0  0  0  0  0  0
   -1.1044   -2.7499    0.6347 C   0  0  0  0  0  0  0  0  0  0  0  0
   -0.9179   -4.0868    0.8734 C   0  0  0  0  0  0  0  0  0  0  0  0
   -2.0299   -4.9199    0.8648 C   0  0  0  0  0  0  0  0  0  0  0  0
   -3.2823   -4.4161    0.6235 C   0  0  0  0  0  0  0  0  0  0  0  0
   -3.4758   -3.0511    0.3794 C   0  0  0  0  0  0  0  0  0  0  0  0
   -2.3768   -2.2421    0.3902 C   0  0  0  0  0  0  0  0  0  0  0  0
   -2.2053   -0.8905    0.1945 C   0  0  0  0  0  0  0  0  0  0  0  0
   -3.0670    0.1511   -0.0975 C   0  0  0  0  0  0  0  0  0  0  0  0
   -4.5001    0.2660   -0.2996 C   0  0  0  0  0  0  0  0  0  0  0  0
   -5.3884   -0.5871   -0.2658 O   0  0  0  0  0  0  0  0  0  0  0  0
   -4.7851    1.6416   -0.5724 N   0  0  0  0  0  0  0  0  0  0  0  0
   -3.5735    2.4248   -0.5610 C   0  0  0  0  0  0  0  0  0  0  0  0
   -2.5314    1.4168   -0.2472 C   0  0  0  0  0  0  0  0  0  0  0  0
   -1.1701    1.6669   -0.1133 C   0  0  0  0  0  0  0  0  0  0  0  0
   -0.3770    2.7657   -0.2198 C   0  0  0  0  0  0  0  0  0  0  0  0
   -0.7006    4.0705   -0.5126 C   0  0  0  0  0  0  0  0  0  0  0  0
    0.3203    5.0230   -0.5829 C   0  0  0  0  0  0  0  0  0  0  0  0
    1.6233    4.6180   -0.3553 C   0  0  0  0  0  0  0  0  0  0  0  0
    1.9232    3.2989   -0.0625 C   0  0  0  0  0  0  0  0  0  0  0  0
    0.9354    2.3466    0.0129 C   0  0  0  0  0  0  0  0  0  0  0  0
    0.9590    1.0103    0.2643 N   0  0  0  0  0  0  0  0  0  0  0  0
   -0.3578    0.6223    0.1746 C   0  0  0  0  0  0  0  0  0  0  0  0
   -0.8544   -0.6533    0.3299 C   0  0  0  0  0  0  0  0  0  0  0  0
    4.0624    1.2462    0.8471 H   0  0  0  0  0  0  0  0  0  0  0  0
    3.5596    0.1949    2.1815 H   0  0  0  0  0  0  0  0  0  0  0  0
    2.7312    1.7230    1.9466 H   0  0  0  0  0  0  0  0  0  0  0  0
    1.4219   -2.7643    1.4120 H   0  0  0  0  0  0  0  0  0  0  0  0
    1.4720   -2.2700   -1.3403 H   0  0  0  0  0  0  0  0  0  0  0  0
    2.8377   -2.7359   -0.3258 H   0  0  0  0  0  0  0  0  0  0  0  0
    2.8799   -0.3390   -2.4928 H   0  0  0  0  0  0  0  0  0  0  0  0
    4.5238   -1.1579    0.3296 H   0  0  0  0  0  0  0  0  0  0  0  0
    4.6358    0.2581   -0.8438 H   0  0  0  0  0  0  0  0  0  0  0  0
    4.7979   -2.4633   -1.2908 H   0  0  0  0  0  0  0  0  0  0  0  0
    0.0592   -4.4684    1.0598 H   0  0  0  0  0  0  0  0  0  0  0  0
   -1.8569   -5.9719    1.0560 H   0  0  0  0  0  0  0  0  0  0  0  0
   -4.1224   -5.0759    0.6219 H   0  0  0  0  0  0  0  0  0  0  0  0
   -4.4721   -2.7398    0.2018 H   0  0  0  0  0  0  0  0  0  0  0  0
   -5.7336    2.0654   -0.7610 H   0  0  0  0  0  0  0  0  0  0  0  0
   -3.6366    3.2333    0.1993 H   0  0  0  0  0  0  0  0  0  0  0  0
   -3.3846    2.8954   -1.5673 H   0  0  0  0  0  0  0  0  0  0  0  0
   -1.7294    4.3700   -0.6881 H   0  0  0  0  0  0  0  0  0  0  0  0
    0.0587    6.0490   -0.8135 H   0  0  0  0  0  0  0  0  0  0  0  0
    2.3774    5.3965   -0.4223 H   0  0  0  0  0  0  0  0  0  0  0  0
    2.9510    3.0689    0.0761 H   0  0  0  0  0  0  0  0  0  0  0  0
  2  1  1  1
  2  3  1  0
  3  4  1  0
  4  5  1  0
  5  6  1  0
  6  7  1  6
  6  8  1  0
  8  9  1  0
  4 10  1  0
 10 11  1  0
 11 12  2  0
 12 13  1  0
 13 14  2  0
 14 15  1  0
 15 16  2  0
 16 17  1  0
 17 18  2  0
 18 19  1  0
 19 20  2  0
 19 21  1  0
 21 22  1  0
 22 23  1  0
 23 24  2  0
 24 25  1  0
 25 26  2  0
 26 27  1  0
 27 28  2  0
 28 29  1  0
 29 30  2  0
 30 31  1  0
 31 32  1  0
 32 33  2  0
  6  2  1  0
 33 10  1  0
 31  2  1  0
 16 11  1  0
 33 17  1  0
 23 18  1  0
 32 24  1  0
 30 25  1  0
  1 34  1  0
  1 35  1  0
  1 36  1  0
  4 37  1  1
  5 38  1  0
  5 39  1  0
  7 40  1  0
  8 41  1  0
  8 42  1  0
  9 43  1  0
 12 44  1  0
 13 45  1  0
 14 46  1  0
 15 47  1  0
 21 48  1  0
 22 49  1  0
 22 50  1  0
 26 51  1  0
 27 52  1  0
 28 53  1  0
 29 54  1  0
M  END
$$$$
[H]c1c([H])c([H])c2c(c1[H])c1c3c(c4c5c([H])c([H])c([H])c([H])c5n5c4c1n2[C@]1([H])O[C@]5(C([H])([H])[H])[C@@]([H])(OC([H])([H])[H])[C@]([H])(N([H])C([H])([H])[H])C1([H])[H])C([H])([H])N([H])C3=O
     RDKit          3D

 61 68  0  0  0  0  0  0  0  0999 V2000
   -5.0032    2.3015   -0.0847 C   0  0  0  0  0  0  0  0  0  0  0  0
   -4.2911    1.1206   -0.5239 N   0  0  0  0  0  0  0  0  0  0  0  0
   -3.1564    0.9314    0.3042 C   0  0  2  0  0  0  0  0  0  0  0  0
   -2.1540    2.1226    0.1663 C   0  0  0  0  0  0  0  0  0  0  0  0
   -0.9665    1.4540   -0.0205 C   0  0  1  0  0  0  0  0  0  0  0  0
   -1.1415    0.7448   -1.1981 O   0  0  0  0  0  0  0  0  0  0  0  0
   -1.4119   -0.5987   -0.7868 C   0  0  2  0  0  0  0  0  0  0  0  0
   -1.8712   -1.2254   -2.1322 C   0  0  0  0  0  0  0  0  0  0  0  0
   -2.4889   -0.4501    0.1598 C   0  0  1  0  0  0  0  0  0  0  0  0
   -2.3890   -1.1153    1.3880 O   0  0  0  0  0  0  0  0  0  0  0  0
   -3.3269   -2.1274    1.5521 C   0  0  0  0  0  0  0  0  0  0  0  0
   -0.1378   -1.2020   -0.4914 N   0  0  0  0  0  0  0  0  0  0  0  0
    0.1616   -2.5344   -0.6109 C   0  0  0  0  0  0  0  0  0  0  0  0
   -0.5901   -3.6465   -0.8619 C   0  0  0  0  0  0  0  0  0  0  0  0
    0.0056   -4.9014   -0.9123 C   0  0  0  0  0  0  0  0  0  0  0  0
    1.3589   -5.0700   -0.7130 C   0  0  0  0  0  0  0  0  0  0  0  0
    2.1437   -3.9569   -0.4556 C   0  0  0  0  0  0  0  0  0  0  0  0
    1.5172   -2.7445   -0.4151 C   0  0  0  0  0  0  0  0  0  0  0  0
    2.0596   -1.5148   -0.1645 C   0  0  0  0  0  0  0  0  0  0  0  0
    3.3310   -1.0167    0.0798 C   0  0  0  0  0  0  0  0  0  0  0  0
    4.6039   -1.7769    0.1721 C   0  0  0  0  0  0  0  0  0  0  0  0
    5.6037   -0.7850    0.4503 N   0  0  0  0  0  0  0  0  0  0  0  0
    5.0034    0.5280    0.5134 C   0  0  0  0  0  0  0  0  0  0  0  0
    5.7188    1.5160    0.7371 O   0  0  0  0  0  0  0  0  0  0  0  0
    3.6006    0.3262    0.2783 C   0  0  0  0  0  0  0  0  0  0  0  0
    2.5644    1.2461    0.2408 C   0  0  0  0  0  0  0  0  0  0  0  0
    2.4247    2.5831    0.4378 C   0  0  0  0  0  0  0  0  0  0  0  0
    3.2960    3.5951    0.7015 C   0  0  0  0  0  0  0  0  0  0  0  0
    2.7602    4.8881    0.8432 C   0  0  0  0  0  0  0  0  0  0  0  0
    1.4157    5.1498    0.7252 C   0  0  0  0  0  0  0  0  0  0  0  0
    0.5372    4.1127    0.4564 C   0  0  0  0  0  0  0  0  0  0  0  0
    1.0796    2.8483    0.3203 C   0  0  0  0  0  0  0  0  0  0  0  0
    0.4024    1.7469    0.0621 N   0  0  0  0  0  0  0  0  0  0  0  0
    1.3106    0.7318   -0.0025 C   0  0  0  0  0  0  0  0  0  0  0  0
    1.0507   -0.6266   -0.2113 C   0  0  0  0  0  0  0  0  0  0  0  0
   -4.4222    3.2206   -0.0758 H   0  0  0  0  0  0  0  0  0  0  0  0
   -5.9751    2.4312   -0.6421 H   0  0  0  0  0  0  0  0  0  0  0  0
   -5.3325    2.1331    0.9827 H   0  0  0  0  0  0  0  0  0  0  0  0
   -4.9231    0.3185   -0.4524 H   0  0  0  0  0  0  0  0  0  0  0  0
   -3.5204    0.9543    1.3717 H   0  0  0  0  0  0  0  0  0  0  0  0
   -2.2319    2.7634    1.0681 H   0  0  0  0  0  0  0  0  0  0  0  0
   -2.5549    2.7584   -0.6810 H   0  0  0  0  0  0  0  0  0  0  0  0
   -1.0177    0.7572    0.9341 H   0  0  0  0  0  0  0  0  0  0  0  0
   -2.1640   -0.4180   -2.8609 H   0  0  0  0  0  0  0  0  0  0  0  0
   -1.0623   -1.7738   -2.6232 H   0  0  0  0  0  0  0  0  0  0  0  0
   -2.8063   -1.7859   -1.9703 H   0  0  0  0  0  0  0  0  0  0  0  0
   -3.3692   -1.0206   -0.3155 H   0  0  0  0  0  0  0  0  0  0  0  0
   -4.3685   -1.7465    1.5031 H   0  0  0  0  0  0  0  0  0  0  0  0
   -3.1360   -2.7642    2.4105 H   0  0  0  0  0  0  0  0  0  0  0  0
   -3.2309   -2.7727    0.6280 H   0  0  0  0  0  0  0  0  0  0  0  0
   -1.6587   -3.5713   -1.0137 H   0  0  0  0  0  0  0  0  0  0  0  0
   -0.5879   -5.7740   -1.1105 H   0  0  0  0  0  0  0  0  0  0  0  0
    1.8233   -6.0462   -0.7522 H   0  0  0  0  0  0  0  0  0  0  0  0
    3.2016   -4.0714   -0.2980 H   0  0  0  0  0  0  0  0  0  0  0  0
    4.5688   -2.4736    1.0276 H   0  0  0  0  0  0  0  0  0  0  0  0
    4.8295   -2.3223   -0.7651 H   0  0  0  0  0  0  0  0  0  0  0  0
    6.6092   -1.0259    0.5823 H   0  0  0  0  0  0  0  0  0  0  0  0
    4.3503    3.4578    0.8021 H   0  0  0  0  0  0  0  0  0  0  0  0
    3.4660    5.6873    1.0540 H   0  0  0  0  0  0  0  0  0  0  0  0
    1.0161    6.1615    0.8387 H   0  0  0  0  0  0  0  0  0  0  0  0
   -0.5241    4.2689    0.3538 H   0  0  0  0  0  0  0  0  0  0  0  0
  1  2  1  0
  2  3  1  0
  3  4  1  0
  4  5  1  0
  5  6  1  0
  6  7  1  0
  7  8  1  6
  7  9  1  0
  9 10  1  0
 10 11  1  0
  7 12  1  0
 12 13  1  0
 13 14  2  0
 14 15  1  0
 15 16  2  0
 16 17  1  0
 17 18  2  0
 18 19  1  0
 19 20  2  0
 20 21  1  0
 21 22  1  0
 22 23  1  0
 23 24  2  0
 23 25  1  0
 25 26  2  0
 26 27  1  0
 27 28  2  0
 28 29  1  0
 29 30  2  0
 30 31  1  0
 31 32  2  0
 32 33  1  0
 33 34  1  0
 34 35  2  0
  9  3  1  0
 35 12  1  0
 33  5  1  0
 18 13  1  0
 35 19  1  0
 25 20  1  0
 34 26  1  0
 32 27  1  0
  1 36  1  0
  1 37  1  0
  1 38  1  0
  2 39  1  0
  3 40  1  1
  4 41  1  0
  4 42  1  0
  5 43  1  1
  8 44  1  0
  8 45  1  0
  8 46  1  0
  9 47  1  6
 11 48  1  0
 11 49  1  0
 11 50  1  0
 14 51  1  0
 15 52  1  0
 16 53  1  0
 17 54  1  0
 21 55  1  0
 21 56  1  0
 22 57  1  0
 28 58  1  0
 29 59  1  0
 30 60  1  0
 31 61  1  0
M  END
$$$$
[H]c1c([H])c([H])c2c(c1[H])c1c3c(c4c5c([H])c([H])c([H])c([H])c5n5c4c1n2[C@]1([H])O[C@]5(C([H])([H])[H])[C@@]([H])(OC([H])([H])[H])[C@@]([H])(N([H])C([H])([H])[H])C1([H])[H])C([H])([H])N([H])C3=O
     RDKit          3D

 61 68  0  0  0  0  0  0  0  0999 V2000
   -4.7214    2.4097    0.5983 C   0  0  0  0  0  0  0  0  0  0  0  0
   -3.9822    1.1848    0.6324 N   0  0  0  0  0  0  0  0  0  0  0  0
   -3.1808    0.9438   -0.5514 C   0  0  1  0  0  0  0  0  0  0  0  0
   -2.1287    2.1030   -0.6160 C   0  0  0  0  0  0  0  0  0  0  0  0
   -0.9471    1.4134   -0.5220 C   0  0  1  0  0  0  0  0  0  0  0  0
   -0.9638    0.5601   -1.6162 O   0  0  0  0  0  0  0  0  0  0  0  0
   -1.3378   -0.7198   -1.0906 C   0  0  2  0  0  0  0  0  0  0  0  0
   -1.6688   -1.4664   -2.4309 C   0  0  0  0  0  0  0  0  0  0  0  0
   -2.5304   -0.4438   -0.3258 C   0  0  1  0  0  0  0  0  0  0  0  0
   -2.6388   -0.8827    0.9764 O   0  0  0  0  0  0  0  0  0  0  0  0
   -3.5794   -1.8389    1.2299 C   0  0  0  0  0  0  0  0  0  0  0  0
   -0.1297   -1.2831   -0.5475 N   0  0  0  0  0  0  0  0  0  0  0  0
    0.1543   -2.6040   -0.4727 C   0  0  0  0  0  0  0  0  0  0  0  0
   -0.5674   -3.7659   -0.7148 C   0  0  0  0  0  0  0  0  0  0  0  0
    0.0003   -5.0248   -0.5414 C   0  0  0  0  0  0  0  0  0  0  0  0
    1.3049   -5.1599   -0.1206 C   0  0  0  0  0  0  0  0  0  0  0  0
    2.0493   -4.0271    0.1293 C   0  0  0  0  0  0  0  0  0  0  0  0
    1.4590   -2.8076   -0.0520 C   0  0  0  0  0  0  0  0  0  0  0  0
    1.9904   -1.5692    0.1419 C   0  0  0  0  0  0  0  0  0  0  0  0
    3.2344   -1.0437    0.5170 C   0  0  0  0  0  0  0  0  0  0  0  0
    4.4559   -1.7835    0.8800 C   0  0  0  0  0  0  0  0  0  0  0  0
    5.4345   -0.7771    1.2024 N   0  0  0  0  0  0  0  0  0  0  0  0
    4.8582    0.5339    1.0195 C   0  0  0  0  0  0  0  0  0  0  0  0
    5.5482    1.5411    1.2321 O   0  0  0  0  0  0  0  0  0  0  0  0
    3.4942    0.3130    0.5954 C   0  0  0  0  0  0  0  0  0  0  0  0
    2.4992    1.2349    0.2990 C   0  0  0  0  0  0  0  0  0  0  0  0
    2.3596    2.5925    0.3108 C   0  0  0  0  0  0  0  0  0  0  0  0
    3.2065    3.6185    0.5806 C   0  0  0  0  0  0  0  0  0  0  0  0
    2.7033    4.9291    0.4896 C   0  0  0  0  0  0  0  0  0  0  0  0
    1.3946    5.1670    0.1386 C   0  0  0  0  0  0  0  0  0  0  0  0
    0.5300    4.1103   -0.1373 C   0  0  0  0  0  0  0  0  0  0  0  0
    1.0459    2.8409   -0.0415 C   0  0  0  0  0  0  0  0  0  0  0  0
    0.3968    1.7103   -0.2639 N   0  0  0  0  0  0  0  0  0  0  0  0
    1.2898    0.7040   -0.0649 C   0  0  0  0  0  0  0  0  0  0  0  0
    1.0348   -0.6769   -0.1506 C   0  0  0  0  0  0  0  0  0  0  0  0
   -4.1718    3.2170    1.1277 H   0  0  0  0  0  0  0  0  0  0  0  0
   -4.9729    2.6635   -0.4314 H   0  0  0  0  0  0  0  0  0  0  0  0
   -5.6660    2.2404    1.1684 H   0  0  0  0  0  0  0  0  0  0  0  0
   -3.5211    0.9595    1.5171 H   0  0  0  0  0  0  0  0  0  0  0  0
   -3.8406    0.9718   -1.4128 H   0  0  0  0  0  0  0  0  0  0  0  0
   -2.3613    2.6480   -1.5550 H   0  0  0  0  0  0  0  0  0  0  0  0
   -2.3259    2.8337    0.2023 H   0  0  0  0  0  0  0  0  0  0  0  0
   -1.1567    0.8348    0.4905 H   0  0  0  0  0  0  0  0  0  0  0  0
   -1.8666   -0.7570   -3.2417 H   0  0  0  0  0  0  0  0  0  0  0  0
   -0.8467   -2.0981   -2.7423 H   0  0  0  0  0  0  0  0  0  0  0  0
   -2.6367   -1.9690   -2.2345 H   0  0  0  0  0  0  0  0  0  0  0  0
   -3.3459   -1.0936   -0.8266 H   0  0  0  0  0  0  0  0  0  0  0  0
   -3.5387   -2.0794    2.3110 H   0  0  0  0  0  0  0  0  0  0  0  0
   -3.3830   -2.8163    0.6973 H   0  0  0  0  0  0  0  0  0  0  0  0
   -4.6203   -1.5293    1.0081 H   0  0  0  0  0  0  0  0  0  0  0  0
   -1.5742   -3.6918   -1.0322 H   0  0  0  0  0  0  0  0  0  0  0  0
   -0.6332   -5.8901   -0.7533 H   0  0  0  0  0  0  0  0  0  0  0  0
    1.6909   -6.1578   -0.0050 H   0  0  0  0  0  0  0  0  0  0  0  0
    3.0778   -4.1234    0.4614 H   0  0  0  0  0  0  0  0  0  0  0  0
    4.2970   -2.4098    1.7823 H   0  0  0  0  0  0  0  0  0  0  0  0
    4.7645   -2.4091    0.0144 H   0  0  0  0  0  0  0  0  0  0  0  0
    6.4012   -1.0207    1.5162 H   0  0  0  0  0  0  0  0  0  0  0  0
    4.2259    3.4694    0.8539 H   0  0  0  0  0  0  0  0  0  0  0  0
    3.4090    5.7212    0.7122 H   0  0  0  0  0  0  0  0  0  0  0  0
    1.0230    6.1798    0.0722 H   0  0  0  0  0  0  0  0  0  0  0  0
   -0.4958    4.2706   -0.4133 H   0  0  0  0  0  0  0  0  0  0  0  0
  1  2  1  0
  2  3  1  0
  3  4  1  0
  4  5  1  0
  5  6  1  0
  6  7  1  0
  7  8  1  6
  7  9  1  0
  9 10  1  0
 10 11  1  0
  7 12  1  0
 12 13  1  0
 13 14  2  0
 14 15  1  0
 15 16  2  0
 16 17  1  0
 17 18  2  0
 18 19  1  0
 19 20  2  0
 20 21  1  0
 21 22  1  0
 22 23  1  0
 23 24  2  0
 23 25  1  0
 25 26  2  0
 26 27  1  0
 27 28  2  0
 28 29  1  0
 29 30  2  0
 30 31  1  0
 31 32  2  0
 32 33  1  0
 33 34  1  0
 34 35  2  0
  9  3  1  0
 35 12  1  0
 33  5  1  0
 18 13  1  0
 35 19  1  0
 25 20  1  0
 34 26  1  0
 32 27  1  0
  1 36  1  0
  1 37  1  0
  1 38  1  0
  2 39  1  0
  3 40  1  6
  4 41  1  0
  4 42  1  0
  5 43  1  1
  8 44  1  0
  8 45  1  0
  8 46  1  0
  9 47  1  6
 11 48  1  0
 11 49  1  0
 11 50  1  0
 14 51  1  0
 15 52  1  0
 16 53  1  0
 17 54  1  0
 21 55  1  0
 21 56  1  0
 22 57  1  0
 28 58  1  0
 29 59  1  0
 30 60  1  0
 31 61  1  0
M  END
$$$$
[H]c1c([H])c([H])c2c(c1[H])c1c3c(c4c5c([H])c([H])c([H])c([H])c5n5c4c1n2[C@@]1(C([H])([H])[H])O[C@]5([H])C([H])([H])[C@]([H])(N([H])C([H])([H])[H])[C@]1([H])OC([H])([H])[H])C(=O)N([H])C3([H])[H]
     RDKit          3D

 61 68  0  0  0  0  0  0  0  0999 V2000
   -4.0469   -1.7704    1.7208 C   0  0  0  0  0  0  0  0  0  0  0  0
   -2.8051   -1.1267    1.8532 N   0  0  0  0  0  0  0  0  0  0  0  0
   -2.0631   -0.7295    0.7453 C   0  0  1  0  0  0  0  0  0  0  0  0
   -1.6837   -1.8762   -0.1711 C   0  0  0  0  0  0  0  0  0  0  0  0
   -0.8984   -1.4098   -1.3642 C   0  0  1  0  0  0  0  0  0  0  0  0
   -1.1746   -0.2090   -1.8664 O   0  0  0  0  0  0  0  0  0  0  0  0
   -1.4577    0.8633   -1.0142 C   0  0  1  0  0  0  0  0  0  0  0  0
   -2.0247    1.8974   -1.9699 C   0  0  0  0  0  0  0  0  0  0  0  0
   -2.5753    0.3728   -0.1181 C   0  0  1  0  0  0  0  0  0  0  0  0
   -3.5198   -0.1711   -0.9735 O   0  0  0  0  0  0  0  0  0  0  0  0
   -4.7628    0.3638   -0.9969 C   0  0  0  0  0  0  0  0  0  0  0  0
   -0.2701    1.3169   -0.3284 N   0  0  0  0  0  0  0  0  0  0  0  0
   -0.0959    2.5647    0.1722 C   0  0  0  0  0  0  0  0  0  0  0  0
   -0.9035    3.6566    0.2781 C   0  0  0  0  0  0  0  0  0  0  0  0
   -0.4867    4.8568    0.8587 C   0  0  0  0  0  0  0  0  0  0  0  0
    0.7815    4.9813    1.3559 C   0  0  0  0  0  0  0  0  0  0  0  0
    1.6018    3.8897    1.2562 C   0  0  0  0  0  0  0  0  0  0  0  0
    1.2013    2.7011    0.6855 C   0  0  0  0  0  0  0  0  0  0  0  0
    1.8231    1.4953    0.4914 C   0  0  0  0  0  0  0  0  0  0  0  0
    3.0935    1.0534    0.7971 C   0  0  0  0  0  0  0  0  0  0  0  0
    4.2347    1.7462    1.4443 C   0  0  0  0  0  0  0  0  0  0  0  0
    5.2812    0.7805    1.4850 N   0  0  0  0  0  0  0  0  0  0  0  0
    4.8379   -0.4605    0.9036 C   0  0  0  0  0  0  0  0  0  0  0  0
    5.5848   -1.4446    0.8345 O   0  0  0  0  0  0  0  0  0  0  0  0
    3.4679   -0.2585    0.4835 C   0  0  0  0  0  0  0  0  0  0  0  0
    2.5253   -1.0802   -0.1335 C   0  0  0  0  0  0  0  0  0  0  0  0
    2.5255   -2.4091   -0.5522 C   0  0  0  0  0  0  0  0  0  0  0  0
    3.4661   -3.3824   -0.5335 C   0  0  0  0  0  0  0  0  0  0  0  0
    3.1394   -4.6508   -1.0457 C   0  0  0  0  0  0  0  0  0  0  0  0
    1.8931   -4.8946   -1.5532 C   0  0  0  0  0  0  0  0  0  0  0  0
    0.9234   -3.9194   -1.5814 C   0  0  0  0  0  0  0  0  0  0  0  0
    1.2579   -2.6757   -1.0743 C   0  0  0  0  0  0  0  0  0  0  0  0
    0.5170   -1.5633   -0.9812 N   0  0  0  0  0  0  0  0  0  0  0  0
    1.2574   -0.6011   -0.4262 C   0  0  0  0  0  0  0  0  0  0  0  0
    0.9293    0.6883   -0.1091 C   0  0  0  0  0  0  0  0  0  0  0  0
   -4.8662   -1.0159    1.9108 H   0  0  0  0  0  0  0  0  0  0  0  0
   -4.1813   -2.6236    2.4398 H   0  0  0  0  0  0  0  0  0  0  0  0
   -4.2705   -2.2084    0.7307 H   0  0  0  0  0  0  0  0  0  0  0  0
   -2.8232   -0.4664    2.6590 H   0  0  0  0  0  0  0  0  0  0  0  0
   -1.0753   -0.3131    1.1783 H   0  0  0  0  0  0  0  0  0  0  0  0
   -1.0881   -2.5934    0.4138 H   0  0  0  0  0  0  0  0  0  0  0  0
   -2.6116   -2.3396   -0.5348 H   0  0  0  0  0  0  0  0  0  0  0  0
   -1.0616   -2.1696   -2.1624 H   0  0  0  0  0  0  0  0  0  0  0  0
   -2.9480    2.3656   -1.6768 H   0  0  0  0  0  0  0  0  0  0  0  0
   -1.2023    2.6448   -2.1814 H   0  0  0  0  0  0  0  0  0  0  0  0
   -2.2291    1.4720   -2.9983 H   0  0  0  0  0  0  0  0  0  0  0  0
   -3.0338    1.1533    0.4695 H   0  0  0  0  0  0  0  0  0  0  0  0
   -5.2481    0.3628   -0.0036 H   0  0  0  0  0  0  0  0  0  0  0  0
   -4.9197    1.3034   -1.5454 H   0  0  0  0  0  0  0  0  0  0  0  0
   -5.3837   -0.3816   -1.6336 H   0  0  0  0  0  0  0  0  0  0  0  0
   -1.9195    3.5996   -0.0805 H   0  0  0  0  0  0  0  0  0  0  0  0
   -1.1927    5.6764    0.9018 H   0  0  0  0  0  0  0  0  0  0  0  0
    1.1278    5.9226    1.8176 H   0  0  0  0  0  0  0  0  0  0  0  0
    2.6056    3.9573    1.6392 H   0  0  0  0  0  0  0  0  0  0  0  0
    4.5809    2.6270    0.8499 H   0  0  0  0  0  0  0  0  0  0  0  0
    3.9928    2.1189    2.4526 H   0  0  0  0  0  0  0  0  0  0  0  0
    6.2242    0.9648    1.8822 H   0  0  0  0  0  0  0  0  0  0  0  0
    4.4453   -3.2357   -0.1500 H   0  0  0  0  0  0  0  0  0  0  0  0
    3.9157   -5.4107   -1.0164 H   0  0  0  0  0  0  0  0  0  0  0  0
    1.6559   -5.8901   -1.9485 H   0  0  0  0  0  0  0  0  0  0  0  0
   -0.0671   -4.1156   -1.9855 H   0  0  0  0  0  0  0  0  0  0  0  0
  1  2  1  0
  2  3  1  0
  3  4  1  0
  4  5  1  0
  5  6  1  0
  6  7  1  0
  7  8  1  6
  7  9  1  0
  9 10  1  0
 10 11  1  0
  7 12  1  0
 12 13  1  0
 13 14  2  0
 14 15  1  0
 15 16  2  0
 16 17  1  0
 17 18  2  0
 18 19  1  0
 19 20  2  0
 20 21  1  0
 21 22  1  0
 22 23  1  0
 23 24  2  0
 23 25  1  0
 25 26  2  0
 26 27  1  0
 27 28  2  0
 28 29  1  0
 29 30  2  0
 30 31  1  0
 31 32  2  0
 32 33  1  0
 33 34  1  0
 34 35  2  0
  9  3  1  0
 35 12  1  0
 33  5  1  0
 18 13  1  0
 35 19  1  0
 25 20  1  0
 34 26  1  0
 32 27  1  0
  1 36  1  0
  1 37  1  0
  1 38  1  0
  2 39  1  0
  3 40  1  1
  4 41  1  0
  4 42  1  0
  5 43  1  6
  8 44  1  0
  8 45  1  0
  8 46  1  0
  9 47  1  1
 11 48  1  0
 11 49  1  0
 11 50  1  0
 14 51  1  0
 15 52  1  0
 16 53  1  0
 17 54  1  0
 21 55  1  0
 21 56  1  0
 22 57  1  0
 28 58  1  0
 29 59  1  0
 30 60  1  0
 31 61  1  0
M  END
$$$$
[H]c1c([H])c([H])c2c(c1[H])c1c3c(c4c5c([H])c([H])c([H])c([H])c5n5c4c1n2[C@]1([H])O[C@]5(C([H])([H])[H])[C@]([H])(OC([H])([H])[H])[C@@]([H])(N([H])C([H])([H])[H])C1([H])[H])C([H])([H])N([H])C3=O
     RDKit          3D

 61 68  0  0  0  0  0  0  0  0999 V2000
   -4.6729    2.4704    0.6701 C   0  0  0  0  0  0  0  0  0  0  0  0
   -3.9561    1.2431    0.7989 N   0  0  0  0  0  0  0  0  0  0  0  0
   -3.1827    0.9142   -0.3838 C   0  0  1  0  0  0  0  0  0  0  0  0
   -2.1402    2.0723   -0.5185 C   0  0  0  0  0  0  0  0  0  0  0  0
   -0.9578    1.3809   -0.4239 C   0  0  1  0  0  0  0  0  0  0  0  0
   -1.0012    0.5004   -1.5008 O   0  0  0  0  0  0  0  0  0  0  0  0
   -1.3700   -0.7676   -0.9505 C   0  0  2  0  0  0  0  0  0  0  0  0
   -1.7787   -1.5242   -2.2382 C   0  0  0  0  0  0  0  0  0  0  0  0
   -2.4988   -0.4528   -0.0976 C   0  0  2  0  0  0  0  0  0  0  0  0
   -3.5516   -1.3395   -0.4711 O   0  0  0  0  0  0  0  0  0  0  0  0
   -4.0462   -2.0650    0.5660 C   0  0  0  0  0  0  0  0  0  0  0  0
   -0.1182   -1.2988   -0.4529 N   0  0  0  0  0  0  0  0  0  0  0  0
    0.2026   -2.6147   -0.3684 C   0  0  0  0  0  0  0  0  0  0  0  0
   -0.5266   -3.7517   -0.5683 C   0  0  0  0  0  0  0  0  0  0  0  0
    0.0524   -5.0036   -0.4051 C   0  0  0  0  0  0  0  0  0  0  0  0
    1.3926   -5.1477   -0.0325 C   0  0  0  0  0  0  0  0  0  0  0  0
    2.1371   -4.0052    0.1725 C   0  0  0  0  0  0  0  0  0  0  0  0
    1.5289   -2.7803    0.0012 C   0  0  0  0  0  0  0  0  0  0  0  0
    2.0485   -1.5465    0.1558 C   0  0  0  0  0  0  0  0  0  0  0  0
    3.3025   -1.0014    0.4712 C   0  0  0  0  0  0  0  0  0  0  0  0
    4.5400   -1.7303    0.7940 C   0  0  0  0  0  0  0  0  0  0  0  0
    5.5206   -0.7063    1.0489 N   0  0  0  0  0  0  0  0  0  0  0  0
    4.9204    0.5944    0.8755 C   0  0  0  0  0  0  0  0  0  0  0  0
    5.6103    1.6121    1.0433 O   0  0  0  0  0  0  0  0  0  0  0  0
    3.5413    0.3604    0.5176 C   0  0  0  0  0  0  0  0  0  0  0  0
    2.5227    1.2647    0.2507 C   0  0  0  0  0  0  0  0  0  0  0  0
    2.3682    2.6229    0.2472 C   0  0  0  0  0  0  0  0  0  0  0  0
    3.2205    3.6549    0.4650 C   0  0  0  0  0  0  0  0  0  0  0  0
    2.7083    4.9621    0.3758 C   0  0  0  0  0  0  0  0  0  0  0  0
    1.3816    5.1770    0.0757 C   0  0  0  0  0  0  0  0  0  0  0  0
    0.5187    4.1120   -0.1455 C   0  0  0  0  0  0  0  0  0  0  0  0
    1.0401    2.8494   -0.0530 C   0  0  0  0  0  0  0  0  0  0  0  0
    0.3949    1.7020   -0.2301 N   0  0  0  0  0  0  0  0  0  0  0  0
    1.3072    0.7097   -0.0536 C   0  0  0  0  0  0  0  0  0  0  0  0
    1.0653   -0.6739   -0.1093 C   0  0  0  0  0  0  0  0  0  0  0  0
   -4.1378    3.2896    1.1811 H   0  0  0  0  0  0  0  0  0  0  0  0
   -4.9117    2.6802   -0.3866 H   0  0  0  0  0  0  0  0  0  0  0  0
   -5.6527    2.3385    1.2050 H   0  0  0  0  0  0  0  0  0  0  0  0
   -3.2976    1.2798    1.6344 H   0  0  0  0  0  0  0  0  0  0  0  0
   -3.8488    0.8666   -1.2338 H   0  0  0  0  0  0  0  0  0  0  0  0
   -2.3900    2.5503   -1.5008 H   0  0  0  0  0  0  0  0  0  0  0  0
   -2.3278    2.8494    0.2401 H   0  0  0  0  0  0  0  0  0  0  0  0
   -1.1232    0.8155    0.6063 H   0  0  0  0  0  0  0  0  0  0  0  0
   -2.0290   -0.8100   -3.0632 H   0  0  0  0  0  0  0  0  0  0  0  0
   -0.9380   -2.1222   -2.6367 H   0  0  0  0  0  0  0  0  0  0  0  0
   -2.6973   -2.1123   -2.1005 H   0  0  0  0  0  0  0  0  0  0  0  0
   -2.3910   -0.6283    0.9834 H   0  0  0  0  0  0  0  0  0  0  0  0
   -3.2245   -2.6856    1.0089 H   0  0  0  0  0  0  0  0  0  0  0  0
   -4.7508   -2.8108    0.1278 H   0  0  0  0  0  0  0  0  0  0  0  0
   -4.5876   -1.5274    1.3339 H   0  0  0  0  0  0  0  0  0  0  0  0
   -1.5381   -3.7221   -0.8394 H   0  0  0  0  0  0  0  0  0  0  0  0
   -0.5262   -5.8823   -0.5635 H   0  0  0  0  0  0  0  0  0  0  0  0
    1.8193   -6.1363    0.0880 H   0  0  0  0  0  0  0  0  0  0  0  0
    3.1750   -4.0914    0.4618 H   0  0  0  0  0  0  0  0  0  0  0  0
    4.3470   -2.2880    1.7377 H   0  0  0  0  0  0  0  0  0  0  0  0
    4.8560   -2.4302   -0.0043 H   0  0  0  0  0  0  0  0  0  0  0  0
    6.5043   -0.9356    1.3160 H   0  0  0  0  0  0  0  0  0  0  0  0
    4.2542    3.5201    0.6968 H   0  0  0  0  0  0  0  0  0  0  0  0
    3.4136    5.7638    0.5555 H   0  0  0  0  0  0  0  0  0  0  0  0
    0.9998    6.1818    0.0099 H   0  0  0  0  0  0  0  0  0  0  0  0
   -0.5210    4.2535   -0.3844 H   0  0  0  0  0  0  0  0  0  0  0  0
  1  2  1  0
  2  3  1  0
  3  4  1  0
  4  5  1  0
  5  6  1  0
  6  7  1  0
  7  8  1  6
  7  9  1  0
  9 10  1  0
 10 11  1  0
  7 12  1  0
 12 13  1  0
 13 14  2  0
 14 15  1  0
 15 16  2  0
 16 17  1  0
 17 18  2  0
 18 19  1  0
 19 20  2  0
 20 21  1  0
 21 22  1  0
 22 23  1  0
 23 24  2  0
 23 25  1  0
 25 26  2  0
 26 27  1  0
 27 28  2  0
 28 29  1  0
 29 30  2  0
 30 31  1  0
 31 32  2  0
 32 33  1  0
 33 34  1  0
 34 35  2  0
  9  3  1  0
 35 12  1  0
 33  5  1  0
 18 13  1  0
 35 19  1  0
 25 20  1  0
 34 26  1  0
 32 27  1  0
  1 36  1  0
  1 37  1  0
  1 38  1  0
  2 39  1  0
  3 40  1  6
  4 41  1  0
  4 42  1  0
  5 43  1  1
  8 44  1  0
  8 45  1  0
  8 46  1  0
  9 47  1  1
 11 48  1  0
 11 49  1  0
 11 50  1  0
 14 51  1  0
 15 52  1  0
 16 53  1  0
 17 54  1  0
 21 55  1  0
 21 56  1  0
 22 57  1  0
 28 58  1  0
 29 59  1  0
 30 60  1  0
 31 61  1  0
M  END
$$$$
[H]c1c([H])c([H])c2c(c1[H])c1c3c(c4c5c([H])c([H])c([H])c([H])c5n5c4c1n2[C@@]1(C([H])([H])[H])O[C@]5([H])C([H])([H])[C@]([H])(N([H])C([H])([H])[H])[C@@]1([H])OC([H])([H])[H])C(=O)N([H])C3([H])[H]
     RDKit          3D

 61 68  0  0  0  0  0  0  0  0999 V2000
   -4.1558   -1.9431    1.1588 C   0  0  0  0  0  0  0  0  0  0  0  0
   -2.9510   -1.2988    1.5181 N   0  0  0  0  0  0  0  0  0  0  0  0
   -2.0807   -0.8600    0.4920 C   0  0  1  0  0  0  0  0  0  0  0  0
   -1.6342   -2.0226   -0.3955 C   0  0  0  0  0  0  0  0  0  0  0  0
   -0.7617   -1.5377   -1.5088 C   0  0  1  0  0  0  0  0  0  0  0  0
   -0.9681   -0.3443   -1.9998 O   0  0  0  0  0  0  0  0  0  0  0  0
   -1.4493    0.7203   -1.2530 C   0  0  1  0  0  0  0  0  0  0  0  0
   -1.8886    1.6949   -2.3320 C   0  0  0  0  0  0  0  0  0  0  0  0
   -2.5793    0.2007   -0.4212 C   0  0  2  0  0  0  0  0  0  0  0  0
   -3.2483    1.1396    0.3092 O   0  0  0  0  0  0  0  0  0  0  0  0
   -4.5606    1.3976    0.0437 C   0  0  0  0  0  0  0  0  0  0  0  0
   -0.3147    1.2600   -0.4993 N   0  0  0  0  0  0  0  0  0  0  0  0
   -0.1830    2.5167   -0.0369 C   0  0  0  0  0  0  0  0  0  0  0  0
   -0.9889    3.6063   -0.0588 C   0  0  0  0  0  0  0  0  0  0  0  0
   -0.6121    4.8097    0.5000 C   0  0  0  0  0  0  0  0  0  0  0  0
    0.6187    4.9759    1.1199 C   0  0  0  0  0  0  0  0  0  0  0  0
    1.4479    3.8772    1.1500 C   0  0  0  0  0  0  0  0  0  0  0  0
    1.0593    2.6881    0.5903 C   0  0  0  0  0  0  0  0  0  0  0  0
    1.6976    1.4894    0.5031 C   0  0  0  0  0  0  0  0  0  0  0  0
    2.9401    1.0641    0.9343 C   0  0  0  0  0  0  0  0  0  0  0  0
    4.0147    1.7914    1.6605 C   0  0  0  0  0  0  0  0  0  0  0  0
    5.0836    0.8687    1.8446 N   0  0  0  0  0  0  0  0  0  0  0  0
    4.7142   -0.3865    1.2763 C   0  0  0  0  0  0  0  0  0  0  0  0
    5.4696   -1.3577    1.3091 O   0  0  0  0  0  0  0  0  0  0  0  0
    3.3871   -0.2475    0.7186 C   0  0  0  0  0  0  0  0  0  0  0  0
    2.5135   -1.0867    0.0529 C   0  0  0  0  0  0  0  0  0  0  0  0
    2.5652   -2.4180   -0.3313 C   0  0  0  0  0  0  0  0  0  0  0  0
    3.5101   -3.3771   -0.2018 C   0  0  0  0  0  0  0  0  0  0  0  0
    3.2584   -4.6635   -0.7091 C   0  0  0  0  0  0  0  0  0  0  0  0
    2.0695   -4.9340   -1.3251 C   0  0  0  0  0  0  0  0  0  0  0  0
    1.0884   -3.9802   -1.4726 C   0  0  0  0  0  0  0  0  0  0  0  0
    1.3575   -2.7294   -0.9683 C   0  0  0  0  0  0  0  0  0  0  0  0
    0.6082   -1.6368   -0.9706 N   0  0  0  0  0  0  0  0  0  0  0  0
    1.2675   -0.6351   -0.3712 C   0  0  0  0  0  0  0  0  0  0  0  0
    0.8452    0.6650   -0.1514 C   0  0  0  0  0  0  0  0  0  0  0  0
   -4.9798   -1.5161    1.7909 H   0  0  0  0  0  0  0  0  0  0  0  0
   -4.1702   -3.0438    1.4002 H   0  0  0  0  0  0  0  0  0  0  0  0
   -4.4563   -1.7550    0.1088 H   0  0  0  0  0  0  0  0  0  0  0  0
   -2.5027   -1.7423    2.3291 H   0  0  0  0  0  0  0  0  0  0  0  0
   -1.1574   -0.4745    1.0562 H   0  0  0  0  0  0  0  0  0  0  0  0
   -1.1276   -2.7482    0.2625 H   0  0  0  0  0  0  0  0  0  0  0  0
   -2.5365   -2.4864   -0.8252 H   0  0  0  0  0  0  0  0  0  0  0  0
   -0.8051   -2.2939   -2.3191 H   0  0  0  0  0  0  0  0  0  0  0  0
   -2.8708    2.1485   -2.1755 H   0  0  0  0  0  0  0  0  0  0  0  0
   -1.0891    2.4862   -2.4855 H   0  0  0  0  0  0  0  0  0  0  0  0
   -1.9558    1.2339   -3.3525 H   0  0  0  0  0  0  0  0  0  0  0  0
   -3.2952   -0.2451   -1.1383 H   0  0  0  0  0  0  0  0  0  0  0  0
   -4.8579    2.1968    0.8179 H   0  0  0  0  0  0  0  0  0  0  0  0
   -4.7134    1.9913   -0.9141 H   0  0  0  0  0  0  0  0  0  0  0  0
   -5.2774    0.5845    0.0931 H   0  0  0  0  0  0  0  0  0  0  0  0
   -1.9377    3.5500   -0.5099 H   0  0  0  0  0  0  0  0  0  0  0  0
   -1.2582    5.6788    0.4803 H   0  0  0  0  0  0  0  0  0  0  0  0
    0.9168    5.9220    1.5600 H   0  0  0  0  0  0  0  0  0  0  0  0
    2.4244    3.9900    1.6355 H   0  0  0  0  0  0  0  0  0  0  0  0
    4.3906    2.6434    1.0489 H   0  0  0  0  0  0  0  0  0  0  0  0
    3.6444    2.1852    2.6335 H   0  0  0  0  0  0  0  0  0  0  0  0
    5.9851    1.1013    2.3240 H   0  0  0  0  0  0  0  0  0  0  0  0
    4.4514   -3.2125    0.2699 H   0  0  0  0  0  0  0  0  0  0  0  0
    4.0299   -5.4241   -0.5965 H   0  0  0  0  0  0  0  0  0  0  0  0
    1.8571   -5.9210   -1.7227 H   0  0  0  0  0  0  0  0  0  0  0  0
    0.1517   -4.1556   -1.9466 H   0  0  0  0  0  0  0  0  0  0  0  0
  1  2  1  0
  2  3  1  0
  3  4  1  0
  4  5  1  0
  5  6  1  0
  6  7  1  0
  7  8  1  6
  7  9  1  0
  9 10  1  0
 10 11  1  0
  7 12  1  0
 12 13  1  0
 13 14  2  0
 14 15  1  0
 15 16  2  0
 16 17  1  0
 17 18  2  0
 18 19  1  0
 19 20  2  0
 20 21  1  0
 21 22  1  0
 22 23  1  0
 23 24  2  0
 23 25  1  0
 25 26  2  0
 26 27  1  0
 27 28  2  0
 28 29  1  0
 29 30  2  0
 30 31  1  0
 31 32  2  0
 32 33  1  0
 33 34  1  0
 34 35  2  0
  9  3  1  0
 35 12  1  0
 33  5  1  0
 18 13  1  0
 35 19  1  0
 25 20  1  0
 34 26  1  0
 32 27  1  0
  1 36  1  0
  1 37  1  0
  1 38  1  0
  2 39  1  0
  3 40  1  1
  4 41  1  0
  4 42  1  0
  5 43  1  6
  8 44  1  0
  8 45  1  0
  8 46  1  0
  9 47  1  6
 11 48  1  0
 11 49  1  0
 11 50  1  0
 14 51  1  0
 15 52  1  0
 16 53  1  0
 17 54  1  0
 21 55  1  0
 21 56  1  0
 22 57  1  0
 28 58  1  0
 29 59  1  0
 30 60  1  0
 31 61  1  0
M  END
$$$$
[H]c1nc(N([H])c2c([H])c([H])c(N3C([H])([H])C([H])([H])C([H])(N4C([H])([H])C([H])([H])N(C([H])([H])[H])C([H])([H])C4([H])[H])C([H])([H])C3([H])[H])c([H])c2OC([H])([H])[H])nc(N([H])c2c([H])c([H])c([H])c([H])c2S(=O)(=O)C([H])(C([H])([H])[H])C([H])([H])[H])c1Cl
     RDKit          3D

 82 86  0  0  0  0  0  0  0  0999 V2000
   -0.1870    3.7228   -1.2569 C   0  0  0  0  0  0  0  0  0  0  0  0
    0.4390    2.5297   -0.8437 O   0  0  0  0  0  0  0  0  0  0  0  0
   -0.3483    1.4775   -0.4024 C   0  0  0  0  0  0  0  0  0  0  0  0
   -1.7220    1.6350   -0.3827 C   0  0  0  0  0  0  0  0  0  0  0  0
   -2.5624    0.6308    0.0436 C   0  0  0  0  0  0  0  0  0  0  0  0
   -1.9599   -0.5357    0.4478 C   0  0  0  0  0  0  0  0  0  0  0  0
   -0.5748   -0.7280    0.4408 C   0  0  0  0  0  0  0  0  0  0  0  0
    0.2576    0.2764    0.0150 C   0  0  0  0  0  0  0  0  0  0  0  0
    1.6540    0.2011   -0.0367 N   0  0  0  0  0  0  0  0  0  0  0  0
    2.4984   -0.8842    0.3177 C   0  0  0  0  0  0  0  0  0  0  0  0
    2.1033   -2.0726    0.7812 N   0  0  0  0  0  0  0  0  0  0  0  0
    2.9559   -3.0558    1.0957 C   0  0  0  0  0  0  0  0  0  0  0  0
    4.3092   -2.8632    0.9451 C   0  0  0  0  0  0  0  0  0  0  0  0
    5.4455   -4.1449    1.3534 Cl  0  0  0  0  0  0  0  0  0  0  0  0
    4.7527   -1.6166    0.4572 C   0  0  0  0  0  0  0  0  0  0  0  0
    6.1380   -1.4466    0.3110 N   0  0  0  0  0  0  0  0  0  0  0  0
    6.9009   -0.3576   -0.1368 C   0  0  0  0  0  0  0  0  0  0  0  0
    6.2766    0.8084   -0.5266 C   0  0  0  0  0  0  0  0  0  0  0  0
    7.0240    1.9039   -0.9778 C   0  0  0  0  0  0  0  0  0  0  0  0
    8.3820    1.8034   -1.0274 C   0  0  0  0  0  0  0  0  0  0  0  0
    9.0024    0.6381   -0.6374 C   0  0  0  0  0  0  0  0  0  0  0  0
    8.2961   -0.4485   -0.1920 C   0  0  0  0  0  0  0  0  0  0  0  0
    9.0842   -1.8926    0.2913 S   0  0  0  0  0  0  0  0  0  0  0  0
    8.6633   -3.0312   -0.6035 O   0  0  0  0  0  0  0  0  0  0  0  0
    8.8235   -2.3045    1.7132 O   0  0  0  0  0  0  0  0  0  0  0  0
   10.8572   -1.7881    0.1370 C   0  0  0  0  0  0  0  0  0  0  0  0
   11.2609   -1.6791   -1.2975 C   0  0  0  0  0  0  0  0  0  0  0  0
   11.4760   -0.7869    1.0544 C   0  0  0  0  0  0  0  0  0  0  0  0
    3.8248   -0.7008    0.1721 N   0  0  0  0  0  0  0  0  0  0  0  0
   -3.9818    0.8060    0.0512 N   0  0  0  0  0  0  0  0  0  0  0  0
   -4.5241    1.9609   -0.5784 C   0  0  0  0  0  0  0  0  0  0  0  0
   -6.0011    1.9283   -0.8544 C   0  0  0  0  0  0  0  0  0  0  0  0
   -6.8245    1.3726    0.2584 C   0  0  0  0  0  0  0  0  0  0  0  0
   -6.0036    0.6088    1.2781 C   0  0  0  0  0  0  0  0  0  0  0  0
   -4.8657   -0.1463    0.6796 C   0  0  0  0  0  0  0  0  0  0  0  0
   -7.9560    0.6086   -0.0875 N   0  0  0  0  0  0  0  0  0  0  0  0
   -7.7905   -0.5856   -0.8057 C   0  0  0  0  0  0  0  0  0  0  0  0
   -9.1362   -1.0235   -1.3907 C   0  0  0  0  0  0  0  0  0  0  0  0
  -10.1390   -0.8718   -0.3544 N   0  0  0  0  0  0  0  0  0  0  0  0
  -10.0361   -1.8235    0.7053 C   0  0  0  0  0  0  0  0  0  0  0  0
  -10.3349    0.4834    0.0484 C   0  0  0  0  0  0  0  0  0  0  0  0
   -9.1475    1.3193   -0.4248 C   0  0  0  0  0  0  0  0  0  0  0  0
    0.5375    4.4499   -1.6799 H   0  0  0  0  0  0  0  0  0  0  0  0
   -0.9481    3.5330   -2.0530 H   0  0  0  0  0  0  0  0  0  0  0  0
   -0.6880    4.2523   -0.4156 H   0  0  0  0  0  0  0  0  0  0  0  0
   -2.1476    2.5764   -0.7105 H   0  0  0  0  0  0  0  0  0  0  0  0
   -2.6020   -1.3517    0.7883 H   0  0  0  0  0  0  0  0  0  0  0  0
   -0.2121   -1.6859    0.7807 H   0  0  0  0  0  0  0  0  0  0  0  0
    2.1500    1.0935   -0.3956 H   0  0  0  0  0  0  0  0  0  0  0  0
    2.6174   -4.0222    1.4737 H   0  0  0  0  0  0  0  0  0  0  0  0
    6.7215   -2.3022    0.5911 H   0  0  0  0  0  0  0  0  0  0  0  0
    5.2202    0.9989   -0.5296 H   0  0  0  0  0  0  0  0  0  0  0  0
    6.5603    2.8305   -1.2896 H   0  0  0  0  0  0  0  0  0  0  0  0
    9.0220    2.6252   -1.3712 H   0  0  0  0  0  0  0  0  0  0  0  0
   10.0936    0.6299   -0.7052 H   0  0  0  0  0  0  0  0  0  0  0  0
   11.2252   -2.8031    0.4806 H   0  0  0  0  0  0  0  0  0  0  0  0
   11.9033   -0.7785   -1.4926 H   0  0  0  0  0  0  0  0  0  0  0  0
   10.3307   -1.5514   -1.9199 H   0  0  0  0  0  0  0  0  0  0  0  0
   11.7765   -2.5763   -1.6995 H   0  0  0  0  0  0  0  0  0  0  0  0
   12.0225   -1.2557    1.8769 H   0  0  0  0  0  0  0  0  0  0  0  0
   12.1781   -0.1622    0.4319 H   0  0  0  0  0  0  0  0  0  0  0  0
   10.7434   -0.0899    1.5079 H   0  0  0  0  0  0  0  0  0  0  0  0
   -4.2803    2.8410    0.0525 H   0  0  0  0  0  0  0  0  0  0  0  0
   -3.9354    2.1199   -1.5269 H   0  0  0  0  0  0  0  0  0  0  0  0
   -6.3084    2.9635   -1.1164 H   0  0  0  0  0  0  0  0  0  0  0  0
   -6.1470    1.3325   -1.7818 H   0  0  0  0  0  0  0  0  0  0  0  0
   -7.2139    2.2642    0.8421 H   0  0  0  0  0  0  0  0  0  0  0  0
   -6.6586   -0.1075    1.8153 H   0  0  0  0  0  0  0  0  0  0  0  0
   -5.5929    1.2907    2.0626 H   0  0  0  0  0  0  0  0  0  0  0  0
   -5.1731   -0.8869   -0.0780 H   0  0  0  0  0  0  0  0  0  0  0  0
   -4.3121   -0.6097    1.5260 H   0  0  0  0  0  0  0  0  0  0  0  0
   -7.5080   -1.4012   -0.0997 H   0  0  0  0  0  0  0  0  0  0  0  0
   -7.0082   -0.5774   -1.5870 H   0  0  0  0  0  0  0  0  0  0  0  0
   -9.4445   -0.3742   -2.2343 H   0  0  0  0  0  0  0  0  0  0  0  0
   -9.0261   -2.0597   -1.7202 H   0  0  0  0  0  0  0  0  0  0  0  0
   -9.1822   -2.5377    0.5321 H   0  0  0  0  0  0  0  0  0  0  0  0
   -9.9814   -1.3564    1.7041 H   0  0  0  0  0  0  0  0  0  0  0  0
  -10.9456   -2.4645    0.6802 H   0  0  0  0  0  0  0  0  0  0  0  0
  -11.2261    0.8855   -0.4545 H   0  0  0  0  0  0  0  0  0  0  0  0
  -10.4517    0.5517    1.1515 H   0  0  0  0  0  0  0  0  0  0  0  0
   -9.2778    1.5186   -1.4917 H   0  0  0  0  0  0  0  0  0  0  0  0
   -9.1611    2.2698    0.1783 H   0  0  0  0  0  0  0  0  0  0  0  0
  1  2  1  0
  2  3  1  0
  3  4  2  0
  4  5  1  0
  5  6  2  0
  6  7  1  0
  7  8  2  0
  8  9  1  0
  9 10  1  0
 10 11  2  0
 11 12  1  0
 12 13  2  0
 13 14  1  0
 13 15  1  0
 15 16  1  0
 16 17  1  0
 17 18  2  0
 18 19  1  0
 19 20  2  0
 20 21  1  0
 21 22  2  0
 22 23  1  0
 23 24  2  0
 23 25  2  0
 23 26  1  0
 26 27  1  0
 26 28  1  0
 15 29  2  0
  5 30  1  0
 30 31  1  0
 31 32  1  0
 32 33  1  0
 33 34  1  0
 34 35  1  0
 33 36  1  0
 36 37  1  0
 37 38  1  0
 38 39  1  0
 39 40  1  0
 39 41  1  0
 41 42  1  0
  8  3  1  0
 29 10  1  0
 35 30  1  0
 42 36  1  0
 22 17  1  0
  1 43  1  0
  1 44  1  0
  1 45  1  0
  4 46  1  0
  6 47  1  0
  7 48  1  0
  9 49  1  0
 12 50  1  0
 16 51  1  0
 18 52  1  0
 19 53  1  0
 20 54  1  0
 21 55  1  0
 26 56  1  0
 27 57  1  0
 27 58  1  0
 27 59  1  0
 28 60  1  0
 28 61  1  0
 28 62  1  0
 31 63  1  0
 31 64  1  0
 32 65  1  0
 32 66  1  0
 33 67  1  0
 34 68  1  0
 34 69  1  0
 35 70  1  0
 35 71  1  0
 37 72  1  0
 37 73  1  0
 38 74  1  0
 38 75  1  0
 40 76  1  0
 40 77  1  0
 40 78  1  0
 41 79  1  0
 41 80  1  0
 42 81  1  0
 42 82  1  0
M  END
$$$$
[H]c1c([H])c([H])c2c(c1[H])c1c3c(c4c5c([H])c([H])c([H])c([H])c5n5c4c1n2[C@]1([H])O[C@]5(C([H])([H])[H])[C@]([H])(OC([H])([H])[H])[C@]([H])(N([H])C([H])([H])[H])C1([H])[H])C([H])([H])N([H])C3=O
     RDKit          3D

 61 68  0  0  0  0  0  0  0  0999 V2000
   -4.9647    2.0893   -0.5001 C   0  0  0  0  0  0  0  0  0  0  0  0
   -4.1485    0.9173   -0.6110 N   0  0  0  0  0  0  0  0  0  0  0  0
   -3.1547    0.8915    0.4018 C   0  0  2  0  0  0  0  0  0  0  0  0
   -2.1599    2.0934    0.2761 C   0  0  0  0  0  0  0  0  0  0  0  0
   -0.9701    1.4278    0.0810 C   0  0  1  0  0  0  0  0  0  0  0  0
   -1.1699    0.6674   -1.0620 O   0  0  0  0  0  0  0  0  0  0  0  0
   -1.4214   -0.6660   -0.6075 C   0  0  2  0  0  0  0  0  0  0  0  0
   -2.0298   -1.2882   -1.8881 C   0  0  0  0  0  0  0  0  0  0  0  0
   -2.4117   -0.4705    0.4331 C   0  0  2  0  0  0  0  0  0  0  0  0
   -3.4958   -1.3570    0.1476 O   0  0  0  0  0  0  0  0  0  0  0  0
   -3.7832   -2.1888    1.2017 C   0  0  0  0  0  0  0  0  0  0  0  0
   -0.1106   -1.2246   -0.3667 N   0  0  0  0  0  0  0  0  0  0  0  0
    0.2372   -2.5334   -0.4695 C   0  0  0  0  0  0  0  0  0  0  0  0
   -0.4939   -3.6621   -0.6643 C   0  0  0  0  0  0  0  0  0  0  0  0
    0.1052   -4.9347   -0.7248 C   0  0  0  0  0  0  0  0  0  0  0  0
    1.4707   -5.0525   -0.5831 C   0  0  0  0  0  0  0  0  0  0  0  0
    2.2474   -3.9187   -0.3817 C   0  0  0  0  0  0  0  0  0  0  0  0
    1.6031   -2.7007   -0.3318 C   0  0  0  0  0  0  0  0  0  0  0  0
    2.1212   -1.4634   -0.1322 C   0  0  0  0  0  0  0  0  0  0  0  0
    3.3946   -0.9214    0.0464 C   0  0  0  0  0  0  0  0  0  0  0  0
    4.6791   -1.6664    0.0956 C   0  0  0  0  0  0  0  0  0  0  0  0
    5.6758   -0.6431    0.2981 N   0  0  0  0  0  0  0  0  0  0  0  0
    5.0506    0.6576    0.3682 C   0  0  0  0  0  0  0  0  0  0  0  0
    5.7414    1.6773    0.5390 O   0  0  0  0  0  0  0  0  0  0  0  0
    3.6321    0.4301    0.2061 C   0  0  0  0  0  0  0  0  0  0  0  0
    2.5663    1.3151    0.1965 C   0  0  0  0  0  0  0  0  0  0  0  0
    2.4087    2.6598    0.3747 C   0  0  0  0  0  0  0  0  0  0  0  0
    3.2570    3.6970    0.5815 C   0  0  0  0  0  0  0  0  0  0  0  0
    2.7223    4.9826    0.7263 C   0  0  0  0  0  0  0  0  0  0  0  0
    1.3653    5.1987    0.6613 C   0  0  0  0  0  0  0  0  0  0  0  0
    0.4944    4.1468    0.4506 C   0  0  0  0  0  0  0  0  0  0  0  0
    1.0459    2.8793    0.3097 C   0  0  0  0  0  0  0  0  0  0  0  0
    0.3923    1.7530    0.1032 N   0  0  0  0  0  0  0  0  0  0  0  0
    1.3220    0.7641    0.0201 C   0  0  0  0  0  0  0  0  0  0  0  0
    1.0881   -0.6098   -0.1512 C   0  0  0  0  0  0  0  0  0  0  0  0
   -4.5050    2.7874    0.2181 H   0  0  0  0  0  0  0  0  0  0  0  0
   -5.0152    2.5954   -1.4846 H   0  0  0  0  0  0  0  0  0  0  0  0
   -5.9865    1.8736   -0.1140 H   0  0  0  0  0  0  0  0  0  0  0  0
   -4.6708    0.0501   -0.7072 H   0  0  0  0  0  0  0  0  0  0  0  0
   -3.6459    0.9609    1.3922 H   0  0  0  0  0  0  0  0  0  0  0  0
   -2.2247    2.7003    1.2119 H   0  0  0  0  0  0  0  0  0  0  0  0
   -2.6189    2.7330   -0.5135 H   0  0  0  0  0  0  0  0  0  0  0  0
   -0.9798    0.7663    1.0620 H   0  0  0  0  0  0  0  0  0  0  0  0
   -1.2319   -1.8497   -2.3960 H   0  0  0  0  0  0  0  0  0  0  0  0
   -2.8636   -1.9495   -1.6828 H   0  0  0  0  0  0  0  0  0  0  0  0
   -2.2916   -0.4677   -2.5918 H   0  0  0  0  0  0  0  0  0  0  0  0
   -2.1277   -0.7486    1.4625 H   0  0  0  0  0  0  0  0  0  0  0  0
   -2.9558   -2.8425    1.5144 H   0  0  0  0  0  0  0  0  0  0  0  0
   -4.6392   -2.8240    0.9086 H   0  0  0  0  0  0  0  0  0  0  0  0
   -4.1482   -1.5632    2.0435 H   0  0  0  0  0  0  0  0  0  0  0  0
   -1.5512   -3.6189   -0.7668 H   0  0  0  0  0  0  0  0  0  0  0  0
   -0.5187   -5.8172   -0.8832 H   0  0  0  0  0  0  0  0  0  0  0  0
    1.9167   -6.0362   -0.6324 H   0  0  0  0  0  0  0  0  0  0  0  0
    3.3134   -4.0211   -0.2722 H   0  0  0  0  0  0  0  0  0  0  0  0
    4.7040   -2.3997    0.9357 H   0  0  0  0  0  0  0  0  0  0  0  0
    4.8766   -2.2502   -0.8219 H   0  0  0  0  0  0  0  0  0  0  0  0
    6.6886   -0.8471    0.3779 H   0  0  0  0  0  0  0  0  0  0  0  0
    4.3051    3.5494    0.6320 H   0  0  0  0  0  0  0  0  0  0  0  0
    3.4425    5.7718    0.8891 H   0  0  0  0  0  0  0  0  0  0  0  0
    0.9862    6.2225    0.7794 H   0  0  0  0  0  0  0  0  0  0  0  0
   -0.5649    4.2785    0.3948 H   0  0  0  0  0  0  0  0  0  0  0  0
  1  2  1  0
  2  3  1  0
  3  4  1  0
  4  5  1  0
  5  6  1  0
  6  7  1  0
  7  8  1  6
  7  9  1  0
  9 10  1  0
 10 11  1  0
  7 12  1  0
 12 13  1  0
 13 14  2  0
 14 15  1  0
 15 16  2  0
 16 17  1  0
 17 18  2  0
 18 19  1  0
 19 20  2  0
 20 21  1  0
 21 22  1  0
 22 23  1  0
 23 24  2  0
 23 25  1  0
 25 26  2  0
 26 27  1  0
 27 28  2  0
 28 29  1  0
 29 30  2  0
 30 31  1  0
 31 32  2  0
 32 33  1  0
 33 34  1  0
 34 35  2  0
  9  3  1  0
 35 12  1  0
 33  5  1  0
 18 13  1  0
 35 19  1  0
 25 20  1  0
 34 26  1  0
 32 27  1  0
  1 36  1  0
  1 37  1  0
  1 38  1  0
  2 39  1  0
  3 40  1  1
  4 41  1  0
  4 42  1  0
  5 43  1  1
  8 44  1  0
  8 45  1  0
  8 46  1  0
  9 47  1  1
 11 48  1  0
 11 49  1  0
 11 50  1  0
 14 51  1  0
 15 52  1  0
 16 53  1  0
 17 54  1  0
 21 55  1  0
 21 56  1  0
 22 57  1  0
 28 58  1  0
 29 59  1  0
 30 60  1  0
 31 61  1  0
M  END
$$$$
[H]c1c([H])c([H])c(/C(=C2/C(=O)N([H])c3c([H])c(C(=O)OC([H])([H])[H])c([H])c([H])c32)N([H])c2c([H])c([H])c(N(C(=O)C([H])([H])N3C([H])([H])C([H])([H])N(C([H])([H])[H])C([H])([H])C3([H])[H])C([H])([H])[H])c([H])c2[H])c([H])c1[H]
     RDKit          3D

 73 77  0  0  0  0  0  0  0  0999 V2000
   -9.6259    2.7362   -3.1505 C   0  0  0  0  0  0  0  0  0  0  0  0
   -8.5822    2.1423   -2.4234 O   0  0  0  0  0  0  0  0  0  0  0  0
   -7.8814    1.0256   -2.8716 C   0  0  0  0  0  0  0  0  0  0  0  0
   -8.1814    0.5157   -3.9683 O   0  0  0  0  0  0  0  0  0  0  0  0
   -6.8215    0.5153   -2.0123 C   0  0  0  0  0  0  0  0  0  0  0  0
   -6.4947    1.0717   -0.8140 C   0  0  0  0  0  0  0  0  0  0  0  0
   -5.4728    0.5613   -0.0049 C   0  0  0  0  0  0  0  0  0  0  0  0
   -4.7972   -0.5386   -0.4611 C   0  0  0  0  0  0  0  0  0  0  0  0
   -3.6924   -1.2784    0.1218 C   0  0  0  0  0  0  0  0  0  0  0  0
   -3.1406   -1.1461    1.2984 C   0  0  0  0  0  0  0  0  0  0  0  0
   -2.0489   -2.0001    1.6122 N   0  0  0  0  0  0  0  0  0  0  0  0
   -0.6955   -1.7404    1.2757 C   0  0  0  0  0  0  0  0  0  0  0  0
   -0.3049   -0.6232    0.5755 C   0  0  0  0  0  0  0  0  0  0  0  0
    1.0409   -0.3967    0.2619 C   0  0  0  0  0  0  0  0  0  0  0  0
    1.9996   -1.2983    0.6546 C   0  0  0  0  0  0  0  0  0  0  0  0
    1.6109   -2.4148    1.3542 C   0  0  0  0  0  0  0  0  0  0  0  0
    0.2717   -2.6400    1.6660 C   0  0  0  0  0  0  0  0  0  0  0  0
    3.3997   -1.0553    0.3267 N   0  0  0  0  0  0  0  0  0  0  0  0
    4.2743   -1.0443    1.4779 C   0  0  0  0  0  0  0  0  0  0  0  0
    3.8217   -0.9048   -0.9850 C   0  0  0  0  0  0  0  0  0  0  0  0
    2.8737   -1.1517   -1.8665 O   0  0  0  0  0  0  0  0  0  0  0  0
    5.0990   -0.5334   -1.5790 C   0  0  0  0  0  0  0  0  0  0  0  0
    6.1819   -0.1535   -0.7808 N   0  0  0  0  0  0  0  0  0  0  0  0
    6.1479    1.1188   -0.1443 C   0  0  0  0  0  0  0  0  0  0  0  0
    7.0593    2.1225   -0.8152 C   0  0  0  0  0  0  0  0  0  0  0  0
    8.4000    1.6684   -0.9414 N   0  0  0  0  0  0  0  0  0  0  0  0
    9.2089    2.3796   -1.8600 C   0  0  0  0  0  0  0  0  0  0  0  0
    8.6125    0.2731   -0.8355 C   0  0  0  0  0  0  0  0  0  0  0  0
    7.4754   -0.6243   -1.1164 C   0  0  0  0  0  0  0  0  0  0  0  0
   -3.6419   -0.3131    2.3473 C   0  0  0  0  0  0  0  0  0  0  0  0
   -3.0180    0.7830    2.8957 C   0  0  0  0  0  0  0  0  0  0  0  0
   -3.5184    1.4571    3.9801 C   0  0  0  0  0  0  0  0  0  0  0  0
   -4.6869    1.0413    4.5595 C   0  0  0  0  0  0  0  0  0  0  0  0
   -5.3502   -0.0483    4.0505 C   0  0  0  0  0  0  0  0  0  0  0  0
   -4.8397   -0.7104    2.9694 C   0  0  0  0  0  0  0  0  0  0  0  0
   -3.3759   -2.3505   -0.8690 C   0  0  0  0  0  0  0  0  0  0  0  0
   -2.4929   -3.2072   -0.7677 O   0  0  0  0  0  0  0  0  0  0  0  0
   -4.2699   -2.2220   -1.9626 N   0  0  0  0  0  0  0  0  0  0  0  0
   -5.1182   -1.1186   -1.6868 C   0  0  0  0  0  0  0  0  0  0  0  0
   -6.1305   -0.5894   -2.4585 C   0  0  0  0  0  0  0  0  0  0  0  0
   -9.4840    3.8397   -3.1260 H   0  0  0  0  0  0  0  0  0  0  0  0
  -10.6287    2.4400   -2.7994 H   0  0  0  0  0  0  0  0  0  0  0  0
   -9.5092    2.4513   -4.2231 H   0  0  0  0  0  0  0  0  0  0  0  0
   -7.0554    1.9338   -0.4979 H   0  0  0  0  0  0  0  0  0  0  0  0
   -5.2980    1.1170    0.8877 H   0  0  0  0  0  0  0  0  0  0  0  0
   -2.3225   -2.8839    2.1371 H   0  0  0  0  0  0  0  0  0  0  0  0
   -1.0852    0.0650    0.2820 H   0  0  0  0  0  0  0  0  0  0  0  0
    1.2956    0.4918   -0.2875 H   0  0  0  0  0  0  0  0  0  0  0  0
    2.3988   -3.1019    1.6458 H   0  0  0  0  0  0  0  0  0  0  0  0
   -0.0090   -3.5256    2.2172 H   0  0  0  0  0  0  0  0  0  0  0  0
    4.3098   -0.0784    2.0033 H   0  0  0  0  0  0  0  0  0  0  0  0
    5.2439   -1.4894    1.2146 H   0  0  0  0  0  0  0  0  0  0  0  0
    3.8678   -1.7578    2.2758 H   0  0  0  0  0  0  0  0  0  0  0  0
    4.9292    0.2743   -2.3603 H   0  0  0  0  0  0  0  0  0  0  0  0
    5.4335   -1.4380   -2.1821 H   0  0  0  0  0  0  0  0  0  0  0  0
    6.5430    1.0192    0.8973 H   0  0  0  0  0  0  0  0  0  0  0  0
    5.1051    1.4958   -0.1442 H   0  0  0  0  0  0  0  0  0  0  0  0
    7.0209    3.0816   -0.2641 H   0  0  0  0  0  0  0  0  0  0  0  0
    6.6418    2.3090   -1.8254 H   0  0  0  0  0  0  0  0  0  0  0  0
    9.5515    1.7468   -2.6801 H   0  0  0  0  0  0  0  0  0  0  0  0
    8.6875    3.2979   -2.1848 H   0  0  0  0  0  0  0  0  0  0  0  0
   10.1414    2.7025   -1.3095 H   0  0  0  0  0  0  0  0  0  0  0  0
    9.4640   -0.0087   -1.5031 H   0  0  0  0  0  0  0  0  0  0  0  0
    8.9967    0.0613    0.2048 H   0  0  0  0  0  0  0  0  0  0  0  0
    7.6214   -1.6038   -0.5691 H   0  0  0  0  0  0  0  0  0  0  0  0
    7.4535   -0.9472   -2.2000 H   0  0  0  0  0  0  0  0  0  0  0  0
   -2.1060    1.1196    2.4536 H   0  0  0  0  0  0  0  0  0  0  0  0
   -3.0267    2.3165    4.4077 H   0  0  0  0  0  0  0  0  0  0  0  0
   -5.1025    1.5578    5.4176 H   0  0  0  0  0  0  0  0  0  0  0  0
   -6.2843   -0.3557    4.5382 H   0  0  0  0  0  0  0  0  0  0  0  0
   -5.4043   -1.5664    2.6063 H   0  0  0  0  0  0  0  0  0  0  0  0
   -4.3057   -2.8330   -2.8311 H   0  0  0  0  0  0  0  0  0  0  0  0
   -6.3795   -1.0398   -3.4080 H   0  0  0  0  0  0  0  0  0  0  0  0
  1  2  1  0
  2  3  1  0
  3  4  2  0
  3  5  1  0
  5  6  2  0
  6  7  1  0
  7  8  2  0
  8  9  1  0
  9 10  2  0
 10 11  1  0
 11 12  1  0
 12 13  2  0
 13 14  1  0
 14 15  2  0
 15 16  1  0
 16 17  2  0
 15 18  1  0
 18 19  1  0
 18 20  1  0
 20 21  2  0
 20 22  1  0
 22 23  1  0
 23 24  1  0
 24 25  1  0
 25 26  1  0
 26 27  1  0
 26 28  1  0
 28 29  1  0
 10 30  1  0
 30 31  2  0
 31 32  1  0
 32 33  2  0
 33 34  1  0
 34 35  2  0
  9 36  1  0
 36 37  2  0
 36 38  1  0
 38 39  1  0
 39 40  2  0
 40  5  1  0
 39  8  1  0
 17 12  1  0
 29 23  1  0
 35 30  1  0
  1 41  1  0
  1 42  1  0
  1 43  1  0
  6 44  1  0
  7 45  1  0
 11 46  1  0
 13 47  1  0
 14 48  1  0
 16 49  1  0
 17 50  1  0
 19 51  1  0
 19 52  1  0
 19 53  1  0
 22 54  1  0
 22 55  1  0
 24 56  1  0
 24 57  1  0
 25 58  1  0
 25 59  1  0
 27 60  1  0
 27 61  1  0
 27 62  1  0
 28 63  1  0
 28 64  1  0
 29 65  1  0
 29 66  1  0
 31 67  1  0
 32 68  1  0
 33 69  1  0
 34 70  1  0
 35 71  1  0
 38 72  1  0
 40 73  1  0
M  END
$$$$
[H]OC([H])([H])[C@@]1(O[H])C([H])([H])[C@@]2([H])O[C@]1(C([H])([H])[H])n1c3c([H])c([H])c([H])c([H])c3c3c4c(c5c6c([H])c([H])c([H])c([H])c6n2c5c31)C([H])([H])N([H])C4=O
     RDKit          3D

 54 61  0  0  0  0  0  0  0  0999 V2000
   -3.1418    0.1931   -1.6977 C   0  0  0  0  0  0  0  0  0  0  0  0
   -2.0672   -0.2416   -0.7056 C   0  0  2  0  0  0  0  0  0  0  0  0
   -1.3646   -1.1997   -1.4964 O   0  0  0  0  0  0  0  0  0  0  0  0
   -0.7981   -2.1262   -0.6953 C   0  0  2  0  0  0  0  0  0  0  0  0
   -1.5276   -2.1485    0.6200 C   0  0  0  0  0  0  0  0  0  0  0  0
   -2.5695   -1.0630    0.4128 C   0  0  1  0  0  0  0  0  0  0  0  0
   -2.6570   -0.3884    1.6282 O   0  0  0  0  0  0  0  0  0  0  0  0
   -3.8528   -1.7770    0.0694 C   0  0  0  0  0  0  0  0  0  0  0  0
   -4.0858   -2.7043    1.1135 O   0  0  0  0  0  0  0  0  0  0  0  0
    0.5793   -1.7015   -0.4398 N   0  0  0  0  0  0  0  0  0  0  0  0
    1.6738   -2.4346   -0.3714 C   0  0  0  0  0  0  0  0  0  0  0  0
    1.8583   -3.7887   -0.5335 C   0  0  0  0  0  0  0  0  0  0  0  0
    3.1414   -4.3156   -0.4065 C   0  0  0  0  0  0  0  0  0  0  0  0
    4.2342   -3.4936   -0.1189 C   0  0  0  0  0  0  0  0  0  0  0  0
    4.0565   -2.1365    0.0448 C   0  0  0  0  0  0  0  0  0  0  0  0
    2.7810   -1.6383   -0.0852 C   0  0  0  0  0  0  0  0  0  0  0  0
    2.3012   -0.3773    0.0176 C   0  0  0  0  0  0  0  0  0  0  0  0
    2.8723    0.8606    0.3054 C   0  0  0  0  0  0  0  0  0  0  0  0
    4.2732    1.1913    0.5786 C   0  0  0  0  0  0  0  0  0  0  0  0
    4.3352    2.5993    0.8085 N   0  0  0  0  0  0  0  0  0  0  0  0
    2.9989    3.1293    0.6853 C   0  0  0  0  0  0  0  0  0  0  0  0
    2.8128    4.3449    0.8491 O   0  0  0  0  0  0  0  0  0  0  0  0
    2.1260    2.0179    0.3735 C   0  0  0  0  0  0  0  0  0  0  0  0
    0.7457    1.9615    0.1469 C   0  0  0  0  0  0  0  0  0  0  0  0
   -0.2780    2.8547    0.1442 C   0  0  0  0  0  0  0  0  0  0  0  0
   -0.3187    4.2083    0.3824 C   0  0  0  0  0  0  0  0  0  0  0  0
   -1.5450    4.8840    0.3328 C   0  0  0  0  0  0  0  0  0  0  0  0
   -2.6768    4.1782    0.0481 C   0  0  0  0  0  0  0  0  0  0  0  0
   -2.6202    2.7986   -0.1923 C   0  0  0  0  0  0  0  0  0  0  0  0
   -1.4312    2.1354   -0.1473 C   0  0  0  0  0  0  0  0  0  0  0  0
   -1.1606    0.8290   -0.3299 N   0  0  0  0  0  0  0  0  0  0  0  0
    0.1923    0.7267   -0.1399 C   0  0  0  0  0  0  0  0  0  0  0  0
    0.9525   -0.4140   -0.2008 C   0  0  0  0  0  0  0  0  0  0  0  0
   -2.7736    1.0854   -2.2392 H   0  0  0  0  0  0  0  0  0  0  0  0
   -4.1419    0.2639   -1.2813 H   0  0  0  0  0  0  0  0  0  0  0  0
   -3.2680   -0.5679   -2.5374 H   0  0  0  0  0  0  0  0  0  0  0  0
   -0.7545   -3.1251   -1.1405 H   0  0  0  0  0  0  0  0  0  0  0  0
   -0.8671   -1.9293    1.4852 H   0  0  0  0  0  0  0  0  0  0  0  0
   -1.9993   -3.1350    0.8358 H   0  0  0  0  0  0  0  0  0  0  0  0
   -3.6289   -0.2375    1.7982 H   0  0  0  0  0  0  0  0  0  0  0  0
   -4.7401   -1.1363    0.0603 H   0  0  0  0  0  0  0  0  0  0  0  0
   -3.6991   -2.3235   -0.8791 H   0  0  0  0  0  0  0  0  0  0  0  0
   -5.0082   -3.0956    0.9841 H   0  0  0  0  0  0  0  0  0  0  0  0
    1.0005   -4.4111   -0.7561 H   0  0  0  0  0  0  0  0  0  0  0  0
    3.2850   -5.3803   -0.5342 H   0  0  0  0  0  0  0  0  0  0  0  0
    5.1985   -3.9557   -0.0327 H   0  0  0  0  0  0  0  0  0  0  0  0
    4.9100   -1.5059    0.2678 H   0  0  0  0  0  0  0  0  0  0  0  0
    4.9522    0.9665   -0.2718 H   0  0  0  0  0  0  0  0  0  0  0  0
    4.6842    0.6522    1.4610 H   0  0  0  0  0  0  0  0  0  0  0  0
    5.2083    3.1735    1.0330 H   0  0  0  0  0  0  0  0  0  0  0  0
    0.5315    4.8155    0.6109 H   0  0  0  0  0  0  0  0  0  0  0  0
   -1.5422    5.9334    0.5217 H   0  0  0  0  0  0  0  0  0  0  0  0
   -3.6566    4.6541   -0.0027 H   0  0  0  0  0  0  0  0  0  0  0  0
   -3.5301    2.2946   -0.3838 H   0  0  0  0  0  0  0  0  0  0  0  0
  2  1  1  6
  2  3  1  0
  3  4  1  0
  4  5  1  0
  5  6  1  0
  6  7  1  1
  6  8  1  0
  8  9  1  0
  4 10  1  0
 10 11  1  0
 11 12  2  0
 12 13  1  0
 13 14  2  0
 14 15  1  0
 15 16  2  0
 16 17  1  0
 17 18  2  0
 18 19  1  0
 19 20  1  0
 20 21  1  0
 21 22  2  0
 21 23  1  0
 23 24  2  0
 24 25  1  0
 25 26  2  0
 26 27  1  0
 27 28  2  0
 28 29  1  0
 29 30  2  0
 30 31  1  0
 31 32  1  0
 32 33  2  0
  6  2  1  0
 33 10  1  0
 31  2  1  0
 16 11  1  0
 33 17  1  0
 23 18  1  0
 32 24  1  0
 30 25  1  0
  1 34  1  0
  1 35  1  0
  1 36  1  0
  4 37  1  6
  5 38  1  0
  5 39  1  0
  7 40  1  0
  8 41  1  0
  8 42  1  0
  9 43  1  0
 12 44  1  0
 13 45  1  0
 14 46  1  0
 15 47  1  0
 19 48  1  0
 19 49  1  0
 20 50  1  0
 26 51  1  0
 27 52  1  0
 28 53  1  0
 29 54  1  0
M  END
$$$$
[H]c1c([H])c(Cl)c(-c2c([H])c3c([H])nc(N([H])c4c([H])c([H])c(N5C([H])([H])C([H])([H])N(C([H])([H])[H])C([H])([H])C5([H])[H])c([H])c4[H])nc3n(C([H])([H])[H])c2=O)c(Cl)c1[H]
     RDKit          3D

 58 62  0  0  0  0  0  0  0  0999 V2000
    8.7224   -0.7038   -1.0744 C   0  0  0  0  0  0  0  0  0  0  0  0
    7.4397   -0.3590   -1.6865 N   0  0  0  0  0  0  0  0  0  0  0  0
    7.0422    0.9098   -1.1085 C   0  0  0  0  0  0  0  0  0  0  0  0
    6.3179    0.6491    0.1968 C   0  0  0  0  0  0  0  0  0  0  0  0
    5.0438    0.0436   -0.1284 N   0  0  0  0  0  0  0  0  0  0  0  0
    5.0923   -0.9153   -1.2399 C   0  0  0  0  0  0  0  0  0  0  0  0
    6.5145   -1.4160   -1.3667 C   0  0  0  0  0  0  0  0  0  0  0  0
    3.8252    0.3062    0.5286 C   0  0  0  0  0  0  0  0  0  0  0  0
    3.7214    1.1243    1.6305 C   0  0  0  0  0  0  0  0  0  0  0  0
    2.5219    1.3736    2.2571 C   0  0  0  0  0  0  0  0  0  0  0  0
    1.3265    0.7971    1.7969 C   0  0  0  0  0  0  0  0  0  0  0  0
    0.1469    1.0923    2.4998 N   0  0  0  0  0  0  0  0  0  0  0  0
   -1.1899    0.8532    2.1110 C   0  0  0  0  0  0  0  0  0  0  0  0
   -2.2165    1.2108    2.9512 N   0  0  0  0  0  0  0  0  0  0  0  0
   -3.5029    1.0306    2.6538 C   0  0  0  0  0  0  0  0  0  0  0  0
   -3.8747    0.4675    1.4698 C   0  0  0  0  0  0  0  0  0  0  0  0
   -5.2097    0.2655    1.1275 C   0  0  0  0  0  0  0  0  0  0  0  0
   -5.5448   -0.3068   -0.0798 C   0  0  0  0  0  0  0  0  0  0  0  0
   -6.9463   -0.5110   -0.4233 C   0  0  0  0  0  0  0  0  0  0  0  0
   -7.5727   -1.6909   -0.0816 C   0  0  0  0  0  0  0  0  0  0  0  0
   -6.7254   -2.9692    0.7637 Cl  0  0  0  0  0  0  0  0  0  0  0  0
   -8.9062   -1.9121   -0.3963 C   0  0  0  0  0  0  0  0  0  0  0  0
   -9.6532   -0.9477   -1.0678 C   0  0  0  0  0  0  0  0  0  0  0  0
   -9.0241    0.2360   -1.4104 C   0  0  0  0  0  0  0  0  0  0  0  0
   -7.7010    0.4264   -1.0849 C   0  0  0  0  0  0  0  0  0  0  0  0
   -6.9498    1.9389   -1.5390 Cl  0  0  0  0  0  0  0  0  0  0  0  0
   -4.5000   -0.6566   -0.9040 C   0  0  0  0  0  0  0  0  0  0  0  0
   -4.7838   -1.1819   -2.0136 O   0  0  0  0  0  0  0  0  0  0  0  0
   -3.2127   -0.4601   -0.5703 N   0  0  0  0  0  0  0  0  0  0  0  0
   -2.1231   -0.8424   -1.4667 C   0  0  0  0  0  0  0  0  0  0  0  0
   -2.8626    0.0985    0.6064 C   0  0  0  0  0  0  0  0  0  0  0  0
   -1.5959    0.3058    0.9635 N   0  0  0  0  0  0  0  0  0  0  0  0
    1.4499   -0.0143    0.6998 C   0  0  0  0  0  0  0  0  0  0  0  0
    2.6757   -0.2660    0.0631 C   0  0  0  0  0  0  0  0  0  0  0  0
    8.4600   -1.1949   -0.0924 H   0  0  0  0  0  0  0  0  0  0  0  0
    9.2266   -1.4433   -1.7258 H   0  0  0  0  0  0  0  0  0  0  0  0
    9.3445    0.2028   -0.8899 H   0  0  0  0  0  0  0  0  0  0  0  0
    7.8706    1.5909   -0.9005 H   0  0  0  0  0  0  0  0  0  0  0  0
    6.3455    1.3995   -1.8075 H   0  0  0  0  0  0  0  0  0  0  0  0
    6.2737    1.5522    0.7954 H   0  0  0  0  0  0  0  0  0  0  0  0
    6.9057   -0.1203    0.7570 H   0  0  0  0  0  0  0  0  0  0  0  0
    4.7414   -0.4993   -2.1814 H   0  0  0  0  0  0  0  0  0  0  0  0
    4.5014   -1.8035   -0.8821 H   0  0  0  0  0  0  0  0  0  0  0  0
    6.5452   -2.1425   -2.2209 H   0  0  0  0  0  0  0  0  0  0  0  0
    6.8537   -1.9325   -0.4561 H   0  0  0  0  0  0  0  0  0  0  0  0
    4.6486    1.5712    1.9890 H   0  0  0  0  0  0  0  0  0  0  0  0
    2.4849    2.0217    3.1179 H   0  0  0  0  0  0  0  0  0  0  0  0
    0.2484    1.5552    3.4589 H   0  0  0  0  0  0  0  0  0  0  0  0
   -4.2586    1.3336    3.3571 H   0  0  0  0  0  0  0  0  0  0  0  0
   -5.9798    0.5697    1.8346 H   0  0  0  0  0  0  0  0  0  0  0  0
   -9.4125   -2.8283   -0.1374 H   0  0  0  0  0  0  0  0  0  0  0  0
  -10.7017   -1.1457   -1.3040 H   0  0  0  0  0  0  0  0  0  0  0  0
   -9.6092    0.9884   -1.9349 H   0  0  0  0  0  0  0  0  0  0  0  0
   -1.4230   -1.4968   -0.8848 H   0  0  0  0  0  0  0  0  0  0  0  0
   -2.4850   -1.4366   -2.3206 H   0  0  0  0  0  0  0  0  0  0  0  0
   -1.5780    0.0677   -1.7368 H   0  0  0  0  0  0  0  0  0  0  0  0
    0.5779   -0.5003    0.2943 H   0  0  0  0  0  0  0  0  0  0  0  0
    2.6748   -0.9267   -0.8068 H   0  0  0  0  0  0  0  0  0  0  0  0
  1  2  1  0
  2  3  1  0
  3  4  1  0
  4  5  1  0
  5  6  1  0
  6  7  1  0
  5  8  1  0
  8  9  2  0
  9 10  1  0
 10 11  2  0
 11 12  1  0
 12 13  1  0
 13 14  2  0
 14 15  1  0
 15 16  2  0
 16 17  1  0
 17 18  2  0
 18 19  1  0
 19 20  2  0
 20 21  1  0
 20 22  1  0
 22 23  2  0
 23 24  1  0
 24 25  2  0
 25 26  1  0
 18 27  1  0
 27 28  2  0
 27 29  1  0
 29 30  1  0
 29 31  1  0
 31 32  2  0
 11 33  1  0
 33 34  2  0
  7  2  1  0
 34  8  1  0
 32 13  1  0
 31 16  1  0
 25 19  1  0
  1 35  1  0
  1 36  1  0
  1 37  1  0
  3 38  1  0
  3 39  1  0
  4 40  1  0
  4 41  1  0
  6 42  1  0
  6 43  1  0
  7 44  1  0
  7 45  1  0
  9 46  1  0
 10 47  1  0
 12 48  1  0
 15 49  1  0
 17 50  1  0
 22 51  1  0
 23 52  1  0
 24 53  1  0
 30 54  1  0
 30 55  1  0
 30 56  1  0
 33 57  1  0
 34 58  1  0
M  END
$$$$
[H]O[C@@]([H])(C([H])([H])N([H])C(=O)c1c(C([H])([H])[H])c(/C([H])=C2\C(=O)N([H])c3c([H])c([H])c(F)c([H])c32)n([H])c1C([H])([H])[H])C([H])([H])N1C([H])([H])C([H])([H])OC([H])([H])C1([H])[H]
     RDKit          3D

 59 62  0  0  0  0  0  0  0  0999 V2000
    0.5434    1.8709   -1.4311 C   0  0  0  0  0  0  0  0  0  0  0  0
   -0.4427    0.9570   -0.7965 C   0  0  0  0  0  0  0  0  0  0  0  0
   -1.7020    1.3372   -0.3875 N   0  0  0  0  0  0  0  0  0  0  0  0
   -2.3133    0.3080    0.1594 C   0  0  0  0  0  0  0  0  0  0  0  0
   -3.6480    0.2411    0.7055 C   0  0  0  0  0  0  0  0  0  0  0  0
   -4.7607    0.5357    0.0615 C   0  0  0  0  0  0  0  0  0  0  0  0
   -4.8813    0.9776   -1.3199 C   0  0  0  0  0  0  0  0  0  0  0  0
   -3.9652    1.1413   -2.1757 O   0  0  0  0  0  0  0  0  0  0  0  0
   -6.2822    1.1939   -1.5277 N   0  0  0  0  0  0  0  0  0  0  0  0
   -7.0185    0.9059   -0.3463 C   0  0  0  0  0  0  0  0  0  0  0  0
   -8.3804    0.9570   -0.0375 C   0  0  0  0  0  0  0  0  0  0  0  0
   -8.8185    0.6128    1.2203 C   0  0  0  0  0  0  0  0  0  0  0  0
   -7.9450    0.2111    2.2067 C   0  0  0  0  0  0  0  0  0  0  0  0
   -8.3926   -0.1282    3.4510 F   0  0  0  0  0  0  0  0  0  0  0  0
   -6.6088    0.1700    1.8745 C   0  0  0  0  0  0  0  0  0  0  0  0
   -6.1273    0.5074    0.6247 C   0  0  0  0  0  0  0  0  0  0  0  0
   -1.4539   -0.7490    0.1101 C   0  0  0  0  0  0  0  0  0  0  0  0
   -1.7160   -2.1333    0.6175 C   0  0  0  0  0  0  0  0  0  0  0  0
   -0.2276   -0.3619   -0.5071 C   0  0  0  0  0  0  0  0  0  0  0  0
    0.8684   -1.2679   -0.7407 C   0  0  0  0  0  0  0  0  0  0  0  0
    0.8415   -2.3820   -0.1194 O   0  0  0  0  0  0  0  0  0  0  0  0
    1.9546   -1.0550   -1.5785 N   0  0  0  0  0  0  0  0  0  0  0  0
    3.0570   -1.9381   -1.8104 C   0  0  0  0  0  0  0  0  0  0  0  0
    3.9689   -2.3180   -0.7358 C   0  0  2  0  0  0  0  0  0  0  0  0
    3.4757   -2.9311    0.3958 O   0  0  0  0  0  0  0  0  0  0  0  0
    5.1734   -1.5126   -0.4315 C   0  0  0  0  0  0  0  0  0  0  0  0
    5.0802   -0.4764    0.5535 N   0  0  0  0  0  0  0  0  0  0  0  0
    6.4545   -0.0090    0.7838 C   0  0  0  0  0  0  0  0  0  0  0  0
    6.5092    1.1618    1.6985 C   0  0  0  0  0  0  0  0  0  0  0  0
    5.2437    1.7672    1.8516 O   0  0  0  0  0  0  0  0  0  0  0  0
    4.7890    1.9593    0.5478 C   0  0  0  0  0  0  0  0  0  0  0  0
    4.2723    0.6120    0.0523 C   0  0  0  0  0  0  0  0  0  0  0  0
    0.6208    1.7579   -2.5114 H   0  0  0  0  0  0  0  0  0  0  0  0
    1.5339    1.8130   -0.9175 H   0  0  0  0  0  0  0  0  0  0  0  0
    0.1820    2.9283   -1.2325 H   0  0  0  0  0  0  0  0  0  0  0  0
   -2.0481    2.3309   -0.5171 H   0  0  0  0  0  0  0  0  0  0  0  0
   -3.8121   -0.0819    1.7595 H   0  0  0  0  0  0  0  0  0  0  0  0
   -6.6783    1.5177   -2.4309 H   0  0  0  0  0  0  0  0  0  0  0  0
   -9.0579    1.2661   -0.7945 H   0  0  0  0  0  0  0  0  0  0  0  0
   -9.8799    0.6411    1.4979 H   0  0  0  0  0  0  0  0  0  0  0  0
   -5.8716   -0.1358    2.5994 H   0  0  0  0  0  0  0  0  0  0  0  0
   -2.7998   -2.2109    0.8768 H   0  0  0  0  0  0  0  0  0  0  0  0
   -1.5684   -2.9046   -0.1895 H   0  0  0  0  0  0  0  0  0  0  0  0
   -1.1456   -2.3493    1.5271 H   0  0  0  0  0  0  0  0  0  0  0  0
    1.9329   -0.1227   -2.1140 H   0  0  0  0  0  0  0  0  0  0  0  0
    3.7030   -1.4496   -2.6197 H   0  0  0  0  0  0  0  0  0  0  0  0
    2.6802   -2.8543   -2.3936 H   0  0  0  0  0  0  0  0  0  0  0  0
    4.4993   -3.2973   -1.2347 H   0  0  0  0  0  0  0  0  0  0  0  0
    3.5028   -2.2677    1.1293 H   0  0  0  0  0  0  0  0  0  0  0  0
    5.5638   -1.0571   -1.4030 H   0  0  0  0  0  0  0  0  0  0  0  0
    6.0509   -2.1641   -0.1280 H   0  0  0  0  0  0  0  0  0  0  0  0
    6.9472    0.1397   -0.1746 H   0  0  0  0  0  0  0  0  0  0  0  0
    6.9517   -0.8720    1.2990 H   0  0  0  0  0  0  0  0  0  0  0  0
    6.9905    0.9784    2.6724 H   0  0  0  0  0  0  0  0  0  0  0  0
    7.1373    1.9603    1.2073 H   0  0  0  0  0  0  0  0  0  0  0  0
    5.5465    2.3883   -0.1148 H   0  0  0  0  0  0  0  0  0  0  0  0
    3.9366    2.6683    0.5646 H   0  0  0  0  0  0  0  0  0  0  0  0
    3.2700    0.5184    0.5051 H   0  0  0  0  0  0  0  0  0  0  0  0
    4.2644    0.6939   -1.0422 H   0  0  0  0  0  0  0  0  0  0  0  0
  1  2  1  0
  2  3  1  0
  3  4  1  0
  4  5  1  0
  5  6  2  0
  6  7  1  0
  7  8  2  0
  7  9  1  0
  9 10  1  0
 10 11  2  0
 11 12  1  0
 12 13  2  0
 13 14  1  0
 13 15  1  0
 15 16  2  0
  4 17  2  0
 17 18  1  0
 17 19  1  0
 19 20  1  0
 20 21  2  0
 20 22  1  0
 22 23  1  0
 23 24  1  0
 24 25  1  0
 24 26  1  0
 26 27  1  0
 27 28  1  0
 28 29  1  0
 29 30  1  0
 30 31  1  0
 31 32  1  0
 19  2  2  0
 32 27  1  0
 16  6  1  0
 16 10  1  0
  1 33  1  0
  1 34  1  0
  1 35  1  0
  3 36  1  0
  5 37  1  0
  9 38  1  0
 11 39  1  0
 12 40  1  0
 15 41  1  0
 18 42  1  0
 18 43  1  0
 18 44  1  0
 22 45  1  0
 23 46  1  0
 23 47  1  0
 24 48  1  6
 25 49  1  0
 26 50  1  0
 26 51  1  0
 28 52  1  0
 28 53  1  0
 29 54  1  0
 29 55  1  0
 31 56  1  0
 31 57  1  0
 32 58  1  0
 32 59  1  0
M  END
$$$$
[H]c1nc(N([H])c2c([H])c([H])c(N3C([H])([H])C([H])([H])N(C([H])([H])[H])C([H])([H])C3([H])[H])c([H])c2OC([H])([H])[H])nc(N([H])c2c([H])c([H])c([H])c([H])c2S(=O)(=O)C([H])(C([H])([H])[H])C([H])([H])[H])c1Cl
     RDKit          3D

 67 70  0  0  0  0  0  0  0  0999 V2000
    2.7980   -3.3310   -1.2288 C   0  0  0  0  0  0  0  0  0  0  0  0
    1.9415   -2.2352   -0.9986 O   0  0  0  0  0  0  0  0  0  0  0  0
    2.4816   -1.0407   -0.5265 C   0  0  0  0  0  0  0  0  0  0  0  0
    3.8274   -0.9244   -0.2865 C   0  0  0  0  0  0  0  0  0  0  0  0
    4.4213    0.2145    0.1751 C   0  0  0  0  0  0  0  0  0  0  0  0
    3.5861    1.2917    0.4024 C   0  0  0  0  0  0  0  0  0  0  0  0
    2.2085    1.1836    0.1606 C   0  0  0  0  0  0  0  0  0  0  0  0
    1.6255    0.0523   -0.2972 C   0  0  0  0  0  0  0  0  0  0  0  0
    0.2667   -0.0963   -0.5497 N   0  0  0  0  0  0  0  0  0  0  0  0
   -0.7485    0.8732   -0.3847 C   0  0  0  0  0  0  0  0  0  0  0  0
   -0.5976    2.1249    0.0475 N   0  0  0  0  0  0  0  0  0  0  0  0
   -1.5696    3.0148    0.1930 C   0  0  0  0  0  0  0  0  0  0  0  0
   -2.8553    2.6370   -0.1234 C   0  0  0  0  0  0  0  0  0  0  0  0
   -4.1874    3.7633    0.0449 Cl  0  0  0  0  0  0  0  0  0  0  0  0
   -3.1059    1.3214   -0.5915 C   0  0  0  0  0  0  0  0  0  0  0  0
   -4.4442    0.9705   -0.8839 N   0  0  0  0  0  0  0  0  0  0  0  0
   -4.8563   -0.2771   -1.3763 C   0  0  0  0  0  0  0  0  0  0  0  0
   -4.0250   -1.2445   -1.8945 C   0  0  0  0  0  0  0  0  0  0  0  0
   -4.4990   -2.4531   -2.4340 C   0  0  0  0  0  0  0  0  0  0  0  0
   -5.8636   -2.6532   -2.4324 C   0  0  0  0  0  0  0  0  0  0  0  0
   -6.7143   -1.7053   -1.9218 C   0  0  0  0  0  0  0  0  0  0  0  0
   -6.2437   -0.5196   -1.3917 C   0  0  0  0  0  0  0  0  0  0  0  0
   -7.3164    0.6608   -0.6987 S   0  0  0  0  0  0  0  0  0  0  0  0
   -7.3933    1.9371   -1.4847 O   0  0  0  0  0  0  0  0  0  0  0  0
   -8.7283    0.0574   -0.8397 O   0  0  0  0  0  0  0  0  0  0  0  0
   -7.0890    0.8939    1.0249 C   0  0  0  0  0  0  0  0  0  0  0  0
   -7.3480   -0.4235    1.7701 C   0  0  0  0  0  0  0  0  0  0  0  0
   -8.1301    1.8608    1.6013 C   0  0  0  0  0  0  0  0  0  0  0  0
   -2.0417    0.5457   -0.6857 N   0  0  0  0  0  0  0  0  0  0  0  0
    5.8136    0.2932    0.3958 N   0  0  0  0  0  0  0  0  0  0  0  0
    6.4498    1.3219    1.2076 C   0  0  0  0  0  0  0  0  0  0  0  0
    7.4716    0.7173    2.1500 C   0  0  0  0  0  0  0  0  0  0  0  0
    8.2281   -0.3570    1.5914 N   0  0  0  0  0  0  0  0  0  0  0  0
    9.2895    0.0606    0.7233 C   0  0  0  0  0  0  0  0  0  0  0  0
    7.3758   -1.3808    0.9847 C   0  0  0  0  0  0  0  0  0  0  0  0
    6.7127   -0.6643   -0.2033 C   0  0  0  0  0  0  0  0  0  0  0  0
    2.1978   -4.1742   -1.5940 H   0  0  0  0  0  0  0  0  0  0  0  0
    3.3465   -3.6080   -0.3147 H   0  0  0  0  0  0  0  0  0  0  0  0
    3.5586   -2.9887   -1.9679 H   0  0  0  0  0  0  0  0  0  0  0  0
    4.4382   -1.8245   -0.4810 H   0  0  0  0  0  0  0  0  0  0  0  0
    4.0232    2.2148    0.7675 H   0  0  0  0  0  0  0  0  0  0  0  0
    1.6829    2.0994    0.3817 H   0  0  0  0  0  0  0  0  0  0  0  0
   -0.0953   -1.0472   -0.9152 H   0  0  0  0  0  0  0  0  0  0  0  0
   -1.3686    4.0319    0.5559 H   0  0  0  0  0  0  0  0  0  0  0  0
   -5.1553    1.7451   -0.7241 H   0  0  0  0  0  0  0  0  0  0  0  0
   -2.9519   -1.1300   -1.9331 H   0  0  0  0  0  0  0  0  0  0  0  0
   -3.8051   -3.1751   -2.8254 H   0  0  0  0  0  0  0  0  0  0  0  0
   -6.2117   -3.5899   -2.8525 H   0  0  0  0  0  0  0  0  0  0  0  0
   -7.7729   -1.8830   -1.9315 H   0  0  0  0  0  0  0  0  0  0  0  0
   -6.0945    1.2164    1.2893 H   0  0  0  0  0  0  0  0  0  0  0  0
   -7.0459   -0.2515    2.8164 H   0  0  0  0  0  0  0  0  0  0  0  0
   -6.7761   -1.2538    1.3513 H   0  0  0  0  0  0  0  0  0  0  0  0
   -8.4409   -0.6809    1.6975 H   0  0  0  0  0  0  0  0  0  0  0  0
   -8.1469    1.6683    2.6953 H   0  0  0  0  0  0  0  0  0  0  0  0
   -7.8558    2.8834    1.3399 H   0  0  0  0  0  0  0  0  0  0  0  0
   -9.1318    1.5480    1.2224 H   0  0  0  0  0  0  0  0  0  0  0  0
    5.6986    1.8496    1.8178 H   0  0  0  0  0  0  0  0  0  0  0  0
    6.9306    2.0340    0.5190 H   0  0  0  0  0  0  0  0  0  0  0  0
    6.9661    0.3984    3.0955 H   0  0  0  0  0  0  0  0  0  0  0  0
    8.1853    1.5113    2.4512 H   0  0  0  0  0  0  0  0  0  0  0  0
    9.0845    1.0803    0.3255 H   0  0  0  0  0  0  0  0  0  0  0  0
   10.2479    0.0559    1.3173 H   0  0  0  0  0  0  0  0  0  0  0  0
    9.3924   -0.6645   -0.1011 H   0  0  0  0  0  0  0  0  0  0  0  0
    6.5706   -1.6106    1.6897 H   0  0  0  0  0  0  0  0  0  0  0  0
    7.9791   -2.2304    0.6689 H   0  0  0  0  0  0  0  0  0  0  0  0
    6.2815   -1.3420   -0.9293 H   0  0  0  0  0  0  0  0  0  0  0  0
    7.5281   -0.0532   -0.6714 H   0  0  0  0  0  0  0  0  0  0  0  0
  1  2  1  0
  2  3  1  0
  3  4  2  0
  4  5  1  0
  5  6  2  0
  6  7  1  0
  7  8  2  0
  8  9  1  0
  9 10  1  0
 10 11  2  0
 11 12  1  0
 12 13  2  0
 13 14  1  0
 13 15  1  0
 15 16  1  0
 16 17  1  0
 17 18  2  0
 18 19  1  0
 19 20  2  0
 20 21  1  0
 21 22  2  0
 22 23  1  0
 23 24  2  0
 23 25  2  0
 23 26  1  0
 26 27  1  0
 26 28  1  0
 15 29  2  0
  5 30  1  0
 30 31  1  0
 31 32  1  0
 32 33  1  0
 33 34  1  0
 33 35  1  0
 35 36  1  0
  8  3  1  0
 29 10  1  0
 36 30  1  0
 22 17  1  0
  1 37  1  0
  1 38  1  0
  1 39  1  0
  4 40  1  0
  6 41  1  0
  7 42  1  0
  9 43  1  0
 12 44  1  0
 16 45  1  0
 18 46  1  0
 19 47  1  0
 20 48  1  0
 21 49  1  0
 26 50  1  0
 27 51  1  0
 27 52  1  0
 27 53  1  0
 28 54  1  0
 28 55  1  0
 28 56  1  0
 31 57  1  0
 31 58  1  0
 32 59  1  0
 32 60  1  0
 34 61  1  0
 34 62  1  0
 34 63  1  0
 35 64  1  0
 35 65  1  0
 36 66  1  0
 36 67  1  0
M  END
$$$$
[H]O[C@]1([H])C([H])([H])C([H])([H])[C@@]([H])(N([H])C(=O)c2c(C([H])([H])[H])c(/C([H])=C3\C(=O)N([H])c4c([H])c([H])c(F)c([H])c43)n([H])c2C([H])([H])[H])C([H])([H])C1([H])[H]
     RDKit          3D

 53 56  0  0  0  0  0  0  0  0999 V2000
   -0.9974   -1.5742    2.4286 C   0  0  0  0  0  0  0  0  0  0  0  0
   -0.0125   -0.8165    1.6056 C   0  0  0  0  0  0  0  0  0  0  0  0
    1.3190   -0.7157    1.8820 N   0  0  0  0  0  0  0  0  0  0  0  0
    1.9339    0.0276    0.9484 C   0  0  0  0  0  0  0  0  0  0  0  0
    3.3432    0.3995    0.9366 C   0  0  0  0  0  0  0  0  0  0  0  0
    4.2335   -0.0981    0.1125 C   0  0  0  0  0  0  0  0  0  0  0  0
    3.9964   -1.0925   -0.9121 C   0  0  0  0  0  0  0  0  0  0  0  0
    2.9328   -1.6816   -1.1947 O   0  0  0  0  0  0  0  0  0  0  0  0
    5.2421   -1.2959   -1.5709 N   0  0  0  0  0  0  0  0  0  0  0  0
    6.2352   -0.4508   -0.9729 C   0  0  0  0  0  0  0  0  0  0  0  0
    7.5900   -0.2580   -1.2248 C   0  0  0  0  0  0  0  0  0  0  0  0
    8.3295    0.6315   -0.4867 C   0  0  0  0  0  0  0  0  0  0  0  0
    7.7646    1.3717    0.5345 C   0  0  0  0  0  0  0  0  0  0  0  0
    8.5189    2.2579    1.2653 F   0  0  0  0  0  0  0  0  0  0  0  0
    6.4253    1.1786    0.7808 C   0  0  0  0  0  0  0  0  0  0  0  0
    5.6675    0.2853    0.0444 C   0  0  0  0  0  0  0  0  0  0  0  0
    0.9496    0.4033    0.0619 C   0  0  0  0  0  0  0  0  0  0  0  0
    1.1176    1.2877   -1.1437 C   0  0  0  0  0  0  0  0  0  0  0  0
   -0.2793   -0.1137    0.4511 C   0  0  0  0  0  0  0  0  0  0  0  0
   -1.5274    0.1065   -0.2575 C   0  0  0  0  0  0  0  0  0  0  0  0
   -1.4645    0.6995   -1.4007 O   0  0  0  0  0  0  0  0  0  0  0  0
   -2.7964   -0.2509    0.1586 N   0  0  0  0  0  0  0  0  0  0  0  0
   -3.9725    0.0363   -0.6776 C   0  0  1  0  0  0  0  0  0  0  0  0
   -4.7014   -1.2654   -0.8213 C   0  0  0  0  0  0  0  0  0  0  0  0
   -5.9749   -1.1915   -1.5973 C   0  0  0  0  0  0  0  0  0  0  0  0
   -6.5216    0.2099   -1.5962 C   0  0  2  0  0  0  0  0  0  0  0  0
   -5.8968    0.9633   -2.5845 O   0  0  0  0  0  0  0  0  0  0  0  0
   -6.2617    0.8779   -0.2656 C   0  0  0  0  0  0  0  0  0  0  0  0
   -4.8159    1.0778    0.0400 C   0  0  0  0  0  0  0  0  0  0  0  0
   -1.5266   -2.3559    1.8578 H   0  0  0  0  0  0  0  0  0  0  0  0
   -1.6580   -0.8720    2.9800 H   0  0  0  0  0  0  0  0  0  0  0  0
   -0.4244   -2.0941    3.2543 H   0  0  0  0  0  0  0  0  0  0  0  0
    1.7840   -1.1615    2.7091 H   0  0  0  0  0  0  0  0  0  0  0  0
    3.7346    1.1461    1.6519 H   0  0  0  0  0  0  0  0  0  0  0  0
    5.4690   -1.9349   -2.3637 H   0  0  0  0  0  0  0  0  0  0  0  0
    8.0763   -0.8158   -2.0159 H   0  0  0  0  0  0  0  0  0  0  0  0
    9.3968    0.7997   -0.6666 H   0  0  0  0  0  0  0  0  0  0  0  0
    5.9305    1.7295    1.5681 H   0  0  0  0  0  0  0  0  0  0  0  0
    2.1559    1.6390   -1.2348 H   0  0  0  0  0  0  0  0  0  0  0  0
    0.9256    0.6324   -2.0221 H   0  0  0  0  0  0  0  0  0  0  0  0
    0.4757    2.1845   -1.0938 H   0  0  0  0  0  0  0  0  0  0  0  0
   -3.0010   -0.7174    1.0452 H   0  0  0  0  0  0  0  0  0  0  0  0
   -3.6533    0.5004   -1.6238 H   0  0  0  0  0  0  0  0  0  0  0  0
   -3.9897   -1.9952   -1.2785 H   0  0  0  0  0  0  0  0  0  0  0  0
   -4.9190   -1.6078    0.2339 H   0  0  0  0  0  0  0  0  0  0  0  0
   -6.7042   -1.9019   -1.1048 H   0  0  0  0  0  0  0  0  0  0  0  0
   -5.7431   -1.5365   -2.6393 H   0  0  0  0  0  0  0  0  0  0  0  0
   -7.6234    0.1409   -1.7163 H   0  0  0  0  0  0  0  0  0  0  0  0
   -6.3527    1.8313   -2.7437 H   0  0  0  0  0  0  0  0  0  0  0  0
   -6.7705    0.3537    0.5723 H   0  0  0  0  0  0  0  0  0  0  0  0
   -6.7516    1.8846   -0.3264 H   0  0  0  0  0  0  0  0  0  0  0  0
   -4.5227    2.1189   -0.2673 H   0  0  0  0  0  0  0  0  0  0  0  0
   -4.6851    1.0224    1.1507 H   0  0  0  0  0  0  0  0  0  0  0  0
  1  2  1  0
  2  3  1  0
  3  4  1  0
  4  5  1  0
  5  6  2  0
  6  7  1  0
  7  8  2  0
  7  9  1  0
  9 10  1  0
 10 11  2  0
 11 12  1  0
 12 13  2  0
 13 14  1  0
 13 15  1  0
 15 16  2  0
  4 17  2  0
 17 18  1  0
 17 19  1  0
 19 20  1  0
 20 21  2  0
 20 22  1  0
 22 23  1  0
 23 24  1  0
 24 25  1  0
 25 26  1  0
 26 27  1  0
 26 28  1  0
 28 29  1  0
 19  2  2  0
 29 23  1  0
 16  6  1  0
 16 10  1  0
  1 30  1  0
  1 31  1  0
  1 32  1  0
  3 33  1  0
  5 34  1  0
  9 35  1  0
 11 36  1  0
 12 37  1  0
 15 38  1  0
 18 39  1  0
 18 40  1  0
 18 41  1  0
 22 42  1  0
 23 43  1  6
 24 44  1  0
 24 45  1  0
 25 46  1  0
 25 47  1  0
 26 48  1  6
 27 49  1  0
 28 50  1  0
 28 51  1  0
 29 52  1  0
 29 53  1  0
M  END
$$$$
[H]O[C@]([H])(C([H])([H])N([H])C(=O)c1c(C([H])([H])[H])c(/C([H])=C2\C(=O)N([H])c3c([H])c([H])c(F)c([H])c32)n([H])c1C([H])([H])[H])C([H])([H])N1C([H])([H])C([H])([H])OC([H])([H])C1([H])[H]
     RDKit          3D

 59 62  0  0  0  0  0  0  0  0999 V2000
   -0.0067    3.0051   -1.0071 C   0  0  0  0  0  0  0  0  0  0  0  0
   -0.8501    1.8317   -0.6247 C   0  0  0  0  0  0  0  0  0  0  0  0
   -2.0811    1.8440   -0.1243 N   0  0  0  0  0  0  0  0  0  0  0  0
   -2.5055    0.6096    0.0967 C   0  0  0  0  0  0  0  0  0  0  0  0
   -3.7672    0.1046    0.6046 C   0  0  0  0  0  0  0  0  0  0  0  0
   -4.9551    0.3616    0.1015 C   0  0  0  0  0  0  0  0  0  0  0  0
   -5.2686    1.1831   -1.0526 C   0  0  0  0  0  0  0  0  0  0  0  0
   -4.4447    1.7926   -1.8068 O   0  0  0  0  0  0  0  0  0  0  0  0
   -6.6877    1.1703   -1.1787 N   0  0  0  0  0  0  0  0  0  0  0  0
   -7.2854    0.3683   -0.1452 C   0  0  0  0  0  0  0  0  0  0  0  0
   -8.5932    0.0485    0.1572 C   0  0  0  0  0  0  0  0  0  0  0  0
   -8.8890   -0.7569    1.2253 C   0  0  0  0  0  0  0  0  0  0  0  0
   -7.8675   -1.2558    2.0099 C   0  0  0  0  0  0  0  0  0  0  0  0
   -8.1704   -2.0582    3.0732 F   0  0  0  0  0  0  0  0  0  0  0  0
   -6.5671   -0.9274    1.6946 C   0  0  0  0  0  0  0  0  0  0  0  0
   -6.2525   -0.1198    0.6256 C   0  0  0  0  0  0  0  0  0  0  0  0
   -1.4701   -0.2719   -0.2891 C   0  0  0  0  0  0  0  0  0  0  0  0
   -1.5634   -1.7560   -0.2190 C   0  0  0  0  0  0  0  0  0  0  0  0
   -0.4504    0.4817   -0.7334 C   0  0  0  0  0  0  0  0  0  0  0  0
    0.8421    0.0665   -1.2851 C   0  0  0  0  0  0  0  0  0  0  0  0
    1.4391    0.9461   -2.0019 O   0  0  0  0  0  0  0  0  0  0  0  0
    1.4641   -1.1610   -1.1017 N   0  0  0  0  0  0  0  0  0  0  0  0
    2.7215   -1.6317   -1.5988 C   0  0  0  0  0  0  0  0  0  0  0  0
    3.9100   -0.9040   -1.0858 C   0  0  1  0  0  0  0  0  0  0  0  0
    3.9623    0.4288   -1.4233 O   0  0  0  0  0  0  0  0  0  0  0  0
    3.9389   -1.0769    0.4336 C   0  0  0  0  0  0  0  0  0  0  0  0
    5.1145   -0.5489    1.0231 N   0  0  0  0  0  0  0  0  0  0  0  0
    6.3057   -1.2328    0.7606 C   0  0  0  0  0  0  0  0  0  0  0  0
    7.5650   -0.4418    0.7566 C   0  0  0  0  0  0  0  0  0  0  0  0
    7.4895    0.7846    1.3637 O   0  0  0  0  0  0  0  0  0  0  0  0
    6.4448    1.4794    0.7104 C   0  0  0  0  0  0  0  0  0  0  0  0
    5.1722    0.8464    1.2284 C   0  0  0  0  0  0  0  0  0  0  0  0
    0.0822    3.1015   -2.1049 H   0  0  0  0  0  0  0  0  0  0  0  0
    0.9945    2.8829   -0.5849 H   0  0  0  0  0  0  0  0  0  0  0  0
   -0.4526    3.9508   -0.6159 H   0  0  0  0  0  0  0  0  0  0  0  0
   -2.6066    2.7533    0.0695 H   0  0  0  0  0  0  0  0  0  0  0  0
   -3.7823   -0.5608    1.4939 H   0  0  0  0  0  0  0  0  0  0  0  0
   -7.2117    1.6663   -1.9082 H   0  0  0  0  0  0  0  0  0  0  0  0
   -9.3955    0.4290   -0.4451 H   0  0  0  0  0  0  0  0  0  0  0  0
   -9.9115   -1.0343    1.4983 H   0  0  0  0  0  0  0  0  0  0  0  0
   -5.7718   -1.3177    2.3089 H   0  0  0  0  0  0  0  0  0  0  0  0
   -2.6454   -2.0706   -0.0938 H   0  0  0  0  0  0  0  0  0  0  0  0
   -1.2591   -2.2559   -1.1569 H   0  0  0  0  0  0  0  0  0  0  0  0
   -1.0707   -2.1818    0.6776 H   0  0  0  0  0  0  0  0  0  0  0  0
    0.9409   -1.8713   -0.4745 H   0  0  0  0  0  0  0  0  0  0  0  0
    2.7227   -1.5655   -2.7387 H   0  0  0  0  0  0  0  0  0  0  0  0
    2.8856   -2.7214   -1.3345 H   0  0  0  0  0  0  0  0  0  0  0  0
    4.8252   -1.3984   -1.5342 H   0  0  0  0  0  0  0  0  0  0  0  0
    4.6728    0.6685   -2.0620 H   0  0  0  0  0  0  0  0  0  0  0  0
    3.8608   -2.1623    0.6551 H   0  0  0  0  0  0  0  0  0  0  0  0
    3.0333   -0.6218    0.8919 H   0  0  0  0  0  0  0  0  0  0  0  0
    6.4000   -2.0516    1.5425 H   0  0  0  0  0  0  0  0  0  0  0  0
    6.2394   -1.7948   -0.1894 H   0  0  0  0  0  0  0  0  0  0  0  0
    8.3678   -1.0168    1.3034 H   0  0  0  0  0  0  0  0  0  0  0  0
    7.9510   -0.2953   -0.2738 H   0  0  0  0  0  0  0  0  0  0  0  0
    6.5258    1.2239   -0.3654 H   0  0  0  0  0  0  0  0  0  0  0  0
    6.4620    2.5549    0.9159 H   0  0  0  0  0  0  0  0  0  0  0  0
    5.1227    1.0724    2.3311 H   0  0  0  0  0  0  0  0  0  0  0  0
    4.3267    1.4070    0.7958 H   0  0  0  0  0  0  0  0  0  0  0  0
  1  2  1  0
  2  3  1  0
  3  4  1  0
  4  5  1  0
  5  6  2  0
  6  7  1  0
  7  8  2  0
  7  9  1  0
  9 10  1  0
 10 11  2  0
 11 12  1  0
 12 13  2  0
 13 14  1  0
 13 15  1  0
 15 16  2  0
  4 17  2  0
 17 18  1  0
 17 19  1  0
 19 20  1  0
 20 21  2  0
 20 22  1  0
 22 23  1  0
 23 24  1  0
 24 25  1  0
 24 26  1  0
 26 27  1  0
 27 28  1  0
 28 29  1  0
 29 30  1  0
 30 31  1  0
 31 32  1  0
 19  2  2  0
 32 27  1  0
 16  6  1  0
 16 10  1  0
  1 33  1  0
  1 34  1  0
  1 35  1  0
  3 36  1  0
  5 37  1  0
  9 38  1  0
 11 39  1  0
 12 40  1  0
 15 41  1  0
 18 42  1  0
 18 43  1  0
 18 44  1  0
 22 45  1  0
 23 46  1  0
 23 47  1  0
 24 48  1  6
 25 49  1  0
 26 50  1  0
 26 51  1  0
 28 52  1  0
 28 53  1  0
 29 54  1  0
 29 55  1  0
 31 56  1  0
 31 57  1  0
 32 58  1  0
 32 59  1  0
M  END
$$$$
[H]O[C@]1([H])C([H])([H])C([H])([H])[C@@]([H])(C([H])([H])N([H])C(=O)c2c(C([H])([H])[H])c(/C([H])=C3\C(=O)N([H])c4c([H])c([H])c(F)c([H])c43)n([H])c2C([H])([H])[H])C([H])([H])C1([H])[H]
     RDKit          3D

 56 59  0  0  0  0  0  0  0  0999 V2000
   -0.1625   -2.0170   -1.6912 C   0  0  0  0  0  0  0  0  0  0  0  0
    0.6743   -1.3537   -0.6309 C   0  0  0  0  0  0  0  0  0  0  0  0
    2.0253   -1.2518   -0.7016 N   0  0  0  0  0  0  0  0  0  0  0  0
    2.5491   -0.6347    0.3502 C   0  0  0  0  0  0  0  0  0  0  0  0
    3.9174   -0.2945    0.6737 C   0  0  0  0  0  0  0  0  0  0  0  0
    4.7153    0.4364   -0.0777 C   0  0  0  0  0  0  0  0  0  0  0  0
    4.4008    1.0504   -1.3587 C   0  0  0  0  0  0  0  0  0  0  0  0
    3.3062    1.0125   -1.9625 O   0  0  0  0  0  0  0  0  0  0  0  0
    5.6061    1.7119   -1.7847 N   0  0  0  0  0  0  0  0  0  0  0  0
    6.6243    1.5163   -0.8069 C   0  0  0  0  0  0  0  0  0  0  0  0
    7.9477    1.9472   -0.7491 C   0  0  0  0  0  0  0  0  0  0  0  0
    8.7466    1.6247    0.3184 C   0  0  0  0  0  0  0  0  0  0  0  0
    8.2600    0.8664    1.3600 C   0  0  0  0  0  0  0  0  0  0  0  0
    9.0088    0.5284    2.4240 F   0  0  0  0  0  0  0  0  0  0  0  0
    6.9281    0.4451    1.2800 C   0  0  0  0  0  0  0  0  0  0  0  0
    6.1314    0.7619    0.2241 C   0  0  0  0  0  0  0  0  0  0  0  0
    1.4595   -0.3221    1.1470 C   0  0  0  0  0  0  0  0  0  0  0  0
    1.5734    0.3926    2.4635 C   0  0  0  0  0  0  0  0  0  0  0  0
    0.2826   -0.7692    0.5376 C   0  0  0  0  0  0  0  0  0  0  0  0
   -1.0498   -0.6073    1.0602 C   0  0  0  0  0  0  0  0  0  0  0  0
   -1.0894   -0.1009    2.2542 O   0  0  0  0  0  0  0  0  0  0  0  0
   -2.2740   -0.9175    0.4583 N   0  0  0  0  0  0  0  0  0  0  0  0
   -3.4952   -0.6600    1.1981 C   0  0  0  0  0  0  0  0  0  0  0  0
   -4.7191   -1.0642    0.3658 C   0  0  1  0  0  0  0  0  0  0  0  0
   -5.9147   -0.7699    1.1897 C   0  0  0  0  0  0  0  0  0  0  0  0
   -7.0980   -0.2375    0.4546 C   0  0  0  0  0  0  0  0  0  0  0  0
   -6.5801    0.9724   -0.3393 C   0  0  2  0  0  0  0  0  0  0  0  0
   -7.6468    1.6667   -0.8459 O   0  0  0  0  0  0  0  0  0  0  0  0
   -5.7599    0.3519   -1.4468 C   0  0  0  0  0  0  0  0  0  0  0  0
   -4.6461   -0.5008   -0.9823 C   0  0  0  0  0  0  0  0  0  0  0  0
   -0.7411   -2.8111   -1.1628 H   0  0  0  0  0  0  0  0  0  0  0  0
   -0.7935   -1.2695   -2.1901 H   0  0  0  0  0  0  0  0  0  0  0  0
    0.5357   -2.5139   -2.4052 H   0  0  0  0  0  0  0  0  0  0  0  0
    2.5729   -1.6383   -1.4979 H   0  0  0  0  0  0  0  0  0  0  0  0
    4.3747   -0.6537    1.6173 H   0  0  0  0  0  0  0  0  0  0  0  0
    5.6962    2.2413   -2.6675 H   0  0  0  0  0  0  0  0  0  0  0  0
    8.3571    2.5534   -1.5690 H   0  0  0  0  0  0  0  0  0  0  0  0
    9.7829    1.9538    0.3784 H   0  0  0  0  0  0  0  0  0  0  0  0
    6.5558   -0.1586    2.1187 H   0  0  0  0  0  0  0  0  0  0  0  0
    1.1675   -0.3045    3.2506 H   0  0  0  0  0  0  0  0  0  0  0  0
    0.9342    1.2866    2.4886 H   0  0  0  0  0  0  0  0  0  0  0  0
    2.6164    0.5742    2.7122 H   0  0  0  0  0  0  0  0  0  0  0  0
   -2.3655   -1.3118   -0.4776 H   0  0  0  0  0  0  0  0  0  0  0  0
   -3.4940   -1.3422    2.0730 H   0  0  0  0  0  0  0  0  0  0  0  0
   -3.5206    0.4033    1.4647 H   0  0  0  0  0  0  0  0  0  0  0  0
   -4.6328   -2.1901    0.2967 H   0  0  0  0  0  0  0  0  0  0  0  0
   -5.6902   -0.0284    2.0141 H   0  0  0  0  0  0  0  0  0  0  0  0
   -6.2715   -1.6807    1.7571 H   0  0  0  0  0  0  0  0  0  0  0  0
   -7.8314    0.1522    1.1790 H   0  0  0  0  0  0  0  0  0  0  0  0
   -7.5385   -0.9739   -0.2574 H   0  0  0  0  0  0  0  0  0  0  0  0
   -5.9440    1.5512    0.3623 H   0  0  0  0  0  0  0  0  0  0  0  0
   -7.3846    2.6380   -0.8729 H   0  0  0  0  0  0  0  0  0  0  0  0
   -5.4290    1.1776   -2.1196 H   0  0  0  0  0  0  0  0  0  0  0  0
   -6.4852   -0.2487   -2.0702 H   0  0  0  0  0  0  0  0  0  0  0  0
   -3.6999    0.1138   -1.0768 H   0  0  0  0  0  0  0  0  0  0  0  0
   -4.4928   -1.3037   -1.7660 H   0  0  0  0  0  0  0  0  0  0  0  0
  1  2  1  0
  2  3  1  0
  3  4  1  0
  4  5  1  0
  5  6  2  0
  6  7  1  0
  7  8  2  0
  7  9  1  0
  9 10  1  0
 10 11  2  0
 11 12  1  0
 12 13  2  0
 13 14  1  0
 13 15  1  0
 15 16  2  0
  4 17  2  0
 17 18  1  0
 17 19  1  0
 19 20  1  0
 20 21  2  0
 20 22  1  0
 22 23  1  0
 23 24  1  0
 24 25  1  0
 25 26  1  0
 26 27  1  0
 27 28  1  0
 27 29  1  0
 29 30  1  0
 19  2  2  0
 30 24  1  0
 16  6  1  0
 16 10  1  0
  1 31  1  0
  1 32  1  0
  1 33  1  0
  3 34  1  0
  5 35  1  0
  9 36  1  0
 11 37  1  0
 12 38  1  0
 15 39  1  0
 18 40  1  0
 18 41  1  0
 18 42  1  0
 22 43  1  0
 23 44  1  0
 23 45  1  0
 24 46  1  6
 25 47  1  0
 25 48  1  0
 26 49  1  0
 26 50  1  0
 27 51  1  1
 28 52  1  0
 29 53  1  0
 29 54  1  0
 30 55  1  0
 30 56  1  0
M  END
$$$$
[H]O[C@]1([H])C([H])([H])C([H])([H])[C@]([H])(C([H])([H])N([H])C(=O)c2c(C([H])([H])[H])c(/C([H])=C3\C(=O)N([H])c4c([H])c([H])c(F)c([H])c43)n([H])c2C([H])([H])[H])C([H])([H])C1([H])[H]
     RDKit          3D

 56 59  0  0  0  0  0  0  0  0999 V2000
   -0.2849   -3.0384   -1.0270 C   0  0  0  0  0  0  0  0  0  0  0  0
    0.4676   -2.0564   -0.1747 C   0  0  0  0  0  0  0  0  0  0  0  0
    1.8310   -2.0019   -0.1251 N   0  0  0  0  0  0  0  0  0  0  0  0
    2.2609   -1.0451    0.6924 C   0  0  0  0  0  0  0  0  0  0  0  0
    3.6210   -0.6543    1.0052 C   0  0  0  0  0  0  0  0  0  0  0  0
    4.5393   -0.2817    0.1628 C   0  0  0  0  0  0  0  0  0  0  0  0
    4.3842   -0.1731   -1.2752 C   0  0  0  0  0  0  0  0  0  0  0  0
    3.3630   -0.3811   -1.9760 O   0  0  0  0  0  0  0  0  0  0  0  0
    5.6793    0.2397   -1.7685 N   0  0  0  0  0  0  0  0  0  0  0  0
    6.5739    0.3748   -0.6764 C   0  0  0  0  0  0  0  0  0  0  0  0
    7.9115    0.7418   -0.6200 C   0  0  0  0  0  0  0  0  0  0  0  0
    8.6086    0.8111    0.5701 C   0  0  0  0  0  0  0  0  0  0  0  0
    7.9383    0.5023    1.7298 C   0  0  0  0  0  0  0  0  0  0  0  0
    8.5670    0.5507    2.9348 F   0  0  0  0  0  0  0  0  0  0  0  0
    6.6043    0.1327    1.7094 C   0  0  0  0  0  0  0  0  0  0  0  0
    5.9437    0.0752    0.5023 C   0  0  0  0  0  0  0  0  0  0  0  0
    1.1066   -0.4587    1.1918 C   0  0  0  0  0  0  0  0  0  0  0  0
    1.1069    0.6674    2.1553 C   0  0  0  0  0  0  0  0  0  0  0  0
   -0.0205   -1.0937    0.6474 C   0  0  0  0  0  0  0  0  0  0  0  0
   -1.3907   -0.7547    0.9543 C   0  0  0  0  0  0  0  0  0  0  0  0
   -1.5487    0.2881    1.7038 O   0  0  0  0  0  0  0  0  0  0  0  0
   -2.5639   -1.3949    0.5570 N   0  0  0  0  0  0  0  0  0  0  0  0
   -3.8736   -0.9589    0.9144 C   0  0  0  0  0  0  0  0  0  0  0  0
   -4.2094    0.4046    0.3695 C   0  0  2  0  0  0  0  0  0  0  0  0
   -5.6248    0.6879    0.8379 C   0  0  0  0  0  0  0  0  0  0  0  0
   -6.2684    1.8693    0.2062 C   0  0  0  0  0  0  0  0  0  0  0  0
   -5.8076    2.1718   -1.1869 C   0  0  2  0  0  0  0  0  0  0  0  0
   -6.9120    2.5971   -1.9346 O   0  0  0  0  0  0  0  0  0  0  0  0
   -5.3478    0.8724   -1.8126 C   0  0  0  0  0  0  0  0  0  0  0  0
   -4.1109    0.3379   -1.1309 C   0  0  0  0  0  0  0  0  0  0  0  0
   -0.7684   -3.7485   -0.3293 H   0  0  0  0  0  0  0  0  0  0  0  0
   -0.9694   -2.5513   -1.7344 H   0  0  0  0  0  0  0  0  0  0  0  0
    0.4632   -3.6721   -1.5921 H   0  0  0  0  0  0  0  0  0  0  0  0
    2.4350   -2.6573   -0.6625 H   0  0  0  0  0  0  0  0  0  0  0  0
    3.9285   -0.6683    2.0700 H   0  0  0  0  0  0  0  0  0  0  0  0
    5.8707    0.3975   -2.7669 H   0  0  0  0  0  0  0  0  0  0  0  0
    8.4147    0.9779   -1.5296 H   0  0  0  0  0  0  0  0  0  0  0  0
    9.6644    1.1020    0.5992 H   0  0  0  0  0  0  0  0  0  0  0  0
    6.0933   -0.1063    2.6271 H   0  0  0  0  0  0  0  0  0  0  0  0
    2.1161    0.8471    2.5324 H   0  0  0  0  0  0  0  0  0  0  0  0
    0.4997    0.3814    3.0632 H   0  0  0  0  0  0  0  0  0  0  0  0
    0.6102    1.5787    1.7619 H   0  0  0  0  0  0  0  0  0  0  0  0
   -2.5402   -2.2730   -0.0481 H   0  0  0  0  0  0  0  0  0  0  0  0
   -4.6397   -1.6680    0.4885 H   0  0  0  0  0  0  0  0  0  0  0  0
   -4.0578   -1.0001    2.0171 H   0  0  0  0  0  0  0  0  0  0  0  0
   -3.4959    1.1379    0.7742 H   0  0  0  0  0  0  0  0  0  0  0  0
   -5.5214    0.9203    1.9393 H   0  0  0  0  0  0  0  0  0  0  0  0
   -6.2563   -0.2276    0.8093 H   0  0  0  0  0  0  0  0  0  0  0  0
   -6.1526    2.7986    0.8374 H   0  0  0  0  0  0  0  0  0  0  0  0
   -7.3753    1.6459    0.1586 H   0  0  0  0  0  0  0  0  0  0  0  0
   -5.0059    2.9405   -1.1993 H   0  0  0  0  0  0  0  0  0  0  0  0
   -7.3474    3.3969   -1.5474 H   0  0  0  0  0  0  0  0  0  0  0  0
   -5.2257    0.9904   -2.8916 H   0  0  0  0  0  0  0  0  0  0  0  0
   -6.1519    0.1271   -1.6412 H   0  0  0  0  0  0  0  0  0  0  0  0
   -3.2673    0.9845   -1.4446 H   0  0  0  0  0  0  0  0  0  0  0  0
   -3.8644   -0.6859   -1.4668 H   0  0  0  0  0  0  0  0  0  0  0  0
  1  2  1  0
  2  3  1  0
  3  4  1  0
  4  5  1  0
  5  6  2  0
  6  7  1  0
  7  8  2  0
  7  9  1  0
  9 10  1  0
 10 11  2  0
 11 12  1  0
 12 13  2  0
 13 14  1  0
 13 15  1  0
 15 16  2  0
  4 17  2  0
 17 18  1  0
 17 19  1  0
 19 20  1  0
 20 21  2  0
 20 22  1  0
 22 23  1  0
 23 24  1  0
 24 25  1  0
 25 26  1  0
 26 27  1  0
 27 28  1  0
 27 29  1  0
 29 30  1  0
 19  2  2  0
 30 24  1  0
 16  6  1  0
 16 10  1  0
  1 31  1  0
  1 32  1  0
  1 33  1  0
  3 34  1  0
  5 35  1  0
  9 36  1  0
 11 37  1  0
 12 38  1  0
 15 39  1  0
 18 40  1  0
 18 41  1  0
 18 42  1  0
 22 43  1  0
 23 44  1  0
 23 45  1  0
 24 46  1  1
 25 47  1  0
 25 48  1  0
 26 49  1  0
 26 50  1  0
 27 51  1  1
 28 52  1  0
 29 53  1  0
 29 54  1  0
 30 55  1  0
 30 56  1  0
M  END
$$$$
[H]/C(=C1/C(=O)N([H])c2c([H])c([H])c(F)c([H])c21)c1c(C([H])([H])[H])c(C(=O)N([H])[C@]2([H])C([H])([H])C([H])([H])[C@@]([H])(N3C([H])([H])C([H])([H])OC([H])([H])C3([H])[H])C([H])([H])C2([H])[H])c(C([H])([H])[H])n1[H]
     RDKit          3D

 65 69  0  0  0  0  0  0  0  0999 V2000
    1.2070    3.1922   -0.9612 C   0  0  0  0  0  0  0  0  0  0  0  0
    2.0587    2.1249   -0.3615 C   0  0  0  0  0  0  0  0  0  0  0  0
    3.4240    2.1594   -0.3663 N   0  0  0  0  0  0  0  0  0  0  0  0
    3.9060    1.0843    0.2558 C   0  0  0  0  0  0  0  0  0  0  0  0
    5.3196    0.8101    0.4782 C   0  0  0  0  0  0  0  0  0  0  0  0
    5.9971   -0.1004   -0.1948 C   0  0  0  0  0  0  0  0  0  0  0  0
    5.4894   -0.9638   -1.2474 C   0  0  0  0  0  0  0  0  0  0  0  0
    4.3227   -0.9957   -1.7358 O   0  0  0  0  0  0  0  0  0  0  0  0
    6.6003   -1.7948   -1.6393 N   0  0  0  0  0  0  0  0  0  0  0  0
    7.7487   -1.4669   -0.8697 C   0  0  0  0  0  0  0  0  0  0  0  0
    9.0497   -1.9370   -0.8302 C   0  0  0  0  0  0  0  0  0  0  0  0
   10.0020   -1.4389    0.0325 C   0  0  0  0  0  0  0  0  0  0  0  0
    9.6472   -0.4247    0.8989 C   0  0  0  0  0  0  0  0  0  0  0  0
   10.5522    0.1066    1.7746 F   0  0  0  0  0  0  0  0  0  0  0  0
    8.3622    0.0551    0.8754 C   0  0  0  0  0  0  0  0  0  0  0  0
    7.4140   -0.4486    0.0088 C   0  0  0  0  0  0  0  0  0  0  0  0
    2.8406    0.3292    0.6789 C   0  0  0  0  0  0  0  0  0  0  0  0
    2.8321   -0.9413    1.4436 C   0  0  0  0  0  0  0  0  0  0  0  0
    1.6510    0.9940    0.2827 C   0  0  0  0  0  0  0  0  0  0  0  0
    0.3144    0.4903    0.5174 C   0  0  0  0  0  0  0  0  0  0  0  0
    0.1919   -0.4556    1.3650 O   0  0  0  0  0  0  0  0  0  0  0  0
   -0.8652    0.9288   -0.0909 N   0  0  0  0  0  0  0  0  0  0  0  0
   -2.1449    0.3108    0.2675 C   0  0  1  0  0  0  0  0  0  0  0  0
   -3.1288    1.3556    0.7102 C   0  0  0  0  0  0  0  0  0  0  0  0
   -4.4807    0.7786    0.9809 C   0  0  0  0  0  0  0  0  0  0  0  0
   -4.9319    0.0052   -0.2414 C   0  0  1  0  0  0  0  0  0  0  0  0
   -3.9610   -1.1523   -0.3777 C   0  0  0  0  0  0  0  0  0  0  0  0
   -2.6559   -0.5405   -0.8848 C   0  0  0  0  0  0  0  0  0  0  0  0
   -6.2455   -0.5217   -0.1100 N   0  0  0  0  0  0  0  0  0  0  0  0
   -6.8184   -1.0184   -1.3408 C   0  0  0  0  0  0  0  0  0  0  0  0
   -7.8384   -2.0817   -0.9123 C   0  0  0  0  0  0  0  0  0  0  0  0
   -8.5837   -1.5397    0.1231 O   0  0  0  0  0  0  0  0  0  0  0  0
   -8.5805   -0.1518    0.1466 C   0  0  0  0  0  0  0  0  0  0  0  0
   -7.2032    0.4247    0.4287 C   0  0  0  0  0  0  0  0  0  0  0  0
    1.8283    4.1151   -1.1183 H   0  0  0  0  0  0  0  0  0  0  0  0
    0.4345    3.4934   -0.2278 H   0  0  0  0  0  0  0  0  0  0  0  0
    0.7486    2.8855   -1.9095 H   0  0  0  0  0  0  0  0  0  0  0  0
    3.9561    2.9289   -0.8021 H   0  0  0  0  0  0  0  0  0  0  0  0
    5.8910    1.3712    1.2408 H   0  0  0  0  0  0  0  0  0  0  0  0
    6.5455   -2.5214   -2.3791 H   0  0  0  0  0  0  0  0  0  0  0  0
    9.3250   -2.7371   -1.5144 H   0  0  0  0  0  0  0  0  0  0  0  0
   11.0189   -1.8023    0.0657 H   0  0  0  0  0  0  0  0  0  0  0  0
    8.0630    0.8432    1.5389 H   0  0  0  0  0  0  0  0  0  0  0  0
    2.2825   -1.6780    0.8159 H   0  0  0  0  0  0  0  0  0  0  0  0
    2.3699   -0.8526    2.4376 H   0  0  0  0  0  0  0  0  0  0  0  0
    3.8838   -1.2770    1.5934 H   0  0  0  0  0  0  0  0  0  0  0  0
   -0.9121    1.6765   -0.8107 H   0  0  0  0  0  0  0  0  0  0  0  0
   -1.9984   -0.3991    1.1031 H   0  0  0  0  0  0  0  0  0  0  0  0
   -2.6996    1.7992    1.6508 H   0  0  0  0  0  0  0  0  0  0  0  0
   -3.2577    2.1665   -0.0364 H   0  0  0  0  0  0  0  0  0  0  0  0
   -4.5036    0.0882    1.8428 H   0  0  0  0  0  0  0  0  0  0  0  0
   -5.1941    1.6358    1.1247 H   0  0  0  0  0  0  0  0  0  0  0  0
   -4.8174    0.6326   -1.1423 H   0  0  0  0  0  0  0  0  0  0  0  0
   -3.7724   -1.5872    0.6455 H   0  0  0  0  0  0  0  0  0  0  0  0
   -4.3507   -1.9424   -1.0392 H   0  0  0  0  0  0  0  0  0  0  0  0
   -2.9016    0.0474   -1.7664 H   0  0  0  0  0  0  0  0  0  0  0  0
   -1.9100   -1.3273   -1.0425 H   0  0  0  0  0  0  0  0  0  0  0  0
   -6.0352   -1.4090   -1.9820 H   0  0  0  0  0  0  0  0  0  0  0  0
   -7.3256   -0.2044   -1.9048 H   0  0  0  0  0  0  0  0  0  0  0  0
   -7.2153   -2.8967   -0.4395 H   0  0  0  0  0  0  0  0  0  0  0  0
   -8.4191   -2.4718   -1.7452 H   0  0  0  0  0  0  0  0  0  0  0  0
   -8.9987    0.2000   -0.8188 H   0  0  0  0  0  0  0  0  0  0  0  0
   -9.3244    0.1541    0.9198 H   0  0  0  0  0  0  0  0  0  0  0  0
   -7.1214    1.4222   -0.0514 H   0  0  0  0  0  0  0  0  0  0  0  0
   -7.0827    0.4704    1.5223 H   0  0  0  0  0  0  0  0  0  0  0  0
  1  2  1  0
  2  3  1  0
  3  4  1  0
  4  5  1  0
  5  6  2  0
  6  7  1  0
  7  8  2  0
  7  9  1  0
  9 10  1  0
 10 11  2  0
 11 12  1  0
 12 13  2  0
 13 14  1  0
 13 15  1  0
 15 16  2  0
  4 17  2  0
 17 18  1  0
 17 19  1  0
 19 20  1  0
 20 21  2  0
 20 22  1  0
 22 23  1  0
 23 24  1  0
 24 25  1  0
 25 26  1  0
 26 27  1  0
 27 28  1  0
 26 29  1  0
 29 30  1  0
 30 31  1  0
 31 32  1  0
 32 33  1  0
 33 34  1  0
 19  2  2  0
 28 23  1  0
 34 29  1  0
 16  6  1  0
 16 10  1  0
  1 35  1  0
  1 36  1  0
  1 37  1  0
  3 38  1  0
  5 39  1  0
  9 40  1  0
 11 41  1  0
 12 42  1  0
 15 43  1  0
 18 44  1  0
 18 45  1  0
 18 46  1  0
 22 47  1  0
 23 48  1  1
 24 49  1  0
 24 50  1  0
 25 51  1  0
 25 52  1  0
 26 53  1  6
 27 54  1  0
 27 55  1  0
 28 56  1  0
 28 57  1  0
 30 58  1  0
 30 59  1  0
 31 60  1  0
 31 61  1  0
 33 62  1  0
 33 63  1  0
 34 64  1  0
 34 65  1  0
M  END
$$$$
[H]/C(=C1/C(=O)N([H])c2c([H])c([H])c(F)c([H])c21)c1c(C([H])([H])[H])c(C(=O)N([H])C([H])([H])[C@]2([H])C([H])([H])C([H])([H])[C@]([H])(N3C([H])([H])C([H])([H])OC([H])([H])C3([H])[H])C([H])([H])C2([H])[H])c(C([H])([H])[H])n1[H]
     RDKit          3D

 68 72  0  0  0  0  0  0  0  0999 V2000
    1.9951   -2.0697   -3.2203 C   0  0  0  0  0  0  0  0  0  0  0  0
    2.4729   -1.3408   -1.9856 C   0  0  0  0  0  0  0  0  0  0  0  0
    3.6792   -0.7923   -1.8001 N   0  0  0  0  0  0  0  0  0  0  0  0
    3.8114   -0.2165   -0.6011 C   0  0  0  0  0  0  0  0  0  0  0  0
    4.9708    0.4575   -0.0558 C   0  0  0  0  0  0  0  0  0  0  0  0
    6.1426   -0.1072    0.0830 C   0  0  0  0  0  0  0  0  0  0  0  0
    6.5321   -1.4595   -0.2490 C   0  0  0  0  0  0  0  0  0  0  0  0
    5.8044   -2.3635   -0.6965 O   0  0  0  0  0  0  0  0  0  0  0  0
    7.9480   -1.5736    0.0421 N   0  0  0  0  0  0  0  0  0  0  0  0
    8.4043   -0.3319    0.5366 C   0  0  0  0  0  0  0  0  0  0  0  0
    9.6446    0.0968    0.9532 C   0  0  0  0  0  0  0  0  0  0  0  0
    9.8922    1.3864    1.4101 C   0  0  0  0  0  0  0  0  0  0  0  0
    8.8202    2.2636    1.4368 C   0  0  0  0  0  0  0  0  0  0  0  0
    8.9946    3.5479    1.8769 F   0  0  0  0  0  0  0  0  0  0  0  0
    7.5720    1.8640    1.0277 C   0  0  0  0  0  0  0  0  0  0  0  0
    7.3757    0.5809    0.5848 C   0  0  0  0  0  0  0  0  0  0  0  0
    2.5761   -0.4204    0.0236 C   0  0  0  0  0  0  0  0  0  0  0  0
    2.3156    0.1087    1.3845 C   0  0  0  0  0  0  0  0  0  0  0  0
    1.7420   -1.1117   -0.8177 C   0  0  0  0  0  0  0  0  0  0  0  0
    0.3673   -1.5311   -0.6495 C   0  0  0  0  0  0  0  0  0  0  0  0
   -0.2318   -1.8704   -1.7241 O   0  0  0  0  0  0  0  0  0  0  0  0
   -0.3530   -1.5988    0.5644 N   0  0  0  0  0  0  0  0  0  0  0  0
   -1.7030   -1.9537    0.7893 C   0  0  0  0  0  0  0  0  0  0  0  0
   -2.8068   -1.0773    0.3961 C   0  0  2  0  0  0  0  0  0  0  0  0
   -2.9676   -0.6794   -1.0068 C   0  0  0  0  0  0  0  0  0  0  0  0
   -4.2466    0.1479   -1.1942 C   0  0  0  0  0  0  0  0  0  0  0  0
   -4.9952    0.3990    0.0583 C   0  0  1  0  0  0  0  0  0  0  0  0
   -4.1219    0.8399    1.1798 C   0  0  0  0  0  0  0  0  0  0  0  0
   -2.8026    0.1626    1.3123 C   0  0  0  0  0  0  0  0  0  0  0  0
   -6.0942    1.3189   -0.1104 N   0  0  0  0  0  0  0  0  0  0  0  0
   -7.1149    0.9068   -1.0044 C   0  0  0  0  0  0  0  0  0  0  0  0
   -8.2868    0.4280   -0.2154 C   0  0  0  0  0  0  0  0  0  0  0  0
   -8.8928    1.5358    0.3625 O   0  0  0  0  0  0  0  0  0  0  0  0
   -8.0062    2.3271    1.0680 C   0  0  0  0  0  0  0  0  0  0  0  0
   -6.6178    1.7783    1.1330 C   0  0  0  0  0  0  0  0  0  0  0  0
    1.5965   -3.0687   -2.9488 H   0  0  0  0  0  0  0  0  0  0  0  0
    2.8837   -2.2479   -3.8567 H   0  0  0  0  0  0  0  0  0  0  0  0
    1.2906   -1.4424   -3.7833 H   0  0  0  0  0  0  0  0  0  0  0  0
    4.4237   -0.8232   -2.5696 H   0  0  0  0  0  0  0  0  0  0  0  0
    4.8997    1.5117    0.2772 H   0  0  0  0  0  0  0  0  0  0  0  0
    8.4719   -2.4603   -0.1134 H   0  0  0  0  0  0  0  0  0  0  0  0
   10.4871   -0.5795    0.9395 H   0  0  0  0  0  0  0  0  0  0  0  0
   10.8578    1.7309    1.7376 H   0  0  0  0  0  0  0  0  0  0  0  0
    6.7616    2.5550    1.0577 H   0  0  0  0  0  0  0  0  0  0  0  0
    2.3657   -0.6974    2.1140 H   0  0  0  0  0  0  0  0  0  0  0  0
    1.3443    0.6599    1.4483 H   0  0  0  0  0  0  0  0  0  0  0  0
    3.1203    0.8423    1.6575 H   0  0  0  0  0  0  0  0  0  0  0  0
    0.1980   -1.3606    1.4619 H   0  0  0  0  0  0  0  0  0  0  0  0
   -1.9065   -3.0139    0.3982 H   0  0  0  0  0  0  0  0  0  0  0  0
   -1.8244   -2.1550    1.9185 H   0  0  0  0  0  0  0  0  0  0  0  0
   -3.7662   -1.6496    0.7046 H   0  0  0  0  0  0  0  0  0  0  0  0
   -3.0382   -1.5405   -1.6681 H   0  0  0  0  0  0  0  0  0  0  0  0
   -2.0983   -0.0481   -1.2964 H   0  0  0  0  0  0  0  0  0  0  0  0
   -3.9677    1.0377   -1.7635 H   0  0  0  0  0  0  0  0  0  0  0  0
   -4.9040   -0.4468   -1.8612 H   0  0  0  0  0  0  0  0  0  0  0  0
   -5.4635   -0.5812    0.3653 H   0  0  0  0  0  0  0  0  0  0  0  0
   -4.6664    0.6908    2.1607 H   0  0  0  0  0  0  0  0  0  0  0  0
   -3.9254    1.9557    1.1888 H   0  0  0  0  0  0  0  0  0  0  0  0
   -2.6819   -0.2280    2.3375 H   0  0  0  0  0  0  0  0  0  0  0  0
   -1.9339    0.7951    1.0982 H   0  0  0  0  0  0  0  0  0  0  0  0
   -7.4649    1.8411   -1.5341 H   0  0  0  0  0  0  0  0  0  0  0  0
   -6.8074    0.2318   -1.8201 H   0  0  0  0  0  0  0  0  0  0  0  0
   -9.0384    0.0017   -0.9385 H   0  0  0  0  0  0  0  0  0  0  0  0
   -8.0803   -0.3819    0.4952 H   0  0  0  0  0  0  0  0  0  0  0  0
   -8.4028    2.4358    2.0920 H   0  0  0  0  0  0  0  0  0  0  0  0
   -8.0089    3.3300    0.6087 H   0  0  0  0  0  0  0  0  0  0  0  0
   -5.9289    2.5322    1.5463 H   0  0  0  0  0  0  0  0  0  0  0  0
   -6.6126    0.9210    1.8529 H   0  0  0  0  0  0  0  0  0  0  0  0
  1  2  1  0
  2  3  1  0
  3  4  1  0
  4  5  1  0
  5  6  2  0
  6  7  1  0
  7  8  2  0
  7  9  1  0
  9 10  1  0
 10 11  2  0
 11 12  1  0
 12 13  2  0
 13 14  1  0
 13 15  1  0
 15 16  2  0
  4 17  2  0
 17 18  1  0
 17 19  1  0
 19 20  1  0
 20 21  2  0
 20 22  1  0
 22 23  1  0
 23 24  1  0
 24 25  1  0
 25 26  1  0
 26 27  1  0
 27 28  1  0
 28 29  1  0
 27 30  1  0
 30 31  1  0
 31 32  1  0
 32 33  1  0
 33 34  1  0
 34 35  1  0
 19  2  2  0
 29 24  1  0
 35 30  1  0
 16  6  1  0
 16 10  1  0
  1 36  1  0
  1 37  1  0
  1 38  1  0
  3 39  1  0
  5 40  1  0
  9 41  1  0
 11 42  1  0
 12 43  1  0
 15 44  1  0
 18 45  1  0
 18 46  1  0
 18 47  1  0
 22 48  1  0
 23 49  1  0
 23 50  1  0
 24 51  1  1
 25 52  1  0
 25 53  1  0
 26 54  1  0
 26 55  1  0
 27 56  1  1
 28 57  1  0
 28 58  1  0
 29 59  1  0
 29 60  1  0
 31 61  1  0
 31 62  1  0
 32 63  1  0
 32 64  1  0
 34 65  1  0
 34 66  1  0
 35 67  1  0
 35 68  1  0
M  END
$$$$
